data_mof_unit_255.cif
_audit_creation_date              2012-12-10T18:37:58-0500
_audit_creation_method            fapswitch 2.2
_symmetry_space_group_name_H-M    P1
_symmetry_Int_Tables_number       1
_space_group_crystal_system       triclinic
_cell_length_a                    15.04511
_cell_length_b                    15.469824
_cell_length_c                    27.658094
_cell_angle_alpha                 91.226895
_cell_angle_beta                  105.471681
_cell_angle_gamma                 81.026719
_cell_volume                      6126.70790463

loop_
_atom_site_label
_atom_site_type_symbol
_atom_type_description
_atom_site_fract_x
_atom_site_fract_y
_atom_site_fract_z
_atom_type_partial_charge
C1    C     C_R   0.441102 0.662013 0.491604 0.961594
C2    C     C_R   0.558658 0.337815 0.506027 0.943746
C3    C     C_R   0.492905 0.539507 0.897712 -0.183543
C4    C     C_R   0.484571 0.522870 0.100662 -0.181662
C5    C     C_R   0.408666 0.549364 0.858896 -0.114832
C6    C     C_R   0.568732 0.499013 0.138639 -0.133106
C7    C     C_R   0.322559 0.559085 0.871104 0.509740
C8    C     C_R   0.653723 0.478418 0.125498 0.509688
C9    C     C_R   0.579598 0.529736 0.885589 -0.122612
C10   C     C_R   0.398556 0.540504 0.113519 -0.127438
C11   C     C_R   0.502795 0.509299 0.646564 -0.277248
C12   C     C_R   0.492849 0.501789 0.353355 -0.229160
C13   C     C_R   0.401887 0.549497 0.011704 0.027978
C14   C     C_R   0.575160 0.526171 0.987163 0.022181
C15   C     C_R   0.573153 0.515235 0.037561 0.026557
C16   C     C_R   0.403705 0.548764 0.960665 0.027213
C17   C     C_R   0.486502 0.529004 0.049847 0.077785
C18   C     C_R   0.490538 0.538464 0.948627 0.076966
C19   C     C_R   0.317847 0.570479 0.025846 -0.328998
C20   C     C_R   0.659561 0.525720 0.974125 -0.328060
C21   C     C_R   0.314917 0.563379 0.075492 0.509118
C22   C     C_R   0.663174 0.524182 0.924249 0.528719
C23   C     C_R   0.501482 0.501241 0.593814 0.973721
C24   C     C_R   0.498374 0.499257 0.406353 1.001836
C25   C     C_R   0.321159 0.555864 0.921147 -0.331482
C26   C     C_R   0.655327 0.488037 0.075897 -0.321949
C27   C     C_R   0.404197 0.755203 0.486253 -0.139176
C28   C     C_R   0.594880 0.244302 0.509068 -0.140124
C29   C     C_R   0.285403 0.877979 0.491802 0.513649
C30   C     C_R   0.718707 0.121683 0.539586 0.513812
C31   C     C_R   0.316136 0.787492 0.492704 -0.452410
C32   C     C_R   0.687433 0.212225 0.534370 -0.415021
C33   C     C_R   0.461167 0.812879 0.477918 0.396548
C34   C     C_R   0.533698 0.186172 0.488232 0.384484
C35   C     C_R   0.441935 0.901145 0.490058 -0.171377
C36   C     C_R   0.557225 0.098069 0.504024 -0.151442
C37   C     C_R   0.349963 0.936087 0.492459 -0.037117
C38   C     C_R   0.652550 0.063297 0.525676 -0.039831
C39   C     C_R   0.512961 0.954062 0.501664 0.054936
C40   C     C_R   0.487455 0.044967 0.499837 0.061972
C41   C     C_R   0.394455 0.080800 0.498408 -0.330524
C42   C     C_R   0.608402 0.918261 0.519561 -0.344441
C43   C     C_R   0.326258 0.027363 0.496226 0.472931
C44   C     C_R   0.678015 0.971891 0.533179 0.480288
C45   C     C_R   0.413336 0.548076 0.808818 0.547433
C46   C     C_R   0.565007 0.495389 0.188712 0.598697
C47   C     C_R   0.841096 0.638849 0.576088 -0.312434
C48   C     C_R   0.154111 0.368656 0.422560 -0.314068
C49   C     C_R   0.751181 0.618163 0.561159 -0.012642
C50   C     C_R   0.245786 0.383177 0.438584 -0.049585
C51   C     C_R   0.797676 0.507664 0.507753 0.496957
C52   C     C_R   0.205240 0.497810 0.491339 0.540621
C53   C     C_R   0.885743 0.534738 0.516127 -0.017503
C54   C     C_R   0.113170 0.477910 0.481660 -0.119509
C55   C     C_R   0.909321 0.595835 0.554309 0.101788
C56   C     C_R   0.087235 0.416876 0.443328 0.132066
C57   C     C_R   0.952228 0.500298 0.489608 0.108288
C58   C     C_R   0.046173 0.515840 0.507366 0.057472
C59   C     C_R   0.070003 0.565344 0.551244 -0.221632
C60   C     C_R   0.926997 0.453088 0.445029 -0.147941
C61   C     C_R   0.001725 0.609339 0.572125 -0.178915
C62   C     C_R   0.994064 0.407596 0.424318 -0.198859
C63   C     C_R   0.579900 0.525241 0.834840 0.556421
C64   C     C_R   0.399203 0.534921 0.164304 0.584722
C65   C     C_R   0.471505 0.454539 0.720445 -0.265328
C66   C     C_R   0.478487 0.585811 0.278460 -0.326831
C67   C     C_R   0.472037 0.444735 0.670158 0.384687
C68   C     C_R   0.484231 0.583119 0.329675 0.382956
C69   C     C_R   0.531200 0.583812 0.672781 0.344105
C70   C     C_R   0.496400 0.423457 0.326544 0.232200
C71   C     C_R   0.530008 0.593542 0.723008 0.420265
C72   C     C_R   0.488245 0.427216 0.274653 0.424722
C73   C     C_R   0.499857 0.528042 0.746783 0.069486
C74   C     C_R   0.480736 0.508653 0.251438 0.179539
H1    H     H_    0.735556 0.257168 0.550144 0.214427
H2    H     H_    0.271308 0.742770 0.498683 0.207652
H3    H     H_    0.375560 0.150428 0.502495 0.198555
H4    H     H_    0.629161 0.848538 0.526444 0.185144
H5    H     H_    0.022127 0.650888 0.603950 0.157987
H6    H     H_    0.972436 0.367057 0.392154 0.148329
H7    H     H_    0.298355 0.346777 0.422761 0.204026
H8    H     H_    0.697661 0.651546 0.577383 0.177693
H9    H     H_    0.857283 0.687488 0.604544 0.168739
H10   H     H_    0.135469 0.320728 0.393977 0.166379
H11   H     H_    0.141200 0.570398 0.570744 0.206221
H12   H     H_    0.855367 0.450920 0.424915 0.192633
H13   H     H_    0.473276 0.647628 0.259433 0.168556
H14   H     H_    0.449068 0.404928 0.739506 0.173119
H15   H     H_    0.252492 0.594968 0.999282 0.158174
H16   H     H_    0.724439 0.528652 0.002026 0.165390
H17   H     H_    0.253590 0.556059 0.927563 0.158166
H18   H     H_    0.722547 0.470482 0.068465 0.154481
N1    N     N_R   0.497757 0.534871 0.798123 -0.350488
N2    N     N_R   0.481403 0.512850 0.200097 -0.322033
N3    N     N_R   0.731710 0.552720 0.528410 -0.144009
N4    N     N_R   0.268290 0.447280 0.471590 -0.111509
O1    O     O_R   0.383110 0.605620 0.485680 -0.595789
O2    O     O_R   0.616890 0.394380 0.514320 -0.660405
O3    O     O_R   0.531900 0.639510 0.503910 -0.570369
O4    O     O_R   0.468100 0.360490 0.496090 -0.553504
O5    O     O_R   0.425620 0.483050 0.562130 -0.545103
O6    O     O_R   0.574380 0.516950 0.437870 -0.638164
O7    O     O_R   0.574410 0.516930 0.580360 -0.600871
O8    O     O_R   0.425590 0.483070 0.419640 -0.605196
O9    O     O_2   0.334547 0.559546 0.770758 -0.514106
O10   O     O_2   0.643966 0.475335 0.226146 -0.516177
O11   O     O_2   0.318912 0.551248 0.178235 -0.504847
O12   O     O_2   0.661212 0.510238 0.821872 -0.490119
Zn1   Zn    Zn3+2 0.400660 0.477380 0.487830 1.041367
Zn2   Zn    Zn3+2 0.599340 0.522620 0.512170 0.991555
O13   O     O_3   0.562233 0.647060 0.649615 -0.563461
C75   C     C_3   0.486444 0.714084 0.629964 0.135332
H19   H     H_    0.449553 0.738940 0.658696 0.168464
H20   H     H_    0.435665 0.689890 0.597507 0.113149
C76   C     C_3   0.522972 0.790448 0.612196 -0.771744
H21   H     H_    0.560019 0.768392 0.583343 0.241300
H22   H     H_    0.463923 0.843059 0.595813 0.211844
H23   H     H_    0.572160 0.817059 0.644265 0.272153
O14   O     O_3   0.507757 0.343441 0.350743 -0.600189
C77   C     C_3   0.604221 0.314126 0.371688 0.113696
H24   H     H_    0.625614 0.338545 0.410445 0.143177
H25   H     H_    0.649436 0.335763 0.349600 0.143270
C78   C     C_3   0.622329 0.214578 0.374005 -0.808104
H26   H     H_    0.606164 0.188476 0.335452 0.248942
H27   H     H_    0.696819 0.191200 0.393243 0.200595
H28   H     H_    0.578107 0.189427 0.394981 0.272585
O15   O     O_3   0.453901 0.216278 0.450700 -0.766546
H29   H     H_    0.435771 0.166786 0.428846 0.336378
O16   O     O_3   0.532845 0.781746 0.456436 -0.726477
H30   H     H_    0.545965 0.830882 0.438335 0.340950
O17   O     O_3   0.197012 0.908726 0.497032 -0.549466
C79   C     C_3   0.129564 0.890437 0.453217 0.151546
H31   H     H_    0.126404 0.819047 0.450715 0.124420
H32   H     H_    0.144808 0.913632 0.418790 0.137612
C80   C     C_3   0.034024 0.937674 0.455059 -0.795667
H33   H     H_    0.034058 0.009463 0.456401 0.264798
H34   H     H_    0.980278 0.922932 0.421054 0.201593
H35   H     H_    0.016159 0.915730 0.488783 0.256980
O18   O     O_3   0.810665 0.091543 0.564744 -0.540450
C81   C     C_3   0.868734 0.104544 0.533840 0.110278
H36   H     H_    0.865493 0.175430 0.526010 0.141161
H37   H     H_    0.848668 0.069977 0.497690 0.139993
C82   C     C_3   0.969225 0.067646 0.560697 -0.720475
H38   H     H_    0.975870 0.996177 0.567640 0.267836
H39   H     H_    0.016079 0.079079 0.537340 0.217649
H40   H     H_    0.990960 0.100403 0.597138 0.257569
O19   O     O_3   0.231793 0.571917 0.515463 -0.766685
H41   H     H_    0.179011 0.620302 0.503705 0.300750
O20   O     O_3   0.783982 0.429297 0.484880 -0.821389
H42   H     H_    0.716868 0.430206 0.471076 0.368972
O21   O     O_3   0.557442 0.668138 0.746975 -0.713161
H43   H     H_    0.540640 0.673355 0.779245 0.337707
O22   O     O_3   0.489617 0.353298 0.245717 -0.759731
H44   H     H_    0.492034 0.301140 0.266406 0.370368
O23   O     O_3   0.239115 0.563757 0.834167 -0.561261
C83   C     C_3   0.192071 0.650860 0.829909 0.124575
H45   H     H_    0.237316 0.697439 0.823154 0.144342
H46   H     H_    0.169372 0.669680 0.864354 0.122703
C84   C     C_3   0.105643 0.658581 0.785627 -0.729254
H47   H     H_    0.058292 0.613796 0.791457 0.257166
H48   H     H_    0.067949 0.726811 0.781905 0.198135
H49   H     H_    0.126052 0.641266 0.750472 0.272278
O24   O     O_3   0.737254 0.452991 0.161323 -0.562342
C85   C     C_3   0.760049 0.360910 0.161041 0.131055
H50   H     H_    0.774921 0.339055 0.124976 0.115109
H51   H     H_    0.702451 0.328546 0.167020 0.152232
C86   C     C_3   0.847075 0.331561 0.203422 -0.758845
H52   H     H_    0.834029 0.351460 0.240061 0.273179
H53   H     H_    0.865815 0.259210 0.203554 0.194299
H54   H     H_    0.906334 0.361742 0.198258 0.251013
O25   O     O_3   0.481497 0.658536 0.357312 -0.723959
H55   H     H_    0.475201 0.709706 0.334975 0.341572
O26   O     O_3   0.444736 0.372210 0.643720 -0.734627
H56   H     H_    0.425330 0.333511 0.665844 0.341038
O27   O     O_3   0.229984 0.584974 0.086768 -0.561841
C87   C     C_3   0.178353 0.515279 0.072945 0.128648
H57   H     H_    0.218314 0.452861 0.092005 0.149877
H58   H     H_    0.159969 0.506641 0.031570 0.118787
C88   C     C_3   0.088021 0.535502 0.088712 -0.749003
H59   H     H_    0.045557 0.596524 0.069528 0.252134
H60   H     H_    0.047180 0.480832 0.078311 0.191217
H61   H     H_    0.103729 0.543867 0.129960 0.280269
O28   O     O_3   0.747547 0.526972 0.913377 -0.558865
C89   C     C_3   0.812216 0.450114 0.931191 0.152098
H62   H     H_    0.827404 0.414446 0.898312 0.190086
H63   H     H_    0.787419 0.403176 0.952844 0.097996
C90   C     C_3   0.902811 0.475315 0.963815 -0.856722
H64   H     H_    0.889983 0.510693 0.997242 0.246666
H65   H     H_    0.954857 0.415544 0.976533 0.209154
H66   H     H_    0.931592 0.518179 0.942098 0.275723
O29   O     O_3   0.236770 0.063519 0.497291 -0.720963
H67   H     H_    0.232124 0.128061 0.499485 0.328013
O30   O     O_3   0.770474 0.935788 0.553016 -0.720515
H68   H     H_    0.775844 0.871214 0.555388 0.324323

loop_
_geom_bond_atom_site_label_1
_geom_bond_atom_site_label_2
_ccdc_geom_bond_type
C82   H40   S    
C66   C68   A    
O25   H55   S    
O2    Zn2   S    
C80   H35   S    
C8    C26   A    
C14   C18   A    
O24   C85   S    
C81   C82   S    
C73   N1    S    
C45   N1    A    
C1    O3    A    
C32   H1    S    
C75   H20   S    
C57   C58   A    
C78   H26   S    
C47   C49   A    
C23   O5    A    
O26   H56   S    
C27   C33   A    
C12   C68   A    
C44   O30   S    
C65   H14   S    
O7    Zn2   S    
C19   H15   S    
C62   H6    S    
C85   H50   S    
C35   C37   A    
C81   H37   S    
C41   H3    S    
O8    Zn1   S    
C68   O25   S    
C9    C22   A    
C78   H27   S    
C65   C67   A    
C26   H18   S    
C82   H38   S    
C66   C74   A    
C82   H39   S    
C61   H5    S    
C65   C73   A    
C89   H62   S    
C30   C38   A    
C3    C18   A    
C60   C62   A    
C11   C23   S    
C69   C71   A    
C74   N2    S    
C90   H66   S    
O19   H41   S    
C87   C88   S    
C71   O21   S    
O13   C75   S    
C52   C54   A    
C79   H31   S    
C21   O27   S    
O21   H43   S    
C84   H48   S    
C72   O22   S    
C47   H9    S    
C39   C42   A    
C80   H33   S    
C24   O6    A    
C48   C56   A    
C77   C78   S    
C88   H61   S    
C48   C50   A    
C2    O4    A    
O4    Zn1   S    
C41   C43   A    
C42   C44   A    
C75   H19   S    
C45   O9    S    
C86   H54   S    
C53   C55   A    
C10   C21   A    
C54   C56   A    
C25   H17   S    
C59   C61   A    
C13   C19   A    
C27   C31   A    
O29   H67   S    
C14   C20   A    
C28   C32   A    
C81   H36   S    
C72   C74   A    
C1    O1    A    
C66   H13   S    
C5    C7    A    
C60   H12   S    
C34   O15   S    
C15   C26   A    
C6    C8    A    
C76   H22   S    
C58   C59   A    
O3    Zn2   S    
C5    C45   A    
C8    O24   S    
C48   H10   S    
C86   H53   S    
C24   O8    A    
C83   H45   S    
C49   H8    S    
C37   C43   A    
C35   C39   A    
O28   C89   S    
C59   H11   S    
C38   C44   A    
C22   O28   S    
C3    C9    A    
O1    Zn1   S    
C84   H47   S    
C46   N2    A    
C36   C40   A    
C70   O14   S    
O14   C77   S    
C76   H23   S    
C84   H49   S    
C49   N3    A    
C51   O20   S    
C79   H32   S    
C4    C17   A    
C23   O7    A    
C40   C41   A    
C20   C22   A    
C42   H4    S    
C52   O19   S    
C63   O12   S    
C29   C37   A    
C56   C62   A    
O6    Zn2   S    
C4    C6    A    
C11   C67   A    
C4    C10   A    
O15   H29   S    
C43   O29   S    
C3    C5    A    
C86   H52   S    
C77   H24   S    
C77   H25   S    
C64   O11   S    
C47   C55   A    
O16   H30   S    
C54   C58   A    
C33   O16   S    
C16   C25   A    
C80   H34   S    
C12   C70   A    
C87   H57   S    
C53   C57   A    
C30   O18   S    
C6    C46   A    
C19   C21   A    
C9    C63   A    
C83   C84   S    
C10   C64   A    
C78   H28   S    
N3    Zn2   S    
C70   C72   A    
O18   C81   S    
C11   C69   A    
C15   C17   A    
N4    Zn1   S    
C12   C24   S    
C7    C25   A    
C89   C90   S    
C13   C17   A    
C85   H51   S    
O22   H44   S    
C64   N2    A    
C90   H64   S    
C29   C31   A    
O27   C87   S    
O20   H42   S    
C36   C38   A    
C30   C32   A    
C69   O13   S    
C50   N4    A    
C31   H2    S    
C29   O17   S    
C20   H16   S    
C67   O26   S    
C79   C80   S    
C55   C61   A    
C83   H46   S    
C33   C35   A    
C89   H63   S    
C52   N4    A    
C34   C36   A    
C85   C86   S    
O17   C79   S    
C90   H65   S    
C46   O10   S    
C28   C34   A    
C88   H59   S    
C39   C40   A    
C57   C60   A    
C7    O23   S    
C2    O2    A    
C16   C18   A    
O30   H68   S    
C13   C16   A    
C71   C73   A    
O23   C83   S    
C1    C27   S    
C14   C15   A    
C2    C28   S    
C51   C53   A    
C63   N1    A    
O5    Zn1   S    
C75   C76   S    
C76   H21   S    
C50   H7    S    
C51   N3    A    
C87   H58   S    
C88   H60   S    
