data_mof_unit_2299.cif
_audit_creation_date              2012-12-11T14:07:49-0500
_audit_creation_method            fapswitch 2.2
_symmetry_space_group_name_H-M    P1
_symmetry_Int_Tables_number       1
_space_group_crystal_system       triclinic
_cell_length_a                    19.6803
_cell_length_b                    17.007742
_cell_length_c                    15.459191
_cell_angle_alpha                 89.837726
_cell_angle_beta                  54.163587
_cell_angle_gamma                 90.257568
_cell_volume                      4194.75611971

loop_
_atom_site_label
_atom_site_type_symbol
_atom_type_description
_atom_site_fract_x
_atom_site_fract_y
_atom_site_fract_z
_atom_type_partial_charge
C1    C     C_R   0.340854 0.174363 0.049175 -0.104275
C2    C     C_R   0.703249 0.847667 0.996450 0.162749
C3    C     C_3   0.885734 0.281633 0.411376 -0.951680
C4    C     C_3   0.812328 0.765185 0.664573 -1.060757
C5    C     C_3   0.773265 0.221607 0.619579 -1.030158
C6    C     C_3   0.315522 0.264090 0.664314 -1.022836
C7    C     C_3   0.273956 0.721612 0.617781 -1.029931
C8    C     C_3   0.899946 0.869079 0.273091 -0.982531
C9    C     C_3   0.685286 0.247135 0.316870 -1.046648
C10   C     C_3   0.404209 0.369838 0.273197 -0.979993
C11   C     C_3   0.183525 0.748920 0.317594 -1.044644
C12   C     C_3   0.795503 0.948563 0.477093 -1.027957
C13   C     C_R   0.211922 0.644833 0.979374 0.152442
C14   C     C_3   0.634947 0.123570 0.479417 -1.022299
C15   C     C_3   0.298945 0.449118 0.477242 -1.026023
C16   C     C_3   0.133856 0.624685 0.479359 -1.023694
C17   C     C_3   0.473311 0.297158 0.392454 -1.004952
C18   C     C_3   0.337863 0.679128 0.345991 -1.033610
C19   C     C_3   0.969767 0.797620 0.392754 -1.006406
C20   C     C_3   0.838798 0.178330 0.347201 -1.033833
C21   C     C_3   0.605114 0.727320 0.819316 -1.107582
C22   C     C_3   0.565724 0.276101 0.859143 -1.095713
C23   C     C_3   0.111659 0.228738 0.820947 -1.100772
C24   C     C_R   0.152937 0.316900 0.071490 0.149068
C25   C     C_3   0.069182 0.776476 0.857379 -1.109981
C26   C     C_R   0.669092 0.843949 0.677399 0.101046
C27   C     C_R   0.595719 0.186003 0.702607 0.074526
C28   C     C_R   0.172665 0.345302 0.677718 0.093492
C29   C     C_R   0.096494 0.686029 0.702096 0.075317
C30   C     C_3   0.264756 0.188734 0.460682 -0.011525
C31   C     C_3   0.205235 0.868611 0.516640 -0.018039
C32   C     C_3   0.761953 0.687380 0.461421 -0.012585
C33   C     C_R   0.375577 0.801931 0.994617 -0.116265
C34   C     C_3   0.705614 0.367906 0.516656 -0.017654
C35   C     C_3   0.202428 0.230646 0.566643 0.043163
C36   C     C_3   0.137177 0.822141 0.619515 0.051673
C37   C     C_3   0.698324 0.730227 0.565995 0.042883
C38   C     C_3   0.637076 0.321693 0.619440 0.056483
C39   C     C_3   0.390343 0.248689 0.457344 0.524098
C40   C     C_3   0.303338 0.746546 0.429882 0.514786
C41   C     C_3   0.887076 0.748684 0.457862 0.523192
C42   C     C_3   0.803823 0.245877 0.430926 0.514590
C43   C     C_3   0.825027 0.819804 0.367880 0.108361
C44   C     C_R   0.871188 0.695871 0.001857 -0.104566
C45   C     C_3   0.674840 0.271257 0.420582 0.107277
C46   C     C_3   0.328855 0.320674 0.367459 0.107362
C47   C     C_3   0.173665 0.772447 0.421096 0.105922
C48   C     C_3   0.350353 0.237236 0.391739 0.059580
C49   C     C_3   0.249582 0.811272 0.416715 0.077527
C50   C     C_3   0.847080 0.736619 0.392435 0.058132
C51   C     C_3   0.750372 0.310325 0.416914 0.076441
C52   C     C_3   0.736704 0.808664 0.573249 0.073616
C53   C     C_3   0.649333 0.230690 0.598223 0.061900
C54   C     C_3   0.240457 0.309477 0.573392 0.080077
C55   C     C_R   0.875498 0.302250 0.994724 -0.120472
C56   C     C_3   0.149325 0.731152 0.597919 0.062841
C57   C     C_3   0.820485 0.794572 0.564185 0.032647
C58   C     C_3   0.744103 0.208130 0.545957 0.024769
C59   C     C_3   0.324213 0.294825 0.564014 0.014689
C60   C     C_3   0.244145 0.708552 0.544773 0.025429
C61   C     C_R   0.352003 0.826701 0.215391 -0.148194
C62   C     C_R   0.407376 0.200594 0.201706 -0.168168
C63   C     C_R   0.852805 0.325804 0.215555 -0.148927
C64   C     C_R   0.904437 0.700191 0.202650 -0.159433
C65   C     C_3   0.763327 0.864547 0.474715 0.064436
C66   C     C_R   0.662939 0.911142 0.063492 -0.148853
C67   C     C_3   0.626972 0.211057 0.515771 0.087529
C68   C     C_3   0.266964 0.365106 0.474673 0.065005
C69   C     C_3   0.126198 0.711976 0.516085 0.087181
C70   C     C_2   0.286443 0.683034 0.957644 -0.195444
C71   C     C_2   0.194658 0.260142 0.095775 -0.202813
C72   C     C_2   0.782949 0.186405 0.963095 -0.194922
C73   C     C_2   0.775431 0.809754 0.977687 -0.190715
C74   C     C_2   0.811683 0.252521 0.905004 -0.204624
C75   C     C_2   0.805999 0.746212 0.915789 -0.229053
C76   C     C_2   0.313336 0.750917 0.902736 -0.206012
C77   C     C_R   0.666225 0.087247 0.057206 -0.142629
C78   C     C_2   0.213422 0.188114 0.051454 -0.193010
C79   C     C_R   0.366260 0.888023 0.895691 -0.160533
C80   C     C_R   0.329507 0.087235 0.951585 -0.151981
C81   C     C_R   0.865585 0.388773 0.896405 -0.150294
C82   C     C_R   0.863576 0.611205 0.899301 -0.152956
C83   C     C_R   0.416317 0.109533 0.296386 -0.168087
C84   C     C_R   0.358673 0.919557 0.312193 -0.179268
C85   C     C_R   0.915094 0.609637 0.296976 -0.170420
C86   C     C_R   0.859319 0.418756 0.312496 -0.179824
C87   C     C_R   0.288393 0.148225 0.024180 0.144885
C88   C     C_R   0.134914 0.395118 0.103915 -0.162287
C89   C     C_R   0.348599 0.811387 0.931414 0.154263
C90   C     C_R   0.843533 0.686278 0.939594 0.153944
C91   C     C_R   0.848068 0.312311 0.932092 0.153796
C92   C     C_R   0.309476 0.857403 0.317339 0.167742
C93   C     C_R   0.403062 0.189121 0.293538 0.140969
C94   C     C_R   0.810451 0.356292 0.317587 0.169507
C95   C     C_R   0.900165 0.688900 0.294471 0.141759
C96   C     C_R   0.660170 0.177864 0.954578 -0.139428
C97   C     C_R   0.655622 0.818196 0.965027 -0.157622
C98   C     C_R   0.161670 0.676030 0.952347 -0.138821
C99   C     C_R   0.169892 0.581819 0.049917 -0.144766
C100  C     C_R   0.124459 0.300682 0.011098 -0.121394
C101  C     C_R   0.627330 0.811675 0.781607 0.329967
C102  C     C_R   0.588940 0.200627 0.797461 0.334951
C103  C     C_R   0.130190 0.312997 0.782188 0.341216
C104  C     C_R   0.089576 0.700601 0.797087 0.342244
C105  C     C_R   0.583119 0.106450 0.703336 -0.240994
C106  C     C_R   0.625733 0.910942 0.685564 -0.238592
C107  C     C_R   0.083736 0.606421 0.702909 -0.244097
C108  C     C_R   0.128191 0.411749 0.685469 -0.238319
C109  C     C_3   0.225612 0.161896 0.401393 -0.927205
C110  C     C_R   0.708652 0.148852 0.985117 0.154281
C111  C     C_3   0.171644 0.947997 0.504493 -0.963378
C112  C     C_3   0.724153 0.657818 0.401608 -0.924728
C113  C     C_3   0.672422 0.447241 0.503729 -0.963929
C114  C     C_3   0.609684 0.740346 0.589750 -0.950014
C115  C     C_3   0.544933 0.347321 0.669964 -0.983847
C116  C     C_3   0.112158 0.238958 0.594895 -0.949187
C117  C     C_3   0.044820 0.847758 0.671410 -0.977092
C118  C     C_3   0.417333 0.169606 0.480892 -1.011499
C119  C     C_3   0.385502 0.782057 0.409818 -0.952322
C120  C     C_3   0.914649 0.670180 0.481951 -1.009096
H1    H     H_    0.331986 0.222515 0.099762 0.088033
H2    H     H_    0.747909 0.143188 0.538040 0.168870
H3    H     H_    0.198221 0.801269 0.266068 0.260684
H4    H     H_    0.787247 0.806913 0.337435 0.115919
H5    H     H_    0.629183 0.318789 0.443898 0.140402
H6    H     H_    0.291519 0.308475 0.336240 0.115976
H7    H     H_    0.127867 0.819978 0.445123 0.140984
H8    H     H_    0.706390 0.875639 0.477643 0.126246
H9    H     H_    0.558974 0.223142 0.557994 0.131861
H10   H     H_    0.209887 0.375793 0.477755 0.123947
H11   H     H_    0.058139 0.724108 0.558998 0.131797
H12   H     H_    0.758197 0.978275 0.554847 0.253998
H13   H     H_    0.349998 0.354071 0.558518 0.175280
H14   H     H_    0.859248 0.948936 0.457169 0.248144
H15   H     H_    0.795226 0.987639 0.419585 0.262258
H16   H     H_    0.660028 0.114615 0.395268 0.267957
H17   H     H_    0.674575 0.087285 0.492585 0.247434
H18   H     H_    0.571658 0.096328 0.521236 0.233816
H19   H     H_    0.261287 0.478880 0.554963 0.253608
H20   H     H_    0.362506 0.449343 0.457946 0.248087
H21   H     H_    0.299035 0.488134 0.419393 0.261931
H22   H     H_    0.157660 0.616194 0.395605 0.268649
H23   H     H_    0.174412 0.588324 0.490801 0.247387
H24   H     H_    0.247857 0.643625 0.536605 0.168397
H25   H     H_    0.070565 0.597317 0.522252 0.232982
H26   H     H_    0.503126 0.298393 0.435162 0.248858
H27   H     H_    0.518292 0.271561 0.312158 0.257815
H28   H     H_    0.464101 0.359409 0.383202 0.246421
H29   H     H_    0.389952 0.698730 0.264794 0.255901
H30   H     H_    0.364960 0.631738 0.366595 0.248234
H31   H     H_    0.290299 0.651290 0.340637 0.262730
H32   H     H_    0.999540 0.799674 0.435505 0.249294
H33   H     H_    0.014982 0.771792 0.312693 0.257958
H34   H     H_    0.960266 0.859611 0.382820 0.246592
H35   H     H_    0.306542 0.664070 0.006311 0.125950
H36   H     H_    0.890824 0.198016 0.265998 0.255180
H37   H     H_    0.866019 0.131265 0.368080 0.248946
H38   H     H_    0.791453 0.150040 0.341809 0.262456
H39   H     H_    0.412203 0.075023 0.357566 0.107746
H40   H     H_    0.351011 0.952727 0.376690 0.111206
H41   H     H_    0.910661 0.575265 0.358460 0.108981
H42   H     H_    0.851896 0.451679 0.377026 0.110746
H43   H     H_    0.659546 0.691092 0.795639 0.251455
H44   H     H_    0.569823 0.700077 0.791637 0.265497
H45   H     H_    0.561351 0.725279 0.907766 0.252214
H46   H     H_    0.222332 0.283163 0.133898 0.122830
H47   H     H_    0.622355 0.311674 0.831872 0.241587
H48   H     H_    0.520213 0.310387 0.855035 0.268687
H49   H     H_    0.534306 0.263141 0.945083 0.255991
H50   H     H_    0.164479 0.199302 0.813610 0.256477
H51   H     H_    0.087488 0.194008 0.783986 0.260506
H52   H     H_    0.057875 0.227234 0.906447 0.244441
H53   H     H_    0.126922 0.810794 0.828229 0.243610
H54   H     H_    0.023692 0.811814 0.854400 0.269454
H55   H     H_    0.038845 0.764035 0.943182 0.255392
H56   H     H_    0.277878 0.131397 0.482517 0.128919
H57   H     H_    0.802239 0.167986 0.012811 0.124931
H58   H     H_    0.252996 0.887383 0.529003 0.121478
H59   H     H_    0.775416 0.631100 0.485017 0.128411
H60   H     H_    0.752995 0.386726 0.529674 0.121461
H61   H     H_    0.792795 0.826624 0.029867 0.121173
H62   H     H_    0.794543 0.269830 0.852656 0.129056
H63   H     H_    0.790794 0.730985 0.861011 0.144543
H64   H     H_    0.295823 0.768758 0.850966 0.129438
H65   H     H_    0.385006 0.746889 0.021021 0.085055
H66   H     H_    0.184045 0.163780 0.016250 0.125289
H67   H     H_    0.362906 0.913520 0.834100 0.093989
H68   H     H_    0.307785 0.053655 0.912752 0.100353
H69   H     H_    0.861549 0.414717 0.835576 0.094262
H70   H     H_    0.859264 0.586715 0.838132 0.095761
H71   H     H_    0.672434 0.227193 0.903531 0.118989
H72   H     H_    0.664337 0.764513 0.923757 0.129938
H73   H     H_    0.174216 0.725623 0.901637 0.119665
H74   H     H_    0.116913 0.243772 0.988180 0.107031
H75   H     H_    0.562220 0.075631 0.662848 0.146692
H76   H     H_    0.877250 0.749680 0.033669 0.087156
H77   H     H_    0.627784 0.944659 0.624852 0.140515
H78   H     H_    0.064124 0.575205 0.661318 0.146274
H79   H     H_    0.131163 0.445435 0.624102 0.140823
H80   H     H_    0.678456 0.937390 0.113235 0.088059
H81   H     H_    0.683398 0.061018 0.105255 0.089400
H82   H     H_    0.139738 0.421954 0.163473 0.093407
H83   H     H_    0.190992 0.548155 0.089272 0.096779
H84   H     H_    0.170299 0.123438 0.453543 0.252699
H85   H     H_    0.206591 0.211619 0.373808 0.242342
H86   H     H_    0.267213 0.123559 0.332675 0.254195
H87   H     H_    0.885172 0.247182 0.020800 0.083169
H88   H     H_    0.143750 0.983046 0.578334 0.254168
H89   H     H_    0.220976 0.985990 0.439883 0.245844
H90   H     H_    0.123993 0.940545 0.488701 0.254192
H91   H     H_    0.668031 0.620517 0.454803 0.252555
H92   H     H_    0.706956 0.706292 0.370097 0.244434
H93   H     H_    0.766086 0.617700 0.335321 0.253464
H94   H     H_    0.643408 0.482151 0.577865 0.254999
H95   H     H_    0.722165 0.485433 0.440042 0.245824
H96   H     H_    0.625868 0.439718 0.486066 0.254019
H97   H     H_    0.579434 0.682290 0.601622 0.250611
H98   H     H_    0.340074 0.773917 0.189086 0.125737
H99   H     H_    0.564551 0.771688 0.664923 0.249788
H100  H     H_    0.613313 0.773145 0.525082 0.248129
H101  H     H_    0.531766 0.404057 0.712230 0.260247
H102  H     H_    0.530907 0.354024 0.610749 0.244444
H103  H     H_    0.498862 0.303640 0.728963 0.245394
H104  H     H_    0.083545 0.180283 0.604971 0.250166
H105  H     H_    0.067201 0.267935 0.672164 0.251026
H106  H     H_    0.112859 0.273342 0.533345 0.249067
H107  H     H_    0.032124 0.904622 0.713247 0.260022
H108  H     H_    0.029894 0.854208 0.613039 0.243555
H109  H     H_    0.402026 0.254499 0.169632 0.115973
H110  H     H_    0.999069 0.804196 0.731090 0.249388
H111  H     H_    0.196805 0.190402 0.626634 0.151250
H112  H     H_    0.150180 0.838136 0.677183 0.160696
H113  H     H_    0.689132 0.689976 0.628137 0.154628
H114  H     H_    0.649303 0.337794 0.677886 0.159321
H115  H     H_    0.365738 0.125933 0.523712 0.220929
H116  H     H_    0.472934 0.144404 0.407096 0.247500
H117  H     H_    0.441506 0.178318 0.529344 0.261710
H118  H     H_    0.373409 0.831004 0.464086 0.226163
H119  H     H_    0.422087 0.736439 0.416976 0.252364
H120  H     H_    0.841483 0.272774 0.189033 0.125260
H121  H     H_    0.430729 0.802713 0.326579 0.251017
H122  H     H_    0.863479 0.626133 0.525057 0.220701
H123  H     H_    0.970597 0.645090 0.408438 0.247209
H124  H     H_    0.938660 0.679740 0.530454 0.261268
H125  H     H_    0.873330 0.330655 0.465687 0.225680
H126  H     H_    0.922231 0.236158 0.418945 0.253072
H127  H     H_    0.931159 0.302281 0.328140 0.251576
H128  H     H_    0.791451 0.703185 0.683340 0.265909
H129  H     H_    0.873910 0.770053 0.651836 0.257072
H130  H     H_    0.771764 0.803626 0.733795 0.262060
H131  H     H_    0.895256 0.752975 0.172262 0.115310
H132  H     H_    0.767598 0.283811 0.643938 0.246967
H133  H     H_    0.739882 0.182975 0.690532 0.254096
H134  H     H_    0.838462 0.202267 0.581418 0.264028
H135  H     H_    0.293966 0.202179 0.681864 0.266923
H136  H     H_    0.377055 0.267875 0.651841 0.253168
H137  H     H_    0.274983 0.301973 0.734413 0.262857
H138  H     H_    0.268816 0.783797 0.641963 0.247205
H139  H     H_    0.240612 0.683074 0.688827 0.254098
H140  H     H_    0.339087 0.701870 0.579166 0.263745
H141  H     H_    0.920704 0.921261 0.293768 0.267146
H142  H     H_    0.845948 0.854031 0.558330 0.176859
H143  H     H_    0.957659 0.834027 0.222897 0.250915
H144  H     H_    0.882565 0.891500 0.220900 0.231640
H145  H     H_    0.732906 0.201485 0.270633 0.254011
H146  H     H_    0.625308 0.222771 0.336748 0.269599
H147  H     H_    0.699792 0.299277 0.265090 0.261254
H148  H     H_    0.424837 0.421790 0.294381 0.267106
H149  H     H_    0.461772 0.334508 0.223241 0.251074
H150  H     H_    0.387395 0.392657 0.220589 0.232540
H151  H     H_    0.230841 0.703116 0.270966 0.254529
H152  H     H_    0.123240 0.725125 0.337812 0.269180
N1    N     N_R   0.408680 0.130160 0.995800 -0.042624
N2    N     N_R   0.403730 0.078230 0.935950 -0.040206
N3    N     N_R   0.903730 0.421770 0.935950 -0.038204
N4    N     N_R   0.903730 0.578230 0.935950 -0.038888
N5    N     N_R   0.426630 0.075970 0.212960 -0.039216
N6    N     N_R   0.426630 0.924030 0.212960 -0.041849
N7    N     N_R   0.926630 0.575970 0.212960 -0.039898
N8    N     N_R   0.926630 0.424030 0.212960 -0.040163
N9    N     N_R   0.591320 0.134600 0.004200 -0.044027
N10   N     N_R   0.591320 0.865400 0.004200 -0.046307
N11   N     N_R   0.091320 0.634600 0.004200 -0.044555
N12   N     N_R   0.408680 0.869840 0.995800 -0.041863
N13   N     N_R   0.091320 0.365400 0.004200 -0.046822
N14   N     N_R   0.578320 0.867660 0.846880 -0.055398
N15   N     N_R   0.578320 0.132340 0.846880 -0.059188
N16   N     N_R   0.078320 0.367660 0.846880 -0.058132
N17   N     N_R   0.078320 0.632340 0.846880 -0.058828
N18   N     N_R   0.573370 0.074390 0.787040 -0.051940
N19   N     N_R   0.573370 0.925610 0.787040 -0.050122
N20   N     N_R   0.073370 0.574390 0.787040 -0.051291
N21   N     N_R   0.073370 0.425610 0.787040 -0.051268
N22   N     N_R   0.596270 0.927870 0.064040 -0.038965
N23   N     N_R   0.908680 0.630160 0.995800 -0.043108
N24   N     N_R   0.596270 0.072130 0.064040 -0.036535
N25   N     N_R   0.096270 0.427870 0.064040 -0.038577
N26   N     N_R   0.096270 0.572130 0.064040 -0.037553
N27   N     N_R   0.908680 0.369840 0.995800 -0.043188
N28   N     N_R   0.421680 0.867580 0.153120 -0.047991
N29   N     N_R   0.421680 0.132420 0.153120 -0.043634
N30   N     N_R   0.921680 0.367580 0.153120 -0.047474
N31   N     N_R   0.921680 0.632420 0.153120 -0.042847
N32   N     N_R   0.403730 0.921770 0.935950 -0.037499
Ni1   Ni    Ni4+2 0.500000 0.131190 0.000000 0.203463
Ni2   Ni    Ni4+2 0.500000 0.868810 0.000000 0.202295
Ni3   Ni    Ni4+2 0.000000 0.631190 0.000000 0.201765
Ni4   Ni    Ni4+2 0.000000 0.368810 0.000000 0.198260
Ni5   Ni    Ni4+2 0.488650 0.000000 0.862740 0.200973
Ni6   Ni    Ni4+2 0.988650 0.500000 0.862740 0.199052
Ni7   Ni    Ni4+2 0.511350 0.000000 0.137260 0.207568
Ni8   Ni    Ni4+2 0.011350 0.500000 0.137260 0.205451

loop_
_geom_bond_atom_site_label_1
_geom_bond_atom_site_label_2
_ccdc_geom_bond_type
C1    C87   A    
C21   H43   S    
C11   H152  S    
C7    C60   S    
C7    H139  S    
C42   C58   S    
N7    Ni8   S    
C3    C42   S    
N14   N19   A    
C96   H71   S    
N9    N24   A    
C13   C70   S    
C83   C93   A    
N30   Ni4   S    
C117  H110  S    
C17   C39   S    
C18   C40   S    
C75   C90   S    
N26   Ni8   S    
C11   C47   S    
C97   H72   S    
C23   C103  S    
C71   H46   S    
C78   H66   S    
C8    H144  S    
C22   H48   S    
C61   N28   A    
C20   H38   S    
C73   C75   D    
C67   H9    S    
C30   H56   S    
N3    N27   A    
C15   H19   S    
C46   C48   S    
C57   H142  S    
C58   H2    S    
C30   C109  S    
C28   C54   S    
C98   N11   A    
C37   C114  S    
C9    H145  S    
C98   H73   S    
C73   H61   S    
C14   H17   S    
N29   Ni1   S    
C36   H112  S    
C36   C117  S    
C119  H121  S    
C81   H69   S    
C106  H77   S    
N21   Ni6   S    
C118  H117  S    
C19   H33   S    
C9    H146  S    
C12   H12   S    
C24   C100  A    
C62   N29   A    
C114  H100  S    
C83   N5    A    
C107  H78   S    
C20   C42   S    
C53   C58   S    
C27   C53   S    
C119  H118  S    
C37   H113  S    
N17   Ni3   S    
C39   C118  S    
C17   H26   S    
C77   N24   A    
C38   C53   S    
C28   C108  A    
C6    H135  S    
C41   C120  S    
N9    Ni1   S    
C25   H53   S    
C40   C119  S    
C23   H51   S    
N18   Ni5   S    
C62   C93   A    
C31   C36   S    
C88   H82   S    
C18   H30   S    
C79   N32   A    
C66   H80   S    
C52   C65   S    
N13   Ni4   S    
C78   C87   S    
C5    H134  S    
C40   C60   S    
C115  H102  S    
C82   N4    A    
C9    H147  S    
C63   C94   A    
C34   C51   S    
C10   H148  S    
C5    C58   S    
C6    H137  S    
C30   C48   S    
C54   C68   S    
C66   N22   A    
C40   C49   S    
C5    H133  S    
C47   C69   S    
N12   Ni2   S    
C118  H115  S    
N22   Ni7   S    
C10   H149  S    
C84   N6    A    
C14   C67   S    
C85   N7    A    
C3    H126  S    
C86   N8    A    
N2    Ni5   S    
C76   C89   S    
C12   H14   S    
C64   N31   A    
C5    H132  S    
C113  H94   S    
C19   H32   S    
C54   C59   S    
N6    N28   A    
C31   H58   S    
C70   H35   S    
C112  H91   S    
C17   H28   S    
N4    Ni6   S    
N5    Ni7   S    
C37   C52   S    
C12   H15   S    
C29   C104  A    
C16   H25   S    
C120  H123  S    
C13   C99   A    
C68   H10   S    
N25   Ni8   S    
C46   C68   S    
C33   C89   A    
C25   H55   S    
C69   H11   S    
N24   Ni7   S    
C80   H68   S    
C32   C37   S    
C109  H85   S    
C2    C73   S    
C55   N27   A    
C107  N20   A    
C104  N17   A    
C99   H83   S    
C11   H151  S    
C6    C59   S    
C109  H84   S    
C2    C66   A    
C77   H81   S    
C25   C104  S    
C47   H7    S    
C74   H62   S    
C55   H87   S    
C27   C102  A    
C96   N9    A    
C116  H105  S    
C108  H79   S    
C111  H90   S    
C38   C115  S    
C85   C95   A    
C119  H119  S    
C53   C67   S    
C1    H1    S    
C79   C89   A    
C63   N30   A    
C56   C69   S    
C31   C111  S    
C29   C107  A    
C84   C92   A    
C113  H96   S    
C8    H141  S    
N23   Ni3   S    
C117  H108  S    
C9    C45   S    
C108  N21   A    
N19   Ni5   S    
C85   H41   S    
C34   H60   S    
C8    C43   S    
C26   C106  A    
C84   H40   S    
C34   C113  S    
C115  H103  S    
C4    H129  S    
N10   Ni2   S    
N17   N20   A    
C21   H45   S    
C55   C91   A    
C15   H21   S    
N12   N32   A    
C14   H18   S    
C2    C97   A    
C45   C67   S    
C61   C92   A    
C33   N12   A    
C21   H44   S    
C35   C54   S    
C7    H140  S    
C3    H127  S    
C31   C49   S    
N5    N29   A    
N32   Ni5   S    
N7    N31   A    
C48   C93   S    
C65   H8    S    
C16   H23   S    
C61   H98   S    
C72   C74   D    
C63   H120  S    
N10   N22   A    
C96   C110  A    
C56   C60   S    
C74   C91   S    
C116  H104  S    
C36   C56   S    
C43   C65   S    
C39   C59   S    
N15   N18   A    
C6    H136  S    
C35   C116  S    
C43   C50   S    
C120  H122  S    
N16   N21   A    
C8    H143  S    
C24   C88   A    
C22   H47   S    
C20   H37   S    
C49   C92   S    
C18   H31   S    
C41   C50   S    
C15   H20   S    
N28   Ni2   S    
C32   C112  S    
N13   N25   A    
C115  H101  S    
C11   H3    S    
C38   H114  S    
C29   C56   S    
N8    Ni8   S    
C12   C65   S    
C82   C90   A    
N8    N30   A    
C41   C57   S    
C60   H24   S    
C28   C103  A    
C14   H16   S    
C101  N14   A    
C35   H111  S    
N27   Ni4   S    
C103  N16   A    
C22   H49   S    
C52   C57   S    
C81   C91   A    
C118  H116  S    
C10   H150  S    
C19   H34   S    
C45   C51   S    
C7    H138  S    
C33   H65   S    
C3    H125  S    
C97   N10   A    
C19   C41   S    
C39   C48   S    
C114  H99   S    
C75   H63   S    
C47   C49   S    
C79   H67   S    
C30   C35   S    
C112  H92   S    
C17   H27   S    
C80   C87   A    
C26   C101  A    
C50   C95   S    
C27   C105  A    
C120  H124  S    
C13   C98   A    
C105  N18   A    
C4    H128  S    
C86   C94   A    
C25   H54   S    
N16   Ni4   S    
C23   H52   S    
C45   H5    S    
C44   N23   A    
C4    C57   S    
C10   C46   S    
C32   H59   S    
C86   H42   S    
C18   H29   S    
C1    N1    A    
C42   C51   S    
C21   C101  S    
N14   Ni2   S    
C82   H70   S    
C77   C110  A    
C72   H57   S    
N15   Ni1   S    
N11   Ni3   S    
C72   C110  S    
C44   H76   S    
N1    Ni1   S    
N4    N23   A    
N31   Ni3   S    
C100  N13   A    
C59   H13   S    
C116  H106  S    
C81   N3    A    
C102  N15   A    
C16   H22   S    
C111  H89   S    
C26   C52   S    
C64   H131  S    
C62   H109  S    
C80   N2    A    
N1    N2    A    
C112  H93   S    
C32   C50   S    
N3    Ni6   S    
C70   C76   D    
C113  H95   S    
C114  H97   S    
C44   C90   A    
C105  H75   S    
C117  H107  S    
C20   H36   S    
C34   C38   S    
C46   H6    S    
C16   C69   S    
C64   C95   A    
N6    Ni7   S    
C100  H74   S    
C22   C102  S    
C4    H130  S    
C99   N26   A    
C106  N19   A    
N11   N26   A    
C23   H50   S    
C15   C68   S    
C111  H88   S    
C109  H86   S    
N20   Ni6   S    
C51   C94   S    
C83   H39   S    
C88   N25   A    
C76   H64   S    
C43   H4    S    
C71   C78   D    
C24   C71   S    
