data_mof_unit_4194.cif
_audit_creation_date              2012-12-10T21:26:04-0500
_audit_creation_method            fapswitch 2.2
_symmetry_space_group_name_H-M    P1
_symmetry_Int_Tables_number       1
_space_group_crystal_system       triclinic
_cell_length_a                    8.573725
_cell_length_b                    16.123596
_cell_length_c                    16.885299
_cell_angle_alpha                 87.957522
_cell_angle_beta                  90.810032
_cell_angle_gamma                 101.357466
_cell_volume                      2286.98786944

loop_
_atom_site_label
_atom_site_type_symbol
_atom_type_description
_atom_site_fract_x
_atom_site_fract_y
_atom_site_fract_z
_atom_type_partial_charge
C1    C     C_R   0.495685 0.488734 0.652856 0.868103
C2    C     C_R   0.497284 0.510697 0.347121 0.869572
C3    C     C_R   0.408926 0.752383 0.467896 -0.063191
C4    C     C_R   0.590439 0.247512 0.532491 -0.061475
C5    C     C_R   0.402631 0.838866 0.472276 -0.091422
C6    C     C_R   0.596653 0.161030 0.528148 -0.091825
C7    C     C_R   0.517536 0.891855 0.519365 0.269396
C8    C     C_R   0.482448 0.108139 0.480638 0.269915
C9    C     C_R   0.629140 0.854215 0.561663 -0.328808
C10   C     C_R   0.371485 0.145888 0.437945 -0.329187
C11   C     C_R   0.628506 0.767510 0.556071 -0.007693
C12   C     C_R   0.372133 0.232600 0.443529 -0.008078
C13   C     C_R   0.801036 0.522050 0.500997 0.980580
C14   C     C_R   0.198963 0.477950 0.499010 0.976897
C15   C     C_2   0.967192 0.533993 0.501416 -0.388406
C16   C     C_2   0.032814 0.466005 0.498603 -0.385309
C17   C     C_R   0.472809 0.480638 0.737918 -0.026368
C18   C     C_R   0.474565 0.515095 0.261911 -0.025764
C19   C     C_R   0.442130 0.550047 0.778243 -0.233571
C20   C     C_R   0.432061 0.439651 0.221286 -0.232825
C21   C     C_R   0.413741 0.542906 0.858625 -0.165844
C22   C     C_R   0.403912 0.442164 0.140705 -0.165082
C23   C     C_R   0.417721 0.466069 0.900257 0.329409
C24   C     C_R   0.420079 0.520684 0.099186 0.330497
C25   C     C_R   0.444120 0.396224 0.859654 -0.196912
C26   C     C_R   0.457729 0.595846 0.140093 -0.196942
C27   C     C_R   0.471725 0.403238 0.778622 -0.218328
C28   C     C_R   0.485102 0.593334 0.221320 -0.221580
H1    H     H_    0.034983 0.598454 0.503975 0.178124
H2    H     H_    0.965026 0.401544 0.496046 0.178255
H3    H     H_    0.419751 0.378402 0.251660 0.162943
H4    H     H_    0.439182 0.610001 0.747769 0.166699
H5    H     H_    0.372650 0.382683 0.110993 0.146942
H6    H     H_    0.391723 0.598006 0.888080 0.147934
H7    H     H_    0.447400 0.336990 0.891366 0.135823
H8    H     H_    0.470177 0.656412 0.108481 0.135649
H9    H     H_    0.493322 0.348645 0.748129 0.158208
H10   H     H_    0.515587 0.652248 0.252050 0.159413
H11   H     H_    0.677393 0.288562 0.567893 0.140191
H12   H     H_    0.321494 0.711237 0.432820 0.141436
H13   H     H_    0.716961 0.892248 0.599033 0.162633
H14   H     H_    0.284158 0.107940 0.400274 0.162495
H15   H     H_    0.714620 0.739337 0.589394 0.133593
H16   H     H_    0.286567 0.260871 0.409880 0.130398
N1    N     N_2   0.408549 0.458422 0.983446 -0.209247
N2    N     N_2   0.412290 0.526905 0.015920 -0.209384
N3    N     N_R   0.519180 0.718290 0.509780 -0.092007
N4    N     N_R   0.480820 0.281710 0.490220 -0.090987
N5    N     N_2   0.522549 0.980531 0.529344 -0.175439
N6    N     N_2   0.477513 0.019461 0.470646 -0.174963
O1    O     O_R   0.493140 0.422050 0.612640 -0.624776
O2    O     O_R   0.506860 0.577950 0.387360 -0.624914
O3    O     O_R   0.505450 0.562230 0.618920 -0.625779
O4    O     O_R   0.494550 0.437770 0.381080 -0.624684
O5    O     O_R   0.723530 0.446300 0.497600 -0.618874
O6    O     O_R   0.276470 0.553700 0.502400 -0.620935
O7    O     O_R   0.735850 0.586490 0.503880 -0.624652
O8    O     O_R   0.264150 0.413510 0.496120 -0.626093
Zn1   Zn    Zn3+2 0.491780 0.406400 0.495810 0.942170
Zn2   Zn    Zn3+2 0.508220 0.593600 0.504190 0.940933
C29   C     C_R   0.730432 0.131323 0.568556 0.142568
C30   C     C_R   0.741006 0.129634 0.651623 -0.158575
C31   C     C_R   0.871398 0.105216 0.689822 -0.138359
C32   C     C_R   0.992923 0.083644 0.645355 -0.113114
C33   C     C_R   0.983990 0.086206 0.562650 -0.162441
C34   C     C_R   0.852702 0.109383 0.524181 -0.136223
H17   H     H_    0.648436 0.147224 0.686615 0.120893
H18   H     H_    0.878834 0.103646 0.753883 0.127200
H19   H     H_    0.094424 0.065404 0.674943 0.126126
H20   H     H_    0.079250 0.070579 0.528420 0.147278
H21   H     H_    0.847434 0.111517 0.460023 0.125802
C35   C     C_R   0.268075 0.868446 0.432419 0.142417
C36   C     C_R   0.148666 0.892554 0.477299 -0.135477
C37   C     C_R   0.016492 0.915494 0.439496 -0.162104
C38   C     C_R   0.003730 0.915600 0.356923 -0.113021
C39   C     C_R   0.122329 0.891845 0.311941 -0.138902
C40   C     C_R   0.253617 0.867702 0.349501 -0.159032
H22   H     H_    0.156796 0.892269 0.541380 0.125717
H23   H     H_    0.923400 0.932743 0.474149 0.147455
H24   H     H_    0.901493 0.933607 0.327854 0.126526
H25   H     H_    0.111904 0.891498 0.247995 0.127160
H26   H     H_    0.343847 0.848401 0.314121 0.121241

loop_
_geom_bond_atom_site_label_1
_geom_bond_atom_site_label_2
_ccdc_geom_bond_type
C14   O6    A    
C23   N1    S    
O5    Zn1   S    
C10   H14   S    
C36   C37   A    
C11   N3    A    
C12   N4    A    
N1    N2    D    
C30   C31   A    
C30   H17   S    
C6    C29   S    
C19   C21   A    
C24   C26   A    
C5    C35   S    
C2    C18   S    
C16   H2    S    
C15   C16   D    
C1    O3    A    
O2    Zn2   S    
N3    Zn2   S    
C29   C34   A    
C36   H22   S    
C11   H15   S    
C38   H24   S    
C22   C24   A    
C19   H4    S    
C10   C12   A    
C26   C28   A    
O3    Zn2   S    
C15   H1    S    
O4    Zn1   S    
C14   O8    A    
C37   C38   A    
C17   C27   A    
C18   C28   A    
C39   C40   A    
C7    N5    S    
C4    C6    A    
C2    O4    A    
C5    C7    A    
O7    Zn2   S    
C6    C8    A    
C21   H6    S    
O8    Zn1   S    
O6    Zn2   S    
C38   C39   A    
C35   C40   A    
C1    O1    A    
C34   H21   S    
C4    H11   S    
C28   H10   S    
C32   H19   S    
C9    C11   A    
C2    O2    A    
C25   H7    S    
C26   H8    S    
C20   C22   A    
C3    H12   S    
N5    N6    D    
C37   H23   S    
C21   C23   A    
C14   C16   S    
O1    Zn1   S    
C8    N6    S    
N4    Zn1   S    
C4    N4    A    
C7    C9    A    
C22   H5    S    
C31   H18   S    
C1    C17   S    
C35   C36   A    
C3    C5    A    
C39   H25   S    
C25   C27   A    
C9    H13   S    
C24   N2    S    
C32   C33   A    
C13   C15   S    
C12   H16   S    
C40   H26   S    
C27   H9    S    
C3    N3    A    
C17   C19   A    
C18   C20   A    
C23   C25   A    
C29   C30   A    
C31   C32   A    
C13   O7    A    
C8    C10   A    
C33   C34   A    
C33   H20   S    
C13   O5    A    
C20   H3    S    
