data_mof_unit_1026.cif
_audit_creation_date              2012-12-10T20:48:46-0500
_audit_creation_method            fapswitch 2.2
_symmetry_space_group_name_H-M    P1
_symmetry_Int_Tables_number       1
_space_group_crystal_system       triclinic
_cell_length_a                    15.781909
_cell_length_b                    8.930028
_cell_length_c                    8.111152
_cell_angle_alpha                 90.007731
_cell_angle_beta                  90.121321
_cell_angle_gamma                 90.001693
_cell_volume                      1143.12551304

loop_
_atom_site_label
_atom_site_type_symbol
_atom_type_description
_atom_site_fract_x
_atom_site_fract_y
_atom_site_fract_z
_atom_type_partial_charge
C1    C     C_R   0.500002 0.217999 0.499993 0.939539
C2    C     C_3   0.048512 0.444540 0.317796 -0.250298
C3    C     C_3   0.951431 0.381211 0.641961 -0.259008
C4    C     C_3   0.949616 0.430136 0.324381 -0.210831
C5    C     C_1   0.750703 0.494879 0.500440 -0.107922
C6    C     C_1   0.249294 0.494724 0.498959 -0.133129
C7    C     C_3   0.082849 0.481559 0.494876 0.140733
C8    C     C_3   0.917138 0.481732 0.498083 0.135490
C9    C     C_3   0.951412 0.642636 0.528447 -0.432782
C10   C     C_3   0.048955 0.639623 0.541072 -0.405803
C11   C     C_2   0.905124 0.233341 0.664042 0.463391
C12   C     C_1   0.825721 0.489033 0.499899 -0.029429
C13   C     C_2   0.915664 0.278340 0.272932 0.502057
C14   C     C_2   0.082031 0.210248 0.602552 0.425336
C15   C     C_2   0.093937 0.317874 0.229701 0.362576
C16   C     C_1   0.174278 0.488820 0.497222 -0.072296
C17   C     C_R   0.337875 0.499941 0.499793 0.901193
C18   C     C_R   0.662123 0.499983 0.500167 0.900266
C19   C     C_1   0.500002 0.934790 0.500010 -0.168707
C20   C     C_1   0.500003 0.065190 0.499990 -0.164454
C21   C     C_R   0.500000 0.781977 0.500007 0.927896
C22   C     C_3   0.050038 0.368532 0.628443 -0.217934
H1    H     H_    0.068579 0.669371 0.668928 0.199216
H2    H     H_    0.946994 0.176170 0.310880 0.033034
H3    H     H_    0.058994 0.142825 0.501002 0.013081
H4    H     H_    0.142099 0.251891 0.291470 0.087249
H5    H     H_    0.075895 0.726667 0.457936 0.189189
H6    H     H_    0.924692 0.690552 0.643994 0.196449
H7    H     H_    0.931936 0.718254 0.425966 0.188897
H8    H     H_    0.062706 0.544407 0.239966 0.172464
H9    H     H_    0.076470 0.405726 0.749479 0.217007
H10   H     H_    0.923994 0.511174 0.232120 0.178252
H11   H     H_    0.938771 0.444343 0.758224 0.203650
H12   H     H_    0.908913 0.145413 0.572871 0.022809
N1    N     N_1   0.500000 0.500030 0.073640 -0.018304
N2    N     N_1   0.500000 0.500030 0.926360 -0.017998
O1    O     O_R   0.500000 0.285340 0.636850 -0.609547
O2    O     O_2   0.853090 0.269532 0.184688 -0.513375
O3    O     O_2   0.133441 0.155750 0.697898 -0.523175
O4    O     O_2   0.078453 0.291579 0.084965 -0.529519
O5    O     O_R   0.500000 0.285340 0.363150 -0.612457
O6    O     O_R   0.377140 0.500000 0.636930 -0.607657
O7    O     O_R   0.377140 0.500000 0.363070 -0.619286
O8    O     O_R   0.622860 0.500000 0.636930 -0.607819
O9    O     O_R   0.622860 0.500000 0.363070 -0.604285
O10   O     O_R   0.500000 0.714650 0.636900 -0.615344
O11   O     O_R   0.500000 0.714650 0.363100 -0.616386
O12   O     O_2   0.862881 0.210924 0.787562 -0.498870
Zn1   Zn    Zn3+2 0.500000 0.499990 0.682780 1.025877
Zn2   Zn    Zn3+2 0.500000 0.499990 0.317220 1.020969

loop_
_geom_bond_atom_site_label_1
_geom_bond_atom_site_label_2
_ccdc_geom_bond_type
O8    Zn1   S    
C10   H5    S    
C7    C10   S    
C2    C4    S    
C17   O7    A    
O7    Zn2   S    
C8    C9    S    
C18   O8    A    
C8    C12   S    
C7    C22   S    
O1    Zn1   S    
C9    C10   S    
C19   C20   T    
N1    N2    T    
C9    H7    S    
C4    C8    S    
C14   C22   S    
N1    Zn2   S    
C11   O12   D    
C2    C15   S    
O10   Zn1   S    
C13   O2    D    
C4    H10   S    
O9    Zn2   S    
C1    O5    A    
C7    C16   S    
C19   C21   S    
C3    C8    S    
O11   Zn2   S    
C14   H3    S    
C10   H1    S    
C15   O4    D    
C3    C11   S    
C2    H8    S    
C3    H11   S    
O6    Zn1   S    
C6    C16   T    
C18   O9    A    
O5    Zn2   S    
C13   H2    S    
C5    C12   T    
C21   O10   A    
C22   H9    S    
C4    C13   S    
C6    C17   S    
C17   O6    A    
C15   H4    S    
C3    C22   S    
C5    C18   S    
C21   O11   A    
C14   O3    D    
C11   H12   S    
N2    Zn1   S    
C2    C7    S    
C9    H6    S    
C1    O1    A    
C1    C20   S    
