data_mof_unit_515.cif
_audit_creation_date              2012-12-11T15:30:39-0500
_audit_creation_method            fapswitch 2.2
_symmetry_space_group_name_H-M    P1
_symmetry_Int_Tables_number       1
_space_group_crystal_system       triclinic
_cell_length_a                    7.007725
_cell_length_b                    20.337339
_cell_length_c                    24.578214
_cell_angle_alpha                 89.661713
_cell_angle_beta                  89.641001
_cell_angle_gamma                 90.098798
_cell_volume                      3502.71442845

loop_
_atom_site_label
_atom_site_type_symbol
_atom_type_description
_atom_site_fract_x
_atom_site_fract_y
_atom_site_fract_z
_atom_type_partial_charge
O1    O     O_R   0.507310 0.423620 0.460450 -0.534490
O2    O     O_R   0.170760 0.556060 0.437190 -0.539226
O3    O     O_R   0.004040 0.576380 0.539550 -0.539896
C1    C     C_R   0.340135 0.576857 0.422161 0.707276
O4    O     O_R   0.177350 0.422870 0.454070 -0.536978
O5    O     O_R   0.010680 0.442240 0.556560 -0.512823
C2    C     C_R   0.346297 0.399132 0.443293 0.707716
O6    O     O_R   0.500670 0.557760 0.443440 -0.540480
O7    O     O_3   0.340380 0.506510 0.533610 -0.358313
V1    V     V_3+5 0.064130 0.498790 0.493770 1.470702
O8    O     O_R   0.681170 0.443940 0.562810 -0.527382
C3    C     C_R   0.848934 0.423742 0.578541 0.718939
O9    O     O_R   0.674570 0.577130 0.545930 -0.540477
C4    C     C_R   0.842397 0.601766 0.555576 0.681660
V2    V     V_3+5 0.564560 0.501210 0.506230 1.481135
O10   O     O_3   0.838170 0.493490 0.466390 -0.375869
C5    C     C_R   0.973974 0.839929 0.907968 -0.226049
C6    C     C_R   0.844905 0.663677 0.586520 -0.046248
C7    C     C_R   0.019723 0.722452 0.899919 -0.200880
C8    C     C_R   0.000689 0.777926 0.932294 0.435031
C9    C     C_R   0.954647 0.844651 0.850448 -0.159646
C10   C     C_R   0.948030 0.786069 0.817764 0.055570
C11   C     C_R   0.996776 0.725969 0.843671 0.049258
C12   C     C_R   0.898618 0.783649 0.760821 0.063139
C13   C     C_R   0.930729 0.724576 0.730122 0.059793
C14   C     C_R   0.999133 0.668679 0.757821 -0.178030
C15   C     C_R   0.024483 0.668918 0.813546 -0.148435
C16   C     C_R   0.802124 0.835732 0.734814 -0.156376
C17   C     C_R   0.756267 0.833431 0.679994 -0.180296
C18   C     C_R   0.795771 0.777789 0.649085 0.124608
C19   C     C_R   0.882846 0.722094 0.673436 0.082740
C20   C     C_R   0.738712 0.776344 0.594487 -0.146272
C21   C     C_R   0.760302 0.719504 0.563845 -0.161111
C22   C     C_R   0.909963 0.665342 0.640431 -0.210591
H1    H     H_    0.067810 0.623592 0.833361 0.129549
H2    H     H_    0.973936 0.620841 0.655634 0.100639
H3    H     H_    0.707701 0.718646 0.522487 0.113670
H4    H     H_    0.682231 0.874931 0.662058 0.145302
H5    H     H_    0.052274 0.675542 0.918829 0.176508
H6    H     H_    0.025933 0.622463 0.738154 0.120252
H7    H     H_    0.747929 0.877406 0.756766 0.155263
H8    H     H_    0.670830 0.818684 0.575943 0.127671
C23   C     C_3   0.876982 0.273460 0.810154 -0.494531
C24   C     C_3   0.157383 0.221036 0.761412 0.298491
C25   C     C_3   0.131259 0.281776 0.719703 0.269534
H9    H     H_    0.870186 0.368774 0.768334 0.147973
H10   H     H_    0.985026 0.299042 0.835437 0.161432
H11   H     H_    0.257103 0.238437 0.793350 0.023300
H12   H     H_    0.176702 0.326214 0.742609 0.044451
C26   C     C_1   0.857440 0.377665 0.623998 -0.071639
C27   C     C_3   0.957917 0.206699 0.790113 0.067999
C28   C     C_3   0.822402 0.317467 0.760631 -0.383174
C29   C     C_3   0.915057 0.291073 0.706866 0.071169
C30   C     C_3   0.840168 0.220720 0.693679 -0.284320
C31   C     C_3   0.812952 0.181314 0.747371 -0.244846
C32   C     C_1   0.876997 0.338655 0.661404 0.143539
C33   C     C_1   0.968602 0.159617 0.836986 0.062462
C34   C     C_1   0.971096 0.121390 0.875310 -0.110983
H13   H     H_    0.666202 0.189449 0.763236 0.226963
H14   H     H_    0.821190 0.127669 0.740444 0.215876
H15   H     H_    0.715024 0.219061 0.667492 0.242403
H16   H     H_    0.748431 0.265642 0.836281 0.185599
H17   H     H_    0.664989 0.319140 0.757541 0.234205
H18   H     H_    0.945576 0.194791 0.667814 0.225340
C35   C     C_3   0.566734 0.691006 0.259135 -0.369906
C36   C     C_3   0.214699 0.713171 0.260183 -0.350233
C37   C     C_3   0.228641 0.768933 0.216691 -0.302633
H19   H     H_    0.550226 0.638436 0.247782 0.198753
H20   H     H_    0.086644 0.720977 0.286203 0.181198
H21   H     H_    0.196138 0.664179 0.240854 0.198933
H22   H     H_    0.136827 0.810215 0.230386 0.165119
C38   C     C_1   0.471917 0.879882 0.125585 -0.045562
C39   C     C_3   0.396383 0.711935 0.295590 0.130082
C40   C     C_3   0.584086 0.736047 0.207646 0.348592
C41   C     C_3   0.439119 0.795179 0.211429 -0.053831
C42   C     C_3   0.475571 0.831094 0.267155 0.292267
C43   C     C_3   0.435491 0.782812 0.316131 -0.367468
C44   C     C_1   0.458551 0.842300 0.164308 0.090263
C45   C     C_1   0.371422 0.664356 0.341439 -0.027387
C46   C     C_1   0.353588 0.624401 0.378082 -0.179236
H23   H     H_    0.555274 0.782011 0.345499 0.211893
H24   H     H_    0.308830 0.800414 0.339332 0.131661
H25   H     H_    0.701129 0.693978 0.282896 0.152088
H26   H     H_    0.730700 0.756902 0.206880 0.124284
H27   H     H_    0.371651 0.872289 0.270330 0.096908
C47   C     C_R   0.471129 0.161557 0.089412 -0.036646
C48   C     C_R   0.353443 0.338228 0.410930 -0.052117
C49   C     C_R   0.513399 0.279371 0.093922 -0.152201
C50   C     C_R   0.510422 0.221570 0.063922 -0.170109
C51   C     C_R   0.435352 0.159672 0.145873 -0.202708
C52   C     C_R   0.439943 0.218123 0.177778 0.087180
C53   C     C_R   0.479481 0.278234 0.150278 0.130907
C54   C     C_R   0.408523 0.219222 0.235712 0.048805
C55   C     C_R   0.416877 0.280395 0.264739 0.054819
C56   C     C_R   0.456222 0.338346 0.234864 -0.176766
C57   C     C_R   0.486558 0.337083 0.179014 -0.183120
C58   C     C_R   0.369555 0.161259 0.265615 -0.162423
C59   C     C_R   0.339346 0.162539 0.321487 -0.170116
C60   C     C_R   0.346054 0.221424 0.350203 0.122821
C61   C     C_R   0.385253 0.281524 0.322656 0.089858
C62   C     C_R   0.312163 0.220354 0.406575 -0.146404
C63   C     C_R   0.314709 0.278222 0.436519 -0.155777
C64   C     C_R   0.389281 0.340026 0.354488 -0.210985
H28   H     H_    0.516751 0.383008 0.158008 0.143749
H29   H     H_    0.416565 0.387760 0.336860 0.095172
H30   H     H_    0.285605 0.276240 0.479858 0.131652
H31   H     H_    0.309506 0.116608 0.342523 0.147701
H32   H     H_    0.544172 0.325264 0.072973 0.125283
H33   H     H_    0.539648 0.223610 0.020598 0.106068
H34   H     H_    0.407599 0.111941 0.163457 0.102939
H35   H     H_    0.465155 0.386011 0.253474 0.131393
H36   H     H_    0.361032 0.113577 0.247008 0.142482
H37   H     H_    0.281761 0.174468 0.427577 0.131978
O11   O     O_R   0.323590 0.942280 0.056590 -0.535152
O12   O     O_R   0.647030 0.077140 0.045940 -0.543089
O13   O     O_R   0.813570 0.057750 0.943430 -0.541682
C65   C     C_R   0.478086 0.100754 0.056910 0.667732
O14   O     O_R   0.653510 0.943950 0.062820 -0.528709
O15   O     O_R   0.820100 0.923600 0.960440 -0.522653
C66   C     C_R   0.484067 0.924333 0.078921 0.765670
O16   O     O_R   0.317060 0.076430 0.039590 -0.543789
O17   O     O_3   0.483830 0.993520 0.966410 -0.364528
V3    V     V_3+5 0.760140 0.001200 0.006230 1.508533
O18   O     O_R   0.149560 0.922820 0.954030 -0.526011
C67   C     C_R   0.981080 0.899740 0.942437 0.795146
O19   O     O_R   0.143080 0.056020 0.937150 -0.533481
C68   C     C_R   0.975551 0.076049 0.921310 0.706206
V4    V     V_3+5 0.259690 0.998730 0.993720 1.528768
O20   O     O_3   0.986120 0.006480 0.033580 -0.379691
S1    S     S_3+6 0.264599 0.144345 0.736833 0.023181
O21   O     O_2   0.344206 0.108790 0.785427 -0.345876
O22   O     O_2   0.123209 0.099785 0.709968 -0.324994
O23   O     O_3   0.442869 0.155570 0.692327 -0.473784
H38   H     H_    0.489039 0.110802 0.683652 0.364849
S2    S     S_3+6 0.282700 0.286848 0.660147 -0.015758
O24   O     O_2   0.481268 0.290204 0.680392 -0.368752
O25   O     O_2   0.250816 0.349359 0.628744 -0.355460
O26   O     O_3   0.252901 0.222867 0.617978 -0.473112
H39   H     H_    0.356297 0.227406 0.590538 0.361128
S3    S     S_3+6 0.570574 0.686805 0.146675 0.034985
O27   O     O_2   0.401041 0.641496 0.148682 -0.327487
O28   O     O_2   0.559776 0.729713 0.096821 -0.261474
O29   O     O_3   0.768299 0.640361 0.143000 -0.492013
H40   H     H_    0.760212 0.617846 0.107459 0.398367
C69   C     C_1   0.143043 0.747895 0.165526 0.501494
N1    N     N_1   0.073753 0.730955 0.125572 -0.100973
S4    S     S_3+6 0.707374 0.869621 0.273670 -0.057484
O30   O     O_2   0.785893 0.891305 0.219422 -0.356420
O31   O     O_2   0.685656 0.928857 0.309469 -0.321165
O32   O     O_3   0.862146 0.817366 0.302802 -0.553649
H41   H     H_    0.966522 0.845499 0.316583 0.353055
S5    S     S_3+6 0.024220 0.768156 0.003198 0.060348
O33   O     O_2   0.001070 0.696881 0.018470 -0.278546
O34   O     O_2   0.219797 0.791123 0.019387 -0.328573
O35   O     O_3   0.856916 0.812565 0.035812 -0.474150
H42   H     H_    0.926024 0.837393 0.064119 0.346369
C70   C     C_1   0.972745 0.909534 0.826232 0.284376
N2    N     N_1   0.988218 0.961512 0.807225 -0.288767

loop_
_geom_bond_atom_site_label_1
_geom_bond_atom_site_label_2
_ccdc_geom_bond_type
C13   C19   A    
S2    O26   S    
C12   C13   A    
C62   C63   A    
O13   V3    S    
C31   H13   S    
C62   H37   S    
C4    C6    S    
C7    C11   A    
C56   C57   A    
S3    O29   S    
C1    O6    A    
C23   C27   S    
V4    O20   S    
C58   C59   A    
C51   C52   A    
S2    O24   D    
C29   C30   S    
C24   C25   S    
C14   C15   A    
O19   C68   A    
C10   C12   A    
C16   C17   A    
S4    O31   D    
S3    O28   D    
C1    C46   S    
O5    C3    A    
C18   C19   A    
C49   H32   S    
C23   C28   S    
C35   H25   S    
C36   H20   S    
C24   S1    S    
O29   H40   S    
H9    C28   S    
C16   H7    S    
C53   C57   A    
C5    C8    A    
C35   C39   S    
C65   O16   A    
C38   C44   T    
S4    O30   D    
O8    V2    S    
C70   N2    T    
C2    C48   S    
C49   C53   A    
C42   S4    S    
O12   C65   A    
O13   C68   A    
C17   H4    S    
C37   C69   S    
O1    V2    S    
C11   C15   A    
O7    V1    S    
C37   H22   S    
O18   V4    S    
C31   H14   S    
C36   C37   S    
C25   C29   S    
C34   C68   S    
O9    C4    A    
V3    O20   S    
C41   C44   S    
C69   N1    T    
O14   C66   A    
C20   H8    S    
C25   S2    S    
O12   V3    S    
C40   C41   S    
S4    O32   S    
C42   C43   S    
O16   V4    S    
C47   C51   A    
C52   C53   A    
O4    C2    A    
C58   H36   S    
C50   H33   S    
C15   H1    S    
C13   C14   A    
C36   C39   S    
C40   S3    S    
C28   H17   S    
C61   C64   A    
C26   C32   T    
C59   H31   S    
C8    S5    S    
S1    O22   D    
C41   C42   S    
C5    C67   S    
C17   C18   A    
C52   C54   A    
C48   C63   A    
O11   V4    S    
C60   C61   A    
S5    O35   S    
C55   C61   A    
C35   H19   S    
C38   C66   S    
C25   H12   S    
C39   C45   S    
C19   C22   A    
C64   H29   S    
C54   C55   A    
S3    O27   D    
C6    C22   A    
O3    C4    A    
C7    H5    S    
C27   C33   S    
O15   C67   A    
C24   C27   S    
C60   C62   A    
S5    O34   D    
C59   C60   A    
O6    V2    S    
C57   H28   S    
O23   H38   S    
C48   C64   A    
S1    O23   S    
C37   C41   S    
C51   H34   S    
O2    V1    S    
C54   C58   A    
C28   C29   S    
C29   C32   S    
S2    O25   D    
C30   C31   S    
O19   V4    S    
O1    C2    A    
C9    C70   S    
C12   C16   A    
C40   H26   S    
C47   C50   A    
V2    O10   S    
O5    V1    S    
C3    C26   S    
O8    C3    A    
C30   H15   S    
O15   V3    S    
O32   H41   S    
C20   C21   A    
C7    C8    A    
O9    V2    S    
S1    O21   D    
O7    V2    S    
O4    V1    S    
O3    V1    S    
V1    O10   S    
C18   C20   A    
C14   H6    S    
C33   C34   T    
C36   H21   S    
C30   H18   S    
C43   H24   S    
O2    C1    A    
C22   H2    S    
C63   H30   S    
C47   C65   S    
C27   C31   S    
O14   V3    S    
O17   V4    S    
C55   C56   A    
C6    C21   A    
C21   H3    S    
O26   H39   S    
C35   C40   S    
C45   C46   T    
C49   C50   A    
C43   H23   S    
O35   H42   S    
C39   C43   S    
C10   C11   A    
C56   H35   S    
S5    O33   D    
O17   V3    S    
C9    C10   A    
C23   H10   S    
C42   H27   S    
O11   C66   A    
C24   H11   S    
C23   H16   S    
O18   C67   A    
C5    C9    A    
