data_mof_unit_4117.cif
_audit_creation_date              2012-12-10T17:00:43-0500
_audit_creation_method            fapswitch 2.2
_symmetry_space_group_name_H-M    P1
_symmetry_Int_Tables_number       1
_space_group_crystal_system       triclinic
_cell_length_a                    27.825945
_cell_length_b                    10.988203
_cell_length_c                    9.726228
_cell_angle_alpha                 89.210217
_cell_angle_beta                  89.760979
_cell_angle_gamma                 90.564112
_cell_volume                      2973.40934358

loop_
_atom_site_label
_atom_site_type_symbol
_atom_type_description
_atom_site_fract_x
_atom_site_fract_y
_atom_site_fract_z
_atom_type_partial_charge
C1    C     C_R   0.499112 0.265062 0.501516 0.789326
C2    C     C_R   0.279136 0.465537 0.383249 -0.110026
C3    C     C_R   0.253394 0.503862 0.498719 0.296207
C4    C     C_R   0.101566 0.519240 0.501996 -0.054415
C5    C     C_R   0.124670 0.410245 0.469459 -0.079997
C6    C     C_R   0.097137 0.308789 0.432389 -0.302219
C7    C     C_R   0.129339 0.623998 0.528318 0.009336
C8    C     C_R   0.354564 0.505141 0.500662 -0.121826
C9    C     C_R   0.645232 0.512443 0.493687 -0.238276
C10   C     C_R   0.972737 0.420835 0.509309 -0.104942
C11   C     C_R   0.977096 0.643853 0.517979 0.093255
C12   C     C_R   0.407548 0.502039 0.500259 0.828376
C13   C     C_R   0.949623 0.534738 0.510979 -0.007387
C14   C     C_R   0.944877 0.315653 0.540076 0.394973
C15   C     C_R   0.894432 0.318326 0.526354 0.370091
C16   C     C_R   0.870990 0.431872 0.517984 -0.187501
C17   C     C_R   0.898688 0.539416 0.511637 -0.121966
C18   C     C_R   0.875398 0.652089 0.511930 0.010160
C19   C     C_R   0.824949 0.655972 0.511557 0.556186
C20   C     C_R   0.820361 0.441190 0.521984 0.596067
C21   C     C_R   0.723435 0.446094 0.415253 -0.300896
C22   C     C_R   0.673638 0.424356 0.428078 0.357468
C23   C     C_R   0.499475 0.733776 0.498253 0.875896
C24   C     C_R   0.665782 0.625175 0.530930 0.254635
C25   C     C_R   0.714323 0.649115 0.492027 0.417069
C26   C     C_R   0.745475 0.550030 0.470094 0.090585
C27   C     C_R   0.023209 0.416599 0.486710 -0.006717
C28   C     C_R   0.050768 0.524161 0.506212 -0.005146
C29   C     C_R   0.027851 0.637167 0.528288 0.067816
C30   C     C_R   0.046451 0.310439 0.438077 0.497229
C31   C     C_R   0.106457 0.732970 0.559462 -0.157794
C32   C     C_R   0.952694 0.755864 0.515728 -0.218285
C33   C     C_R   0.902852 0.759663 0.513082 -0.157935
C34   C     C_R   0.592450 0.498467 0.499188 0.913302
C35   C     C_R   0.056636 0.739682 0.559468 -0.233208
C36   C     C_2   0.478214 0.932867 0.405348 0.391096
C37   C     C_2   0.505059 0.863588 0.490035 -0.393837
C38   C     C_2   0.487977 0.065481 0.394821 0.316880
C39   C     C_2   0.496965 0.131291 0.509140 0.168091
C40   C     C_2   0.471145 0.430990 0.923175 0.622183
C41   C     C_2   0.478568 0.416922 0.078500 -0.176172
C42   C     C_R   0.175202 0.406503 0.469381 0.568251
C43   C     C_R   0.179612 0.617460 0.522905 0.529317
C44   C     C_R   0.278476 0.542666 0.614989 -0.214357
C45   C     C_R   0.328805 0.551211 0.613776 0.409735
C46   C     C_R   0.329241 0.464217 0.385132 -0.299563
Cu1   Cu    Cu3+1 0.500010 0.500020 0.638630 1.024721
Cu2   Cu    Cu3+1 0.499990 0.499980 0.361370 0.935244
H1    H     H_    0.258671 0.570732 0.705075 0.151719
H2    H     H_    0.260349 0.436798 0.291803 0.160565
H3    H     H_    0.745652 0.380990 0.363732 0.198235
N1    N     N_R   0.201681 0.509182 0.496464 -0.451715
N2    N     N_R   0.797682 0.551034 0.498312 -0.435934
N3    N     N_2   0.499480 0.498660 0.846910 -0.051410
N4    N     N_2   0.499460 0.498630 0.153040 -0.300638
O1    O     O_R   0.500010 0.321960 0.617040 -0.550810
O2    O     O_2   0.794241 0.341838 0.558739 -0.519692
O3    O     O_2   0.206245 0.719070 0.542480 -0.562431
O4    O     O_2   0.804551 0.764349 0.531730 -0.526395
O5    O     O_R   0.499990 0.321920 0.382900 -0.567896
O6    O     O_R   0.430270 0.500040 0.617060 -0.512360
O7    O     O_R   0.430260 0.500000 0.382910 -0.598641
O8    O     O_R   0.500010 0.678080 0.617100 -0.608992
O9    O     O_R   0.499990 0.678040 0.382960 -0.603064
O10   O     O_R   0.569740 0.500000 0.617090 -0.553844
O11   O     O_R   0.569730 0.499960 0.382940 -0.572345
O12   O     O_2   0.197604 0.300617 0.444563 -0.547580
H4    H     H_    0.348258 0.431639 0.295752 0.173962
H5    H     H_    0.126993 0.814253 0.583093 0.181687
H6    H     H_    0.971225 0.842470 0.512748 0.121397
O13   O     O_3   0.635474 0.708580 0.595116 -0.637003
C47   C     C_3   0.656554 0.820588 0.635144 0.097850
H7    H     H_    0.627436 0.873821 0.682458 0.134251
H8    H     H_    0.667266 0.876478 0.544114 0.177096
C48   C     C_3   0.696267 0.808162 0.745217 -0.344166
H9    H     H_    0.679616 0.803562 0.848702 0.199394
H10   H     H_    0.717019 0.723350 0.735105 0.231988
C49   C     C_3   0.731350 0.916149 0.739647 -0.793416
H11   H     H_    0.742413 0.938131 0.632353 0.296430
H12   H     H_    0.764280 0.894099 0.798335 0.261543
H13   H     H_    0.714776 0.997153 0.786090 0.231095
H14   H     H_    0.885934 0.847985 0.511191 0.164000
O14   O     O_3   0.725294 0.762106 0.435732 -0.581302
C50   C     C_3   0.717014 0.762671 0.292055 0.042111
H15   H     H_    0.698373 0.848645 0.265265 0.154601
H16   H     H_    0.693003 0.687423 0.256221 0.120276
C51   C     C_3   0.765033 0.759489 0.215065 -0.296590
H17   H     H_    0.789109 0.832936 0.252905 0.239167
H18   H     H_    0.782688 0.670683 0.233925 0.215131
C52   C     C_3   0.757909 0.776708 0.061146 -0.963861
H19   H     H_    0.734945 0.702282 0.020528 0.261719
H20   H     H_    0.793301 0.774992 0.008108 0.266328
H21   H     H_    0.740728 0.865799 0.040033 0.264471
H22   H     H_    0.041602 0.826255 0.586505 0.136780
O15   O     O_3   0.437028 0.886104 0.343461 -0.610801
C53   C     C_3   0.447537 0.836887 0.212849 0.127039
H23   H     H_    0.434120 0.741307 0.212052 0.164932
H24   H     H_    0.486621 0.832909 0.188456 0.117926
C54   C     C_3   0.420952 0.906926 0.100108 -0.365800
H25   H     H_    0.382083 0.882703 0.103794 0.214326
H26   H     H_    0.424299 0.005783 0.117420 0.262244
C55   C     C_3   0.441178 0.878800 0.958120 -0.954162
H27   H     H_    0.480046 0.902352 0.952511 0.251386
H28   H     H_    0.422396 0.934190 0.879474 0.278866
H29   H     H_    0.436090 0.780775 0.935201 0.255634
H30   H     H_    0.535637 0.900148 0.544143 0.135681
O16   O     O_3   0.481506 0.123533 0.268790 -0.622017
C56   C     C_3   0.519541 0.095099 0.177841 -0.025039
H31   H     H_    0.505483 0.103957 0.071446 0.176642
H32   H     H_    0.532541 0.000487 0.190220 0.118511
C57   C     C_3   0.562212 0.182740 0.194105 -0.284742
H33   H     H_    0.550059 0.278121 0.190857 0.282265
H34   H     H_    0.580112 0.164640 0.293894 0.207076
C58   C     C_3   0.597934 0.169252 0.077385 -0.939922
H35   H     H_    0.612092 0.075230 0.075205 0.250458
H36   H     H_    0.628025 0.235238 0.089198 0.286174
H37   H     H_    0.579539 0.190459 0.979656 0.260140
O17   O     O_3   0.497877 0.072337 0.637450 -0.635583
C59   C     C_3   0.538063 0.104254 0.720639 0.080712
H38   H     H_    0.542623 0.028512 0.796144 0.153234
H39   H     H_    0.529820 0.184932 0.783380 0.193550
C60   C     C_3   0.586327 0.121637 0.642863 -0.445930
H40   H     H_    0.593182 0.041847 0.577666 0.187024
H41   H     H_    0.585388 0.203430 0.575041 0.217245
C61   C     C_3   0.628319 0.138946 0.740918 -0.915435
H42   H     H_    0.626184 0.229275 0.790084 0.281243
H43   H     H_    0.662565 0.136105 0.683142 0.247781
H44   H     H_    0.628805 0.065388 0.820099 0.254256
O18   O     O_3   0.436965 0.360652 0.856152 -0.599572
C62   C     C_3   0.391950 0.358498 0.924556 0.042454
H45   H     H_    0.364298 0.384138 0.847765 0.213439
H46   H     H_    0.388624 0.424827 0.009861 0.112936
C63   C     C_3   0.380691 0.229193 0.976160 -0.386350
H47   H     H_    0.384898 0.164371 0.890271 0.241020
H48   H     H_    0.406326 0.203916 0.058239 0.223972
C64   C     C_3   0.329662 0.218165 0.033177 -0.873641
H49   H     H_    0.324697 0.281069 0.120302 0.255411
H50   H     H_    0.323025 0.123534 0.070633 0.261688
H51   H     H_    0.303121 0.239796 0.951639 0.258680
O19   O     O_3   0.543344 0.518539 0.901702 -0.551167
C65   C     C_3   0.553974 0.643973 0.889028 0.167652
H52   H     H_    0.521853 0.700006 0.912480 0.108988
H53   H     H_    0.566612 0.667093 0.783818 0.217064
C66   C     C_3   0.594401 0.675500 0.989270 -0.369014
H54   H     H_    0.588444 0.627884 0.089533 0.245385
H55   H     H_    0.629172 0.643777 0.946918 0.218719
C67   C     C_3   0.597169 0.811926 0.015023 -1.005599
H56   H     H_    0.599516 0.863794 0.916638 0.254726
H57   H     H_    0.629233 0.833150 0.078223 0.257978
H58   H     H_    0.564635 0.840680 0.071269 0.251012
H59   H     H_    0.464324 0.336364 0.129660 0.189026
H60   H     H_    0.504464 0.582670 0.107995 0.211202
H61   H     H_    0.115440 0.230035 0.393603 0.189944
O20   O     O_3   0.651876 0.320514 0.374228 -0.614354
C68   C     C_3   0.678190 0.213300 0.405121 0.062986
H62   H     H_    0.652299 0.140489 0.434683 0.132799
H63   H     H_    0.702377 0.223414 0.495574 0.183534
C69   C     C_3   0.705602 0.167586 0.278824 -0.381680
H64   H     H_    0.681648 0.108506 0.217355 0.213048
H65   H     H_    0.717619 0.244555 0.211567 0.231916
C70   C     C_3   0.749062 0.092903 0.321640 -0.906760
H66   H     H_    0.737577 0.014128 0.386701 0.277440
H67   H     H_    0.774365 0.149774 0.381337 0.298268
H68   H     H_    0.767757 0.059196 0.228838 0.256953
O21   O     O_3   0.867510 0.211014 0.528628 -0.568788
C71   C     C_3   0.881313 0.131285 0.421924 0.087436
H69   H     H_    0.856371 0.051810 0.427174 0.172665
H70   H     H_    0.917688 0.093893 0.439108 0.173091
C72   C     C_3   0.877814 0.188900 0.276855 -0.393572
H71   H     H_    0.842233 0.232178 0.263270 0.228520
H72   H     H_    0.906033 0.260338 0.262935 0.221421
C73   C     C_3   0.884837 0.093609 0.166038 -0.903308
H73   H     H_    0.920826 0.051578 0.176202 0.257180
H74   H     H_    0.882268 0.137443 0.062812 0.260492
H75   H     H_    0.856717 0.021441 0.174800 0.254574
O22   O     O_3   0.966732 0.212333 0.592749 -0.615314
C74   C     C_3   0.957752 0.201310 0.735854 0.047128
H76   H     H_    0.959940 0.103192 0.763994 0.164121
H77   H     H_    0.921007 0.230664 0.766472 0.159216
C75   C     C_3   0.995931 0.270903 0.817407 -0.383754
H78   H     H_    0.032060 0.234781 0.792428 0.227575
H79   H     H_    0.995369 0.369053 0.788643 0.221351
C76   C     C_3   0.986923 0.258217 0.971819 -0.877379
H80   H     H_    0.952513 0.302052 0.999921 0.259200
H81   H     H_    0.016549 0.303045 0.028845 0.269727
H82   H     H_    0.985207 0.160674 0.002494 0.249535
O23   O     O_3   0.018701 0.222164 0.372345 -0.595668
C77   C     C_3   0.035694 0.101740 0.390200 0.103586
H83   H     H_    0.004488 0.043159 0.419647 0.163375
H84   H     H_    0.062017 0.090519 0.475411 0.126101
C78   C     C_3   0.055481 0.055484 0.253572 -0.392465
H85   H     H_    0.026112 0.054217 0.176778 0.222756
H86   H     H_    0.084303 0.117385 0.214170 0.228232
C79   C     C_3   0.075359 0.927255 0.268480 -0.884541
H87   H     H_    0.105033 0.925806 0.344431 0.268051
H88   H     H_    0.089611 0.897188 0.167849 0.263066
H89   H     H_    0.046437 0.862917 0.301823 0.258620
O24   O     O_3   0.352981 0.602460 0.723612 -0.619739
C80   C     C_3   0.342869 0.728539 0.731270 0.011679
H90   H     H_    0.350510 0.757828 0.837852 0.167791
H91   H     H_    0.304340 0.749895 0.713251 0.169800
C81   C     C_3   0.375080 0.803178 0.632448 -0.324625
H92   H     H_    0.412963 0.797336 0.667083 0.234627
H93   H     H_    0.372864 0.765887 0.527095 0.231547
C82   C     C_3   0.360016 0.936445 0.626500 -0.815709
H94   H     H_    0.324153 0.944448 0.577661 0.266023
H95   H     H_    0.386440 0.990321 0.564544 0.284738
H96   H     H_    0.358193 0.975066 0.731185 0.233875

loop_
_geom_bond_atom_site_label_1
_geom_bond_atom_site_label_2
_ccdc_geom_bond_type
C44   H1    S    
C10   C27   A    
Cu2   N4    S    
C79   H88   S    
C40   O18   S    
C48   H9    S    
O21   C71   S    
C63   H47   S    
C68   H63   S    
C72   H71   S    
O15   C53   S    
C36   O15   S    
C50   C51   S    
C67   H56   S    
C21   C26   A    
C34   O11   A    
C58   H35   S    
N4    H60   S    
C82   H94   S    
C2    C46   A    
C28   C29   A    
C81   H93   S    
C52   H21   S    
C77   C78   S    
C36   C37   D    
C67   H57   S    
C1    O1    A    
C50   H16   S    
C66   C67   S    
Cu1   O8    S    
C5    C6    A    
C49   H12   S    
C9    C22   A    
C82   H96   S    
C79   H89   S    
C42   O12   S    
C15   C16   A    
C53   C54   S    
C56   H31   S    
C55   H29   S    
C77   H84   S    
C18   C19   A    
C38   O16   S    
O17   C59   S    
C41   N4    D    
C14   O22   S    
C2    H2    S    
C69   C70   S    
C4    C28   A    
C8    C45   A    
C52   H20   S    
C50   H15   S    
C69   H65   S    
N3    O19   S    
C57   H33   S    
C73   H74   S    
C16   C17   A    
C74   H77   S    
C81   C82   S    
C53   H24   S    
C80   C81   S    
O16   C56   S    
O24   C80   S    
C7    C43   A    
C33   H14   S    
C43   O3    S    
C73   H75   S    
C8    C12   S    
C47   H7    S    
C19   N2    A    
C82   H95   S    
C79   H87   S    
C80   H90   S    
C21   C22   A    
C27   C30   A    
C71   H70   S    
C72   H72   S    
C47   C48   S    
C34   O10   A    
C70   H67   S    
C75   H79   S    
Cu2   O5    S    
C59   H39   S    
C38   C39   D    
C23   O8    A    
C3    C44   A    
C68   H62   S    
C7    C31   A    
C81   H92   S    
C78   H85   S    
C58   H37   S    
Cu1   Cu2   S    
C23   O9    A    
C67   H58   S    
O19   C65   S    
C66   H55   S    
C10   C14   A    
C65   C66   S    
C49   H11   S    
C20   N2    A    
C32   H6    S    
C4    C7    A    
C25   C26   A    
C23   C37   S    
C77   H83   S    
C64   H51   S    
C69   H64   S    
C62   H46   S    
C76   H80   S    
C78   H86   S    
C46   H4    S    
C63   C64   S    
C76   H81   S    
C12   O7    A    
Cu2   O7    S    
C54   H25   S    
C31   H5    S    
C16   C20   A    
C74   C75   S    
C53   H23   S    
C17   C18   A    
C57   H34   S    
C24   C25   A    
C59   H38   S    
C55   H28   S    
C48   H10   S    
C80   H91   S    
O20   C68   S    
C71   C72   S    
Cu1   N3    S    
C47   H8    S    
O22   C74   S    
C6    C30   A    
C11   C32   A    
C40   N3    D    
C51   H18   S    
C71   H69   S    
C72   C73   S    
C31   C35   A    
O14   C50   S    
C62   C63   S    
C18   C33   A    
C60   H41   S    
C26   N2    S    
C21   H3    S    
C70   H68   S    
C73   H73   S    
C5    C42   A    
C25   O14   S    
O18   C62   S    
C22   O20   S    
C59   C60   S    
C20   O2    S    
C40   C41   S    
C54   H26   S    
C75   H78   S    
C44   C45   A    
C66   H54   S    
C10   C13   A    
Cu1   O6    S    
C58   H36   S    
C3    N1    S    
C75   C76   S    
C9    C24   A    
C1    O5    A    
C41   H59   S    
C39   O17   S    
C29   C35   A    
C56   C57   S    
C13   C17   A    
C76   H82   S    
C19   O4    S    
C32   C33   A    
C35   H22   S    
C60   C61   S    
C65   H53   S    
C2    C3    A    
C45   O24   S    
C78   C79   S    
C37   H30   S    
C70   H66   S    
C65   H52   S    
C30   O23   S    
C12   O6    A    
C11   C13   A    
C49   H13   S    
C52   H19   S    
C61   H42   S    
C61   H44   S    
C4    C5    A    
C36   C38   S    
C56   H32   S    
C9    C34   S    
C62   H45   S    
C57   C58   S    
C55   H27   S    
C43   N1    A    
C48   C49   S    
C8    C46   A    
C6    H61   S    
Cu2   O9    S    
C1    C39   S    
O23   C77   S    
C54   C55   S    
O13   C47   S    
C11   C29   A    
C51   H17   S    
C74   H76   S    
C51   C52   S    
C64   H50   S    
C27   C28   A    
C61   H43   S    
C63   H48   S    
C14   C15   A    
C15   O21   S    
Cu2   O11   S    
C60   H40   S    
Cu1   O10   S    
C64   H49   S    
C24   O13   S    
C42   N1    A    
Cu1   O1    S    
C68   C69   S    
