data_mof_unit_1201.cif
_audit_creation_date              2012-12-10T18:52:11-0500
_audit_creation_method            fapswitch 2.2
_symmetry_space_group_name_H-M    P1
_symmetry_Int_Tables_number       1
_space_group_crystal_system       triclinic
_cell_length_a                    15.726075
_cell_length_b                    10.704841
_cell_length_c                    9.844919
_cell_angle_alpha                 90.119682
_cell_angle_beta                  90.108882
_cell_angle_gamma                 90.177162
_cell_volume                      1657.32964131

loop_
_atom_site_label
_atom_site_type_symbol
_atom_type_description
_atom_site_fract_x
_atom_site_fract_y
_atom_site_fract_z
_atom_type_partial_charge
C1    C     C_R   0.499948 0.259909 0.499871 0.863675
C2    C     C_R   0.500195 0.740094 0.500155 0.861594
C3    C     C_R   0.522745 0.935878 0.381580 -0.195998
C4    C     C_R   0.477920 0.064144 0.618707 -0.195889
C5    C     C_R   0.500436 0.872534 0.500275 -0.008987
C6    C     C_R   0.500083 0.127479 0.499925 -0.005393
C7    C     C_R   0.551350 0.579803 0.072463 -0.316309
C8    C     C_R   0.448212 0.420746 0.927426 -0.319325
C9    C     C_R   0.553092 0.578221 0.927752 0.589358
C10   C     C_R   0.449245 0.418118 0.072614 0.603309
C11   C     C_R   0.337852 0.500034 0.499870 0.901522
C12   C     C_R   0.662137 0.500084 0.500170 0.901986
C13   C     C_3   0.972319 0.421737 0.598951 -0.325668
C14   C     C_3   0.027605 0.579753 0.402192 -0.318123
C15   C     C_3   0.027818 0.387101 0.475819 0.650860
C16   C     C_3   0.972098 0.614385 0.525329 0.644054
C17   C     C_1   0.248940 0.501005 0.499738 -0.164532
C18   C     C_1   0.751027 0.499674 0.500546 -0.190315
C19   C     C_3   0.028202 0.539463 0.624160 -0.322843
C20   C     C_3   0.971739 0.462022 0.376988 -0.317297
C21   C     C_3   0.082804 0.502602 0.500534 0.052254
C22   C     C_3   0.917135 0.498877 0.500593 0.053460
C23   C     C_1   0.173658 0.501914 0.499998 0.017522
C24   C     C_1   0.826299 0.499240 0.500738 0.003571
C25   C     C_R   0.522696 0.063852 0.381497 -0.201779
C26   C     C_R   0.478208 0.936165 0.618925 -0.171230
H1    H     H_    0.947647 0.356818 0.677438 0.158373
H2    H     H_    0.052249 0.644707 0.323717 0.160164
H3    H     H_    0.946629 0.429197 0.277637 0.158820
H4    H     H_    0.053307 0.572288 0.723513 0.161430
H5    H     H_    0.541001 0.112643 0.289743 0.155628
H6    H     H_    0.460332 0.887383 0.710949 0.166032
H7    H     H_    0.540841 0.886875 0.289681 0.157346
H8    H     H_    0.459814 0.113148 0.710615 0.150328
H9    H     H_    0.590527 0.645268 0.128486 0.172195
H10   H     H_    0.405763 0.360545 0.870633 0.172724
N1    N     N_R   0.499980 0.499970 0.857200 -0.134919
N2    N     N_R   0.500020 0.500030 0.142800 -0.136746
O1    O     O_R   0.499990 0.316750 0.614620 -0.636484
O2    O     O_R   0.500010 0.683250 0.385380 -0.635319
O3    O     O_R   0.500000 0.316780 0.385290 -0.588069
O4    O     O_R   0.500000 0.683220 0.614710 -0.578203
O5    O     O_R   0.376780 0.499970 0.614640 -0.624073
O6    O     O_R   0.623220 0.500030 0.385360 -0.623896
O7    O     O_R   0.376780 0.500000 0.385310 -0.561359
O8    O     O_R   0.623220 0.500000 0.614690 -0.583705
Zn1   Zn    Zn3+2 0.500000 0.499980 0.653120 0.986606
Zn2   Zn    Zn3+2 0.500000 0.500020 0.346880 0.992725
O9    O     O_3   0.064648 0.269488 0.449798 -0.597465
C27   C     C_3   0.999741 0.179801 0.433217 -0.322053
H11   H     H_    0.957408 0.203246 0.346368 0.161630
H12   H     H_    0.962095 0.168616 0.527936 0.155612
H13   H     H_    0.029532 0.088368 0.410415 0.191539
O10   O     O_3   0.935203 0.731954 0.551343 -0.604476
C28   C     C_3   0.000067 0.821657 0.568217 -0.330196
H14   H     H_    0.037906 0.832824 0.473690 0.158563
H15   H     H_    0.042222 0.798242 0.655294 0.163264
H16   H     H_    0.970220 0.913089 0.590837 0.191628
O11   O     O_3   0.603238 0.661339 0.855963 -0.580871
C29   C     C_3   0.689795 0.640026 0.885698 -0.289297
H17   H     H_    0.728905 0.689564 0.809004 0.207980
H18   H     H_    0.706507 0.539052 0.879515 0.154729
H19   H     H_    0.707060 0.678757 0.986846 0.146092
O12   O     O_3   0.395379 0.341087 0.146342 -0.563298
C30   C     C_3   0.397587 0.217166 0.097097 -0.324786
H20   H     H_    0.374599 0.154131 0.178543 0.205915
H21   H     H_    0.463111 0.186579 0.070046 0.136186
H22   H     H_    0.353862 0.205813 0.009208 0.160232

loop_
_geom_bond_atom_site_label_1
_geom_bond_atom_site_label_2
_ccdc_geom_bond_type
C25   H5    S    
C1    O3    A    
C4    C26   A    
C28   H14   S    
C26   H6    S    
C14   C16   S    
C14   C20   S    
N1    Zn1   S    
C1    C6    S    
N2    Zn2   S    
C15   C21   S    
C10   N2    A    
C30   H22   S    
C10   O12   S    
O12   C30   S    
C3    C5    A    
C22   C24   S    
C28   H15   S    
C27   H11   S    
O11   C29   S    
C12   O6    A    
C3    H7    S    
C15   O9    S    
C11   O5    A    
C6    C25   A    
C19   H4    S    
C17   C23   T    
C7    H9    S    
C20   H3    S    
C2    O4    A    
C29   H19   S    
C18   C24   T    
C14   C21   S    
C9    N1    A    
C19   C21   S    
O3    Zn2   S    
C20   C22   S    
C13   C22   S    
C30   H20   S    
C16   O10   S    
O4    Zn1   S    
C13   C15   S    
C21   C23   S    
C16   C19   S    
C15   C20   S    
C4    H8    S    
C11   O7    A    
C2    C5    S    
C30   H21   S    
C8    N1    A    
C1    O1    A    
C4    C6    A    
C5    C26   A    
C27   H13   S    
C2    O2    A    
C3    C25   A    
C29   H18   S    
O9    C27   S    
C8    H10   S    
C28   H16   S    
C12   C18   S    
C27   H12   S    
C7    C9    A    
C13   C19   S    
O10   C28   S    
C13   H1    S    
C16   C22   S    
O7    Zn2   S    
C14   H2    S    
O8    Zn1   S    
O1    Zn1   S    
O5    Zn1   S    
O2    Zn2   S    
C7    N2    A    
C8    C10   A    
C11   C17   S    
O6    Zn2   S    
C29   H17   S    
C9    O11   S    
C12   O8    A    
