data_mof_unit_3248.cif
_audit_creation_date              2012-12-11T15:14:44-0500
_audit_creation_method            fapswitch 2.2
_symmetry_space_group_name_H-M    P1
_symmetry_Int_Tables_number       1
_space_group_crystal_system       triclinic
_cell_length_a                    22.19744
_cell_length_b                    7.263815
_cell_length_c                    19.325016
_cell_angle_alpha                 89.99734
_cell_angle_beta                  99.035862
_cell_angle_gamma                 90.001303
_cell_volume                      3077.26086303

loop_
_atom_site_label
_atom_site_type_symbol
_atom_type_description
_atom_site_fract_x
_atom_site_fract_y
_atom_site_fract_z
_atom_type_partial_charge
O1    O     O_R   0.448470 0.506130 0.415700 -0.532612
O2    O     O_R   0.551530 0.006130 0.584300 -0.532623
O3    O     O_R   0.436320 0.174490 0.555800 -0.536014
O4    O     O_R   0.563680 0.674490 0.444200 -0.535993
C1    C     C_R   0.422386 0.343572 0.576513 0.705940
C2    C     C_R   0.577613 0.843580 0.423488 0.705954
O5    O     O_R   0.441350 0.176340 0.414480 -0.532605
O6    O     O_R   0.558650 0.676340 0.585520 -0.532588
O7    O     O_R   0.556600 0.007100 0.441970 -0.527911
O8    O     O_R   0.443400 0.507100 0.558030 -0.527874
C3    C     C_R   0.427003 0.345097 0.389301 0.793159
C4    C     C_R   0.573000 0.845094 0.610696 0.793149
O9    O     O_3   0.537810 0.339550 0.509190 -0.380650
O10   O     O_3   0.462190 0.839550 0.490810 -0.380640
V1    V     V_3+5 0.492990 0.064280 0.498300 1.488721
V2    V     V_3+5 0.507010 0.564280 0.501700 1.488786
C5    C     C_R   0.873517 0.899631 0.694126 0.560238
C6    C     C_R   0.126481 0.399396 0.305866 0.560207
C7    C     C_R   0.886935 0.936772 0.820437 -0.148079
C8    C     C_R   0.113065 0.436739 0.179562 -0.148072
C9    C     C_R   0.590327 0.843231 0.739968 0.534793
C10   C     C_R   0.409685 0.343437 0.260028 0.534793
C11   C     C_R   0.627364 0.854903 0.804904 0.618362
C12   C     C_R   0.372650 0.355182 0.195092 0.618359
C13   C     C_R   0.690186 0.878844 0.809611 -0.349427
C14   C     C_R   0.309824 0.379026 0.190385 -0.349436
C15   C     C_R   0.718252 0.892609 0.748864 0.041108
C16   C     C_R   0.281751 0.392607 0.251132 0.041108
C17   C     C_R   0.680009 0.879270 0.682358 -0.059698
C18   C     C_R   0.319992 0.379177 0.317638 -0.059704
C19   C     C_R   0.783071 0.912566 0.752373 0.055940
C20   C     C_R   0.216929 0.412489 0.247624 0.055943
C21   C     C_R   0.808894 0.907640 0.689210 -0.073345
C22   C     C_R   0.191104 0.407416 0.310785 -0.073345
C23   C     C_R   0.769710 0.908883 0.623085 0.122042
C24   C     C_R   0.230286 0.408533 0.376912 0.122023
C25   C     C_R   0.706370 0.890829 0.621303 -0.126952
C26   C     C_R   0.293627 0.390545 0.378693 -0.126940
C27   C     C_R   0.823268 0.935913 0.816977 -0.245070
C28   C     C_R   0.176732 0.435908 0.183023 -0.245065
C29   C     C_R   0.912113 0.910130 0.758878 0.039548
C30   C     C_R   0.087886 0.409999 0.241116 0.039543
C31   C     C_R   0.615600 0.855001 0.678171 -0.298833
C32   C     C_R   0.384405 0.355022 0.321824 -0.298833
H1    H     H_    0.806600 0.952763 0.866024 0.124290
H2    H     H_    0.193399 0.452830 0.133979 0.124283
H3    H     H_    0.715588 0.882134 0.861844 0.167802
H4    H     H_    0.284426 0.382398 0.138152 0.167797
H5    H     H_    0.676721 0.883329 0.571508 0.107983
H6    H     H_    0.323274 0.382950 0.428486 0.107985
C33   C     C_3   0.772125 0.827891 0.307230 -0.197298
C34   C     C_3   0.227897 0.327735 0.692840 -0.197098
C35   C     C_3   0.789081 0.016163 0.276782 -0.168587
C36   C     C_3   0.210934 0.516064 0.723233 -0.168444
H7    H     H_    0.824306 0.113327 0.302332 0.128581
H8    H     H_    0.175695 0.613165 0.697668 0.128668
H9    H     H_    0.793002 0.767647 0.358167 0.135340
H10   H     H_    0.207014 0.267367 0.641931 0.135310
C37   C     C_1   0.874040 0.945443 0.119761 -0.186316
C38   C     C_1   0.125975 0.445472 0.880256 -0.186235
C39   C     C_1   0.621020 0.849306 0.374658 -0.146733
C40   C     C_1   0.378983 0.349277 0.625351 -0.146613
C41   C     C_3   0.771745 0.737440 0.234382 0.191588
C42   C     C_3   0.228306 0.237435 0.765723 0.191692
C43   C     C_3   0.788239 0.924019 0.204402 0.104081
C44   C     C_3   0.211802 0.424067 0.795647 0.103799
C45   C     C_3   0.702976 0.783254 0.213846 0.090792
C46   C     C_3   0.297071 0.283331 0.786225 0.090883
C47   C     C_3   0.703507 0.872968 0.286199 0.079101
C48   C     C_3   0.296514 0.372902 0.713836 0.078882
C49   C     C_3   0.719772 0.970115 0.183483 -0.227718
C50   C     C_3   0.280268 0.470237 0.816536 -0.227713
C51   C     C_3   0.720110 0.058091 0.256427 0.157066
C52   C     C_3   0.279904 0.558076 0.743559 0.157035
C53   C     C_1   0.835141 0.940467 0.157615 -0.033448
C54   C     C_1   0.164887 0.440518 0.842417 -0.033605
C55   C     C_1   0.657663 0.855842 0.334145 -0.040413
C56   C     C_1   0.342347 0.355787 0.665874 -0.040441
H11   H     H_    0.698549 0.031498 0.132851 0.142033
H12   H     H_    0.301492 0.531721 0.867145 0.142041
O11   O     O_R   0.056650 0.288730 0.942060 -0.533223
O12   O     O_R   0.943350 0.788730 0.057940 -0.533242
O13   O     O_R   0.058660 0.616870 0.085540 -0.538759
O14   O     O_R   0.941340 0.116870 0.914460 -0.538757
C57   C     C_R   0.073014 0.448164 0.110667 0.717290
C58   C     C_R   0.926986 0.948169 0.889332 0.717312
O15   O     O_R   0.063700 0.618520 0.944220 -0.532645
O16   O     O_R   0.936300 0.118520 0.055780 -0.532633
O17   O     O_R   0.948460 0.787610 0.915680 -0.530097
O18   O     O_R   0.051540 0.287610 0.084320 -0.530106
C59   C     C_R   0.079111 0.450711 0.925003 0.707629
C60   C     C_R   0.920891 0.950703 0.074999 0.707597
O19   O     O_3   0.962230 0.453430 0.990860 -0.374054
O20   O     O_3   0.037770 0.953430 0.009140 -0.374061
V3    V     V_3+5 0.007010 0.728750 0.001700 1.416957
V4    V     V_3+5 0.992990 0.228750 0.998300 1.416986
C61   C     C_3   0.980257 0.885709 0.760748 -0.305957
C62   C     C_3   0.996415 0.681522 0.757987 -0.678907
H13   H     H_    0.046459 0.664659 0.761387 0.193961
H14   H     H_    0.981605 0.606625 0.802503 0.216993
H15   H     H_    0.973930 0.619064 0.708110 0.258917
H16   H     H_    0.994967 0.958440 0.715651 0.221441
H17   H     H_    0.007048 0.947853 0.808350 0.152299
C63   C     C_3   0.019740 0.385628 0.239249 -0.305959
C64   C     C_3   0.003559 0.181455 0.242001 -0.678797
H18   H     H_    0.953520 0.164650 0.238691 0.194002
H19   H     H_    0.018292 0.106622 0.197428 0.216958
H20   H     H_    0.026099 0.118885 0.291833 0.258918
H21   H     H_    0.005046 0.458356 0.284352 0.221419
H22   H     H_    0.992951 0.447810 0.191652 0.152304
C65   C     C_3   0.684847 0.233566 0.265876 -0.355729
C66   C     C_3   0.701911 0.316601 0.338859 -0.737157
H23   H     H_    0.686874 0.224733 0.378638 0.239613
H24   H     H_    0.751886 0.338533 0.351844 0.219108
H25   H     H_    0.678691 0.451294 0.340930 0.227055
H26   H     H_    0.694053 0.331275 0.225534 0.173682
H27   H     H_    0.635142 0.203806 0.255989 0.222036
C67   C     C_3   0.315172 0.733519 0.734039 -0.355520
C68   C     C_3   0.297923 0.816782 0.661120 -0.737280
H28   H     H_    0.312731 0.724854 0.621219 0.239508
H29   H     H_    0.247951 0.839086 0.648379 0.219198
H30   H     H_    0.321227 0.951315 0.658982 0.227089
H31   H     H_    0.306135 0.831153 0.774479 0.173633
H32   H     H_    0.364871 0.703638 0.743723 0.222034
C69   C     C_3   0.648394 0.674731 0.176365 -0.353798
C70   C     C_3   0.661564 0.587523 0.108492 -0.688789
H33   H     H_    0.674978 0.694777 0.072877 0.241201
H34   H     H_    0.698555 0.484156 0.119169 0.200283
H35   H     H_    0.619893 0.517247 0.081796 0.251413
H36   H     H_    0.633961 0.569760 0.211805 0.198090
H37   H     H_    0.609367 0.771106 0.163499 0.215153
C71   C     C_3   0.351652 0.174822 0.823713 -0.353732
C72   C     C_3   0.338462 0.087518 0.891564 -0.688893
H38   H     H_    0.325011 0.194711 0.927176 0.241207
H39   H     H_    0.301490 0.984094 0.880851 0.200303
H40   H     H_    0.380135 0.017285 0.918278 0.251426
H41   H     H_    0.366097 0.069894 0.788267 0.198058
H42   H     H_    0.390671 0.271214 0.836603 0.215155
C73   C     C_3   0.805456 0.558464 0.223213 -0.375528
C74   C     C_3   0.871952 0.562707 0.258228 -0.758993
H43   H     H_    0.898161 0.668525 0.234256 0.232536
H44   H     H_    0.875395 0.589916 0.315232 0.233339
H45   H     H_    0.892488 0.426300 0.251489 0.219976
H46   H     H_    0.783865 0.443159 0.246596 0.192912
H47   H     H_    0.803291 0.532556 0.166271 0.188596
C75   C     C_3   0.194609 0.058540 0.777061 -0.375483
C76   C     C_3   0.128177 0.062359 0.741819 -0.759084
H48   H     H_    0.101922 0.168983 0.765304 0.232632
H49   H     H_    0.124901 0.088138 0.684736 0.233215
H50   H     H_    0.107577 0.926270 0.748965 0.220018
H51   H     H_    0.216311 0.942942 0.753998 0.192888
H52   H     H_    0.196628 0.033317 0.834029 0.188631
C77   C     C_3   0.795537 0.934987 0.554840 -0.255776
C78   C     C_3   0.749614 0.976549 0.489330 -0.856013
H53   H     H_    0.722041 0.851887 0.473701 0.227946
H54   H     H_    0.719829 0.093974 0.498587 0.236670
H55   H     H_    0.774368 0.013962 0.445696 0.239742
H56   H     H_    0.827536 0.053715 0.561490 0.228052
H57   H     H_    0.820651 0.808628 0.543954 0.236745
C79   C     C_3   0.204456 0.434440 0.445163 -0.255729
C80   C     C_3   0.250377 0.475832 0.510691 -0.856058
H58   H     H_    0.277939 0.351124 0.526287 0.227963
H59   H     H_    0.280173 0.593269 0.501473 0.236607
H60   H     H_    0.225619 0.513162 0.554329 0.239728
H61   H     H_    0.172463 0.553181 0.438554 0.228065
H62   H     H_    0.179337 0.308045 0.456002 0.236757
F1    F     F_    0.900586 0.871214 0.636737 -0.725132
F2    F     F_    0.099409 0.370886 0.363248 -0.725145
F3    F     F_    0.529242 0.820545 0.737242 -0.655645
F4    F     F_    0.470774 0.320866 0.262754 -0.655627
F5    F     F_    0.602195 0.841813 0.864310 -0.630357
F6    F     F_    0.397825 0.342273 0.135686 -0.630357

loop_
_geom_bond_atom_site_label_1
_geom_bond_atom_site_label_2
_ccdc_geom_bond_type
O16   V4    S    
O17   V3    S    
C70   H33   S    
O15   C59   A    
C48   C56   S    
C47   C55   S    
C65   C66   S    
O1    C3    A    
C74   H45   S    
C7    C58   S    
O2    C4    A    
C2    O7    A    
C41   C43   S    
C61   C62   S    
O5    C3    A    
C64   H19   S    
C36   C44   S    
C42   C46   S    
C2    C39   S    
C23   C25   A    
C12   C14   A    
C4    C31   S    
C45   C69   S    
C63   H21   S    
C8    C28   A    
C38   C59   S    
C45   C49   S    
C15   C17   A    
C71   H42   S    
O12   C60   A    
C18   C26   A    
O14   V4    S    
C77   H56   S    
C46   C71   S    
C67   C68   S    
C66   H23   S    
C76   H48   S    
C36   C52   S    
C69   H36   S    
C44   C50   S    
O16   C60   A    
C39   C55   T    
C71   C72   S    
O15   V3    S    
C48   C52   S    
C72   H40   S    
C70   H34   S    
C34   H10   S    
C19   C21   A    
C47   C51   S    
C65   H26   S    
C33   H9    S    
C79   H62   S    
C35   C43   S    
C13   H3    S    
C78   H54   S    
C61   H16   S    
C14   H4    S    
C27   H1    S    
C42   C75   S    
C35   H7    S    
O13   V3    S    
O6    V2    S    
C9    C31   A    
C17   C31   A    
C18   C32   A    
C5    C21   A    
C66   H24   S    
C63   C64   S    
C80   H59   S    
C34   C36   S    
C51   C65   S    
C36   H8    S    
C68   H29   S    
C52   C67   S    
C64   H20   S    
C41   C45   S    
C15   C19   A    
C16   C20   A    
C76   H50   S    
C33   C41   S    
C74   H43   S    
C78   H55   S    
C50   C52   S    
C5    F1    S    
C49   C51   S    
O11   V4    S    
C6    F2    S    
C70   H35   S    
C71   H41   S    
C43   C49   S    
C38   C54   T    
C49   H11   S    
C46   C50   S    
C45   C47   S    
C42   C44   S    
O4    V2    S    
C28   H2    S    
C61   H17   S    
C25   H5    S    
C73   H46   S    
C69   H37   S    
O6    C4    A    
C44   C54   S    
C8    C57   S    
C3    C32   S    
O1    V2    S    
C67   H32   S    
C79   H61   S    
O2    V1    S    
C6    C22   A    
C78   H53   S    
C10   F4    S    
C7    C27   A    
C75   H52   S    
O4    C2    A    
O13   C57   A    
O19   V4    S    
C62   H14   S    
C9    C11   A    
C34   C42   S    
C69   C70   S    
C10   C12   A    
C57   O18   A    
C24   C26   A    
C37   C53   T    
C80   H60   S    
O3    V1    S    
C77   H57   S    
C73   C74   S    
C75   C76   S    
C68   H30   S    
C73   H47   S    
C10   C32   A    
O12   V3    S    
C76   H49   S    
C41   C73   S    
C40   C56   T    
C35   C51   S    
C23   C77   S    
C74   H44   S    
O3    C1    A    
C58   O17   A    
C30   C63   S    
C8    C30   A    
C68   H28   S    
O18   V4    S    
C26   H6    S    
C13   C15   A    
C62   H15   S    
C64   H18   S    
C14   C16   A    
C43   C53   S    
C65   H27   S    
C79   C80   S    
C6    C30   A    
O7    V1    S    
C16   C18   A    
C50   H12   S    
C80   H58   S    
C63   H22   S    
C72   H38   S    
C9    F3    S    
O5    V1    S    
C21   C23   A    
C22   C24   A    
C19   C27   A    
C1    C40   S    
C29   C61   S    
C67   H31   S    
C20   C28   A    
O20   V3    S    
C12   F6    S    
C5    C29   A    
C34   C48   S    
C24   C79   S    
C75   H51   S    
O11   C59   A    
C1    O8    A    
C11   C13   A    
C11   F5    S    
C46   C48   S    
C62   H13   S    
O9    V2    S    
C17   C25   A    
C72   H39   S    
O10   V1    S    
O14   C58   A    
O8    V2    S    
C37   C60   S    
C33   C47   S    
C33   C35   S    
C77   C78   S    
C66   H25   S    
C7    C29   A    
C20   C22   A    
