data_mof_unit_4155.cif
_audit_creation_date              2012-10-26T19:40:41-0400
_audit_creation_method            fapswitch 2.2
_symmetry_space_group_name_H-M    P1
_symmetry_Int_Tables_number       1
_space_group_crystal_system       triclinic
_cell_length_a                    9.744272
_cell_length_b                    10.928369
_cell_length_c                    13.416378
_cell_angle_alpha                 90.204264
_cell_angle_beta                  72.334352
_cell_angle_gamma                 89.228036
_cell_volume                      1361.15699889

loop_
_atom_site_label
_atom_site_type_symbol
_atom_type_description
_atom_site_fract_x
_atom_site_fract_y
_atom_site_fract_z
_atom_type_partial_charge
C1    C     C_R   0.500170 0.734501 0.497694 0.542160
C2    C     C_R   0.374870 0.509960 0.815365 -0.004816
C3    C     C_2   0.624151 0.063723 0.476945 0.077953
C4    C     C_R   0.422380 0.505576 0.700116 0.526635
C5    C     C_2   0.502030 0.132592 0.503403 -0.067796
C6    C     C_2   0.616731 0.930244 0.490206 -0.147450
C7    C     C_2   0.501609 0.866286 0.487621 -0.147808
C8    C     C_2   0.054727 0.587323 0.539747 0.129990
C9    C     C_2   0.914237 0.596547 0.515264 -0.023646
C10   C     C_R   0.501507 0.265269 0.499130 0.573476
C11   C     C_R   0.577386 0.501052 0.300076 0.569268
C12   C     C_R   0.433789 0.517427 0.979979 0.032318
C13   C     C_R   0.759946 0.634722 0.037822 -0.146916
C14   C     C_R   0.620424 0.520249 0.186979 0.043415
C15   C     C_R   0.237240 0.467256 0.869391 -0.137023
C16   C     C_R   0.194240 0.458017 0.977632 -0.145785
C17   C     C_R   0.291401 0.481863 0.032532 -0.127660
C18   C     C_3   0.071825 0.679272 0.619630 -0.225352
C19   C     C_3   0.081903 0.811200 0.578869 -0.309927
C20   C     C_3   0.119698 0.899564 0.654619 -0.451513
C21   C     C_R   0.468051 0.547545 0.872651 0.027984
C22   C     C_R   0.539587 0.533268 0.032280 0.041255
C23   C     C_R   0.661510 0.605892 0.984208 0.032756
C24   C     C_R   0.683468 0.650153 0.883340 -0.142335
C25   C     C_R   0.590267 0.619218 0.827327 -0.121211
C26   C     C_R   0.530621 0.478728 0.129925 0.088228
C27   C     C_R   0.736495 0.595897 0.140042 -0.168388
Cu1   Cu    Cu3+1 0.361370 0.499980 0.499980 0.961742
Cu2   Cu    Cu3+1 0.638630 0.500020 0.500020 0.935036
H1    H     H_    0.806930 0.627445 0.183310 0.128721
H2    H     H_    0.250935 0.478195 0.116496 0.113329
H3    H     H_    0.085883 0.429861 0.019110 0.125401
H4    H     H_    0.611161 0.658377 0.750407 0.141106
H5    H     H_    0.035185 0.898478 0.731837 0.152115
H6    H     H_    0.225078 0.873824 0.665101 0.154129
H7    H     H_    0.126900 0.993846 0.623041 0.146584
H8    H     H_    0.164843 0.816604 0.501204 0.181483
H9    H     H_    0.977248 0.841439 0.569625 0.135486
H10   H     H_    0.977073 0.672833 0.690632 0.099735
H11   H     H_    0.166096 0.657786 0.645392 0.205497
H12   H     H_    0.396941 0.091699 0.533643 0.062886
H13   H     H_    0.098998 0.486205 0.365364 0.221684
H14   H     H_    0.095595 0.351564 0.436934 0.220170
H15   H     H_    0.443766 0.316574 0.100323 0.234736
H16   H     H_    0.351949 0.387080 0.216546 0.255307
H17   H     H_    0.845196 0.052894 0.428930 0.211541
H18   H     H_    0.773356 0.151576 0.362945 0.235158
H19   H     H_    0.711346 0.883339 0.499017 0.134740
H20   H     H_    0.408935 0.909419 0.472938 0.097032
H21   H     H_    0.863231 0.685362 0.517251 0.133545
H22   H     H_    0.883312 0.418496 0.519411 0.230322
H23   H     H_    0.774194 0.707989 0.847088 0.100101
H24   H     H_    0.851787 0.691732 0.002183 0.113924
H25   H     H_    0.162473 0.440858 0.827955 0.134155
N1    N     N_2   0.152660 0.501340 0.501130 -0.144361
N2    N     N_2   0.846520 0.501370 0.501160 -0.365098
N3    N     N_3   0.144783 0.435381 0.413508 -0.500469
N4    N     N_3   0.453194 0.367488 0.163950 -0.637498
N5    N     N_3   0.763615 0.118939 0.437926 -0.593109
O1    O     O_R   0.382960 0.678040 0.499980 -0.512025
O2    O     O_R   0.617100 0.678080 0.500020 -0.511875
O3    O     O_R   0.325800 0.499940 0.650950 -0.525198
O4    O     O_R   0.559930 0.499980 0.650990 -0.493965
O5    O     O_R   0.382900 0.321920 0.499980 -0.482766
O6    O     O_R   0.617040 0.321960 0.500020 -0.456797
O7    O     O_R   0.440070 0.500020 0.349010 -0.457747
O8    O     O_R   0.674200 0.500060 0.349050 -0.502569

loop_
_geom_bond_atom_site_label_1
_geom_bond_atom_site_label_2
_ccdc_geom_bond_type
C12   C17   A    
C24   H23   S    
H13   N3    S    
C2    C4    S    
C23   C24   A    
Cu2   O4    S    
C6    C7    D    
C19   H9    S    
C12   C22   A    
C14   C27   A    
C16   H3    S    
C3    N5    S    
Cu1   O7    S    
C19   C20   S    
C11   O7    A    
C18   H10   S    
C3    C6    S    
C20   H5    S    
C10   O5    A    
C2    C21   A    
Cu1   O1    S    
C5    C10   S    
C9    N2    D    
C1    C7    S    
C14   C26   A    
C27   H1    S    
C2    C15   A    
C26   N4    S    
C4    O4    A    
C13   C23   A    
C16   C17   A    
C6    H19   S    
Cu2   O6    S    
Cu1   O5    S    
C8    N1    D    
Cu1   Cu2   S    
Cu2   N2    S    
Cu1   N1    S    
C11   O8    A    
H22   N2    S    
C13   H24   S    
N1    N3    S    
C17   H2    S    
C11   C14   S    
Cu2   O2    S    
H16   N4    S    
C10   O6    A    
C25   H4    S    
H14   N3    S    
H18   N5    S    
C15   C16   A    
C20   H7    S    
C15   H25   S    
C4    O3    A    
C18   H11   S    
C24   C25   A    
C7    H20   S    
H17   N5    S    
C18   C19   S    
C22   C26   A    
C1    O1    A    
H15   N4    S    
C21   C25   A    
C22   C23   A    
C13   C27   A    
C5    H12   S    
C19   H8    S    
Cu2   O8    S    
C20   H6    S    
C12   C21   A    
C8    C18   S    
C9    H21   S    
C1    O2    A    
C8    C9    S    
C3    C5    D    
Cu1   O3    S    
