data_mof_unit_1578.cif
_audit_creation_date              2012-12-10T17:44:49-0500
_audit_creation_method            fapswitch 2.2
_symmetry_space_group_name_H-M    P1
_symmetry_Int_Tables_number       1
_space_group_crystal_system       triclinic
_cell_length_a                    15.0234
_cell_length_b                    13.688865
_cell_length_c                    19.341743
_cell_angle_alpha                 90.043178
_cell_angle_beta                  90.10787
_cell_angle_gamma                 90.299188
_cell_volume                      3977.63072916

loop_
_atom_site_label
_atom_site_type_symbol
_atom_type_description
_atom_site_fract_x
_atom_site_fract_y
_atom_site_fract_z
_atom_type_partial_charge
C1    C     C_R   0.328805 0.499799 0.500758 0.861460
C2    C     C_R   0.671223 0.500123 0.499208 0.862934
C3    C     C_R   0.812741 0.449614 0.549682 -0.181049
C4    C     C_R   0.187049 0.547929 0.449662 -0.198074
C5    C     C_R   0.905405 0.451050 0.551804 -0.024805
C6    C     C_R   0.094514 0.544442 0.447022 -0.031471
C7    C     C_R   0.953290 0.496990 0.498082 -0.096056
C8    C     C_R   0.046809 0.498015 0.500739 -0.095666
C9    C     C_R   0.907434 0.540949 0.441545 -0.171547
C10   C     C_R   0.092765 0.453850 0.557219 -0.173862
C11   C     C_R   0.949956 0.409230 0.608005 0.568165
C12   C     C_R   0.049888 0.584041 0.390033 0.572099
C13   C     C_R   0.042951 0.413978 0.613262 0.310101
C14   C     C_R   0.957096 0.577773 0.384594 0.314892
C15   C     C_R   0.445016 0.792678 0.543608 0.168901
C16   C     C_R   0.557060 0.207391 0.458074 0.168823
C17   C     C_R   0.555167 0.793247 0.456528 0.173008
C18   C     C_R   0.442898 0.206796 0.541939 0.167023
C19   C     C_R   0.555609 0.896782 0.453777 -0.130639
C20   C     C_R   0.439379 0.103288 0.542233 -0.131066
C21   C     C_R   0.444745 0.896149 0.546482 -0.117392
C22   C     C_R   0.560886 0.103996 0.458039 -0.119144
C23   C     C_R   0.500156 0.948313 0.500124 0.000994
C24   C     C_R   0.500154 0.051766 0.500142 -0.003048
C25   C     C_R   0.611171 0.949551 0.407359 0.270665
C26   C     C_R   0.378340 0.050628 0.584287 0.275150
C27   C     C_R   0.389456 0.948207 0.593129 0.245680
C28   C     C_R   0.622250 0.052136 0.416230 0.257519
C29   C     C_R   0.500130 0.499938 0.367125 0.951649
C30   C     C_R   0.499619 0.499994 0.632846 0.951161
C31   C     C_R   0.478394 0.584739 0.253837 0.531208
C32   C     C_R   0.473204 0.414967 0.745371 0.535512
C33   C     C_R   0.522384 0.584427 0.746260 0.521029
C34   C     C_R   0.522739 0.414193 0.254276 0.518608
C35   C     C_R   0.480607 0.585832 0.181397 0.290143
C36   C     C_R   0.474222 0.413109 0.817816 0.291084
C37   C     C_R   0.519407 0.585621 0.818678 0.295310
C38   C     C_R   0.520927 0.412384 0.181830 0.289977
C39   C     C_R   0.500590 0.498859 0.145348 -0.361117
C40   C     C_R   0.496739 0.499088 0.854530 -0.363652
C41   C     C_R   0.500466 0.499660 0.290679 -0.407748
C42   C     C_R   0.498443 0.499819 0.709236 -0.416468
C43   C     C_R   0.497636 0.498319 0.930194 0.619597
C44   C     C_R   0.499591 0.498245 0.069689 0.617538
C45   C     C_R   0.813777 0.546943 0.445003 0.663224
C46   C     C_R   0.186699 0.450893 0.554494 0.679595
C47   C     C_R   0.767650 0.499572 0.498000 -0.189566
C48   C     C_R   0.232413 0.499621 0.501890 -0.202756
Cu1   Cu    Cu3+1 0.500000 0.597420 0.500000 1.068220
Cu2   Cu    Cu3+1 0.500000 0.402580 0.500000 1.062092
H1    H     H_    0.774791 0.413570 0.590034 0.219926
H2    H     H_    0.224763 0.584243 0.409293 0.229864
H3    H     H_    0.400169 0.749675 0.574845 0.188644
H4    H     H_    0.597943 0.250397 0.423738 0.217833
H5    H     H_    0.600013 0.750620 0.425346 0.210028
H6    H     H_    0.401655 0.249427 0.576014 0.234399
N1    N     N_R   0.576997 0.498281 0.033800 -0.118579
N2    N     N_R   0.420222 0.498099 0.966086 -0.116653
N3    N     N_R   0.576024 0.498366 0.965040 -0.125826
N4    N     N_R   0.421194 0.498111 0.034851 -0.124462
N5    N     N_R   0.500000 0.743810 0.500000 -0.232770
N6    N     N_R   0.500000 0.256190 0.500000 -0.245032
O1    O     O_R   0.370260 0.582280 0.500020 -0.600181
O2    O     O_R   0.629740 0.417720 0.499980 -0.591160
O3    O     O_R   0.629740 0.582280 0.499980 -0.561338
O4    O     O_R   0.370260 0.417720 0.500020 -0.551825
O5    O     O_R   0.499990 0.582300 0.400140 -0.529292
O6    O     O_R   0.500010 0.417700 0.599860 -0.543503
O7    O     O_R   0.500010 0.582300 0.599860 -0.539798
O8    O     O_R   0.499990 0.417700 0.400140 -0.549741
F1    F     F_    0.452954 0.666118 0.288596 -0.553271
F2    F     F_    0.446569 0.334317 0.709862 -0.558958
F3    F     F_    0.550421 0.665183 0.711696 -0.558439
F4    F     F_    0.547135 0.332811 0.289493 -0.571495
S1    S     S_3+6 0.459899 0.696593 0.136113 0.130488
O9    O     O_2   0.371807 0.688835 0.099550 -0.205959
O10   O     O_2   0.458126 0.782775 0.184311 -0.138231
O11   O     O_3   0.540664 0.714220 0.077260 -0.491761
H7    H     H_    0.533542 0.782674 0.061758 0.388713
S2    S     S_3+6 0.448759 0.302575 0.862165 0.125593
O12   O     O_2   0.359925 0.312500 0.896969 -0.196734
O13   O     O_2   0.445557 0.216903 0.813509 -0.170197
O14   O     O_3   0.527174 0.282103 0.922537 -0.497008
H8    H     H_    0.517264 0.213772 0.937566 0.388840
S3    S     S_3+6 0.542591 0.696017 0.864105 0.126268
O15   O     O_2   0.631150 0.687414 0.899758 -0.213282
O16   O     O_2   0.544977 0.782295 0.816080 -0.152380
O17   O     O_3   0.463101 0.714197 0.923798 -0.485235
H9    H     H_    0.471742 0.782481 0.939480 0.389841
S4    S     S_3+6 0.542582 0.301336 0.137111 0.128386
O18   O     O_2   0.630486 0.309764 0.100610 -0.198262
O19   O     O_2   0.545380 0.215723 0.185710 -0.144415
O20   O     O_3   0.461840 0.282036 0.078245 -0.497318
H10   H     H_    0.469668 0.213514 0.063062 0.389620
F5    F     F_    0.766201 0.601113 0.399429 -0.593120
F6    F     F_    0.235503 0.399280 0.600699 -0.570665
F7    F     F_    0.901670 0.365053 0.658553 -0.582174
F8    F     F_    0.097747 0.627044 0.338709 -0.572735
S5    S     S_3+6 0.092395 0.377189 0.692966 0.168654
O21   O     O_2   0.136893 0.280207 0.682999 -0.160937
O22   O     O_2   0.160283 0.451864 0.715480 -0.196984
O23   O     O_3   0.016230 0.366140 0.756175 -0.410823
H11   H     H_    0.050029 0.343119 0.797010 0.394487
S6    S     S_3+6 0.908106 0.606236 0.303134 0.166335
O24   O     O_2   0.836051 0.533378 0.286130 -0.201602
O25   O     O_2   0.869175 0.706931 0.306342 -0.151952
O26   O     O_3   0.984243 0.603166 0.239497 -0.409862
H12   H     H_    0.951509 0.622632 0.197231 0.393013
S7    S     S_3+6 0.658059 0.888721 0.334427 0.107359
O27   O     O_2   0.741600 0.838060 0.357043 -0.215791
O28   O     O_2   0.593449 0.814041 0.306821 -0.202740
O29   O     O_3   0.681512 0.966942 0.269915 -0.394813
H13   H     H_    0.712754 0.927222 0.234773 0.404922
S8    S     S_3+6 0.282572 0.111120 0.617794 0.113087
O30   O     O_2   0.308144 0.164523 0.682855 -0.153497
O31   O     O_2   0.248818 0.183423 0.565583 -0.247690
O32   O     O_3   0.199324 0.032159 0.634700 -0.416039
H14   H     H_    0.152880 0.071752 0.657564 0.407868
S9    S     S_3+6 0.344278 0.887234 0.666978 0.107040
O33   O     O_2   0.259652 0.835760 0.646504 -0.194509
O34   O     O_2   0.408928 0.812707 0.693676 -0.226946
O35   O     O_3   0.322806 0.965407 0.731871 -0.388638
H15   H     H_    0.381844 0.990990 0.746174 0.378506
S10   S     S_3+6 0.718356 0.113898 0.383124 0.106520
O36   O     O_2   0.694070 0.164551 0.316874 -0.113753
O37   O     O_2   0.750718 0.189232 0.434081 -0.301457
O38   O     O_3   0.802820 0.036663 0.368135 -0.399589
H16   H     H_    0.820095 0.012047 0.414379 0.364955

loop_
_geom_bond_atom_site_label_1
_geom_bond_atom_site_label_2
_ccdc_geom_bond_type
C9    C45   A    
O20   H10   S    
Cu1   O1    S    
Cu2   O2    S    
C19   C23   A    
C9    C14   A    
C2    O3    A    
S6    O25   D    
S8    O30   D    
C7    C8    A    
C32   F2    S    
S3    O15   D    
C25   C28   A    
C35   S1    S    
C26   C27   A    
Cu1   O3    S    
C4    H2    S    
C33   C42   A    
C15   H3    S    
C37   S3    S    
C5    C11   A    
C37   C40   A    
S7    O28   D    
C6    C12   A    
C38   C39   A    
N1    N3    A    
N2    N4    A    
C18   C20   A    
C45   C47   A    
S6    O24   D    
C43   N2    A    
C17   N5    A    
C29   O5    A    
C14   S6    S    
C40   C43   S    
S5    O21   D    
C10   C46   A    
C23   C24   A    
Cu1   O5    S    
C17   H5    S    
C12   F8    S    
C25   S7    S    
S3    O16   D    
C21   C27   A    
Cu1   O7    S    
C34   C41   A    
C16   N6    A    
S2    O14   S    
C1    O1    A    
O29   H13   S    
C2    O2    A    
S9    O34   D    
C46   C48   A    
S10   O36   D    
Cu1   N5    S    
C20   C24   A    
C36   C40   A    
S2    O13   D    
C36   S2    S    
S7    O29   S    
C5    C7    A    
C3    H1    S    
O11   H7    S    
C18   N6    A    
C6    C8    A    
C33   C37   A    
C13   S5    S    
C35   C39   A    
S1    O9    D    
C26   S8    S    
S1    O10   D    
S4    O19   D    
O14   H8    S    
C44   N1    A    
O26   H12   S    
C1    O4    A    
C15   N5    A    
C18   H6    S    
Cu2   O4    S    
C34   F4    S    
S10   O38   S    
C33   F3    S    
S5    O22   D    
C12   C14   A    
C27   S9    S    
C21   C23   A    
Cu2   N6    S    
C22   C24   A    
C4    C6    A    
C17   C19   A    
O38   H16   S    
C45   F5    S    
C32   C36   A    
C30   O7    A    
S4    O20   S    
S10   O37   D    
C29   O8    A    
C4    C48   A    
S3    O17   S    
C7    C9    A    
C16   C22   A    
C31   C41   A    
C29   C41   S    
C34   C38   A    
S2    O12   D    
C3    C5    A    
C10   C13   A    
S8    O31   D    
S9    O33   D    
C28   S10   S    
C1    C48   S    
C39   C44   S    
C43   N3    A    
C2    C47   S    
C38   S4    S    
C11   F7    S    
Cu2   O8    S    
O32   H14   S    
C11   C13   A    
S4    O18   D    
C20   C26   A    
C44   N4    A    
C3    C47   A    
S9    O35   S    
C31   C35   A    
O23   H11   S    
C19   C25   A    
S1    O11   S    
C16   H4    S    
S8    O32   S    
C15   C21   A    
S5    O23   S    
C46   F6    S    
O17   H9    S    
C8    C10   A    
Cu1   Cu2   S    
C32   C42   A    
C30   C42   S    
C22   C28   A    
O35   H15   S    
S7    O27   D    
Cu2   O6    S    
S6    O26   S    
C30   O6    A    
C31   F1    S    
