data_mof_unit_4338.cif
_audit_creation_date              2012-10-26T18:34:22-0400
_audit_creation_method            fapswitch 2.2
_symmetry_space_group_name_H-M    P1
_symmetry_Int_Tables_number       1
_space_group_crystal_system       triclinic
_cell_length_a                    10.856192
_cell_length_b                    9.597462
_cell_length_c                    9.067089
_cell_angle_alpha                 90.0
_cell_angle_beta                  93.08219
_cell_angle_gamma                 89.999848
_cell_volume                      943.350543901

loop_
_atom_site_label
_atom_site_type_symbol
_atom_type_description
_atom_site_fract_x
_atom_site_fract_y
_atom_site_fract_z
_atom_type_partial_charge
Br1   Br    Br    0.315864 0.168620 0.258914 -0.424984
Br2   Br    Br    0.684137 0.831380 0.741085 -0.424984
Br3   Br    Br    0.684137 0.168619 0.741085 -0.424983
Br4   Br    Br    0.315863 0.831381 0.258915 -0.424984
C1    C     C_R   0.263045 0.500000 0.514579 0.553998
C2    C     C_R   0.062399 0.627413 0.523860 0.007354
C3    C     C_R   0.871883 0.499999 0.470760 0.022061
C4    C     C_R   0.128117 0.500000 0.529239 0.022061
C5    C     C_R   0.424500 0.074091 0.401507 0.249998
C6    C     C_R   0.575500 0.925909 0.598493 0.249998
C7    C     C_R   0.575500 0.074091 0.598493 0.249999
C8    C     C_R   0.424500 0.925909 0.401507 0.249999
C9    C     C_3   0.118571 0.238406 0.585227 -0.351485
C10   C     C_3   0.881429 0.761594 0.414771 -0.351485
C11   C     C_3   0.881432 0.238405 0.414777 -0.351486
C12   C     C_R   0.736955 0.500000 0.485420 0.553999
C13   C     C_3   0.118567 0.761595 0.585220 -0.351486
C14   C     C_R   0.499737 0.500000 0.220822 0.573380
C15   C     C_R   0.500263 0.500000 0.779178 0.573380
C16   C     C_1   0.499914 0.500000 0.065597 0.014553
C17   C     C_1   0.500085 0.500000 0.934403 0.014552
C18   C     C_R   0.062400 0.372587 0.523865 0.007353
C19   C     C_R   0.937600 0.627413 0.476134 0.007352
C20   C     C_R   0.937601 0.372586 0.476139 0.007355
Cu1   Cu    Cu3+1 0.500000 0.640660 0.500000 1.060513
Cu2   Cu    Cu3+1 0.500000 0.359340 0.500000 1.060514
H1    H     H_    0.193954 0.259243 0.669945 0.162961
H2    H     H_    0.193957 0.740762 0.669930 0.162964
H3    H     H_    0.152511 0.826895 0.495398 0.178003
H4    H     H_    0.048883 0.822380 0.643388 0.143128
H5    H     H_    0.048888 0.177614 0.643385 0.143125
H6    H     H_    0.152525 0.173112 0.495408 0.178007
H7    H     H_    0.806043 0.740757 0.330058 0.162963
H8    H     H_    0.847479 0.826891 0.504591 0.178005
H9    H     H_    0.951112 0.822383 0.356607 0.143126
H10   H     H_    0.806047 0.259239 0.330062 0.162961
H11   H     H_    0.951116 0.177617 0.356615 0.143126
H12   H     H_    0.847482 0.173107 0.504595 0.178004
N1    N     N_R   0.500000 0.852070 0.500000 -0.263161
N2    N     N_R   0.500000 0.147930 0.500000 -0.263161
O1    O     O_R   0.319640 0.618740 0.499990 -0.483356
O2    O     O_R   0.680360 0.381260 0.500010 -0.483355
O3    O     O_R   0.680360 0.618740 0.500010 -0.483356
O4    O     O_R   0.319640 0.381260 0.499990 -0.483356
O5    O     O_R   0.500000 0.618760 0.288390 -0.462294
O6    O     O_R   0.500000 0.381240 0.711610 -0.462293
O7    O     O_R   0.500000 0.618760 0.711610 -0.462293
O8    O     O_R   0.500000 0.381240 0.288390 -0.462293

loop_
_geom_bond_atom_site_label_1
_geom_bond_atom_site_label_2
_ccdc_geom_bond_type
C10   C19   S    
C10   H8    S    
C1    C4    S    
C4    C18   A    
C11   H12   S    
Cu1   O5    S    
Br4   C8    S    
C13   H3    S    
Cu1   O7    S    
C9    H6    S    
Cu2   O8    S    
Cu1   O3    S    
C10   H7    S    
C15   O6    A    
Cu2   O4    S    
C11   H11   S    
Cu1   N1    S    
C13   H4    S    
C12   O3    A    
Cu2   N2    S    
C8    N1    A    
C3    C19   A    
C2    C19   A    
C11   C20   S    
C15   C17   S    
C1    O4    A    
C9    C18   S    
C14   C16   S    
C7    N2    A    
C5    C8    A    
C18   C20   A    
Br3   C7    S    
C6    C7    A    
Cu2   O6    S    
C3    C20   A    
Br2   C6    S    
C14   O5    A    
C12   O2    A    
C11   H10   S    
Br1   C5    S    
C16   C17   T    
Cu2   O2    S    
C15   O7    A    
Cu1   O1    S    
C10   H9    S    
C2    C13   S    
C1    O1    A    
C3    C12   S    
C2    C4    A    
Cu1   Cu2   S    
C13   H2    S    
C9    H5    S    
C5    N2    A    
C9    H1    S    
C6    N1    A    
C14   O8    A    
