data_mof_unit_2836.cif
_audit_creation_date              2012-12-11T17:37:49-0500
_audit_creation_method            fapswitch 2.2
_symmetry_space_group_name_H-M    P1
_symmetry_Int_Tables_number       1
_space_group_crystal_system       triclinic
_cell_length_a                    12.938795
_cell_length_b                    12.971664
_cell_length_c                    15.315821
_cell_angle_alpha                 116.006376
_cell_angle_beta                  64.192651
_cell_angle_gamma                 96.644532
_cell_volume                      2070.87076823

loop_
_atom_site_label
_atom_site_type_symbol
_atom_type_description
_atom_site_fract_x
_atom_site_fract_y
_atom_site_fract_z
_atom_type_partial_charge
C1    C     C_R   0.000266 0.832822 0.054152 -0.117669
C2    C     C_R   0.299034 0.594251 0.791968 -0.162246
C3    C     C_R   0.258186 0.416121 0.049619 -0.159585
C4    C     C_R   0.679351 0.466116 0.219813 -0.144590
C5    C     C_R   0.048266 0.279209 0.684758 -0.123260
C6    C     C_R   0.360863 0.432977 0.977155 0.140852
C7    C     C_R   0.030969 0.170394 0.680199 0.041097
C8    C     C_R   0.295629 0.565323 0.695929 0.050563
C9    C     C_R   0.008014 0.151925 0.045677 0.039035
C10   C     C_R   0.437301 0.729225 0.186684 -0.123440
C11   C     C_R   0.325828 0.771389 0.268423 -0.127152
C12   C     C_R   0.673706 0.534925 0.321243 0.047316
C13   C     C_R   0.288381 0.889107 0.316222 0.125220
C14   C     C_R   0.365162 0.963635 0.281171 -0.174869
C15   C     C_R   0.476702 0.921080 0.199557 -0.097766
C16   C     C_R   0.753051 0.522896 0.895266 0.499156
C17   C     C_R   0.512777 0.804067 0.152474 -0.088067
C18   C     C_R   0.155744 0.031009 0.500066 -0.243276
C19   C     C_R   0.045552 0.068546 0.585673 0.072476
C20   C     C_R   0.948649 0.010489 0.579146 0.008726
C21   C     C_R   0.963224 0.917333 0.485183 -0.249148
C22   C     C_R   0.071734 0.881069 0.398577 0.066144
C23   C     C_R   0.660543 0.459017 0.926104 -0.011860
C24   C     C_R   0.170718 0.934526 0.404827 0.023719
C25   C     C_R   0.777558 0.998106 0.734312 -0.179918
C26   C     C_R   0.661040 0.026818 0.806751 -0.123966
C27   C     C_R   0.594500 0.103721 0.806026 -0.093027
C28   C     C_R   0.014737 0.696608 0.301862 -0.162586
C29   C     C_R   0.644710 0.152640 0.733447 -0.078198
C30   C     C_R   0.761950 0.126925 0.663192 -0.137539
C31   C     C_R   0.828986 0.049400 0.663214 0.131019
C32   C     C_R   0.857064 0.315830 0.366847 -0.114632
C33   C     C_R   0.752005 0.361095 0.386392 -0.109515
C34   C     C_R   0.071868 0.791507 0.302606 0.057097
C35   C     C_R   0.701255 0.469154 0.472678 0.111484
C36   C     C_R   0.756149 0.529808 0.539556 -0.209241
C37   C     C_R   0.860234 0.483417 0.520576 -0.084601
C38   C     C_R   0.910908 0.376695 0.433999 -0.121504
C39   C     C_R   0.497486 0.536896 0.586912 -0.240824
C40   C     C_R   0.677063 0.421173 0.990145 -0.209643
C41   C     C_R   0.389523 0.574436 0.606308 0.064119
C42   C     C_R   0.374304 0.603136 0.533722 0.017931
C43   C     C_R   0.470624 0.590290 0.439724 -0.244927
C44   C     C_R   0.577571 0.549277 0.419575 0.067557
C45   C     C_R   0.338530 0.515151 0.951574 -0.107128
C46   C     C_R   0.591748 0.520796 0.492840 0.018461
C47   C     C_R   0.222461 0.597448 0.472252 -0.176084
C48   C     C_R   0.118086 0.640042 0.488629 -0.124171
C49   C     C_R   0.051651 0.732559 0.585640 -0.093621
C50   C     C_R   0.089017 0.781921 0.667112 -0.090726
C51   C     C_R   0.193463 0.739311 0.651221 -0.128559
C52   C     C_R   0.095485 0.799239 0.209128 -0.130301
C53   C     C_R   0.261255 0.646622 0.553382 0.121584
C54   C     C_2   0.472787 0.393068 0.954328 -0.225198
C55   C     C_2   0.566587 0.427557 0.894391 -0.181212
C56   C     C_R   0.968053 0.179448 0.782662 -0.105073
C57   C     C_2   0.830773 0.956717 0.091239 -0.202513
C58   C     C_2   0.813930 0.036640 0.189255 -0.178916
C59   C     C_R   0.782906 0.558487 0.313369 -0.105035
C60   C     C_R   0.899501 0.748687 0.958606 -0.154598
C61   C     C_R   0.911622 0.852683 0.033590 0.117497
C62   C     C_3   0.692679 0.618479 0.824844 0.251787
C63   C     C_3   0.730317 0.726409 0.807089 -1.007514
C64   C     C_R   0.199958 0.507371 0.694748 -0.113612
C65   C     C_R   0.051899 0.255194 0.088727 -0.129249
C66   C     C_R   0.951207 0.171887 0.994929 -0.112560
H1    H     H_    0.029688 0.894420 0.111699 0.094144
H2    H     H_    0.465451 0.638662 0.150472 0.120759
H3    H     H_    0.269404 0.712435 0.295343 0.114534
H4    H     H_    0.609511 0.428678 0.198925 0.098158
H5    H     H_    0.338559 0.054514 0.316589 0.107159
H6    H     H_    0.535333 0.978940 0.172976 0.106872
H7    H     H_    0.229297 0.076008 0.508570 0.133962
H8    H     H_    0.887633 0.875544 0.477938 0.141044
H9    H     H_    0.827583 0.935950 0.733403 0.109228
H10   H     H_    0.621903 0.987980 0.862136 0.110404
H11   H     H_    0.503794 0.124387 0.860806 0.103829
H12   H     H_    0.936123 0.110575 0.805803 0.095055
H13   H     H_    0.592502 0.209424 0.730615 0.122444
H14   H     H_    0.799683 0.164455 0.606585 0.116106
H15   H     H_    0.992070 0.341326 0.418738 0.102562
H16   H     H_    0.897384 0.233896 0.299387 0.113015
H17   H     H_    0.711185 0.313092 0.333669 0.116453
H18   H     H_    0.719032 0.613892 0.604920 0.128425
H19   H     H_    0.507226 0.511615 0.642001 0.128777
H20   H     H_    0.462879 0.612665 0.382219 0.135220
H21   H     H_    0.272748 0.525633 0.396442 0.105089
H22   H     H_    0.088794 0.600680 0.426000 0.105466
H23   H     H_    0.167420 0.480823 0.634656 0.104345
H24   H     H_    0.971132 0.765545 0.597609 0.100026
H25   H     H_    0.037298 0.853498 0.742378 0.104514
H26   H     H_    0.989901 0.661660 0.359766 0.096588
H27   H     H_    0.222077 0.779433 0.714502 0.110545
H28   H     H_    0.473400 0.360518 0.008230 0.129857
H29   H     H_    0.564035 0.451181 0.836083 0.111349
H30   H     H_    0.777968 0.965692 0.055577 0.123438
H31   H     H_    0.860840 0.030485 0.230983 0.133047
H32   H     H_    0.634452 0.355291 0.014576 0.125849
H33   H     H_    0.147066 0.859990 0.181523 0.095339
H34   H     H_    0.088948 0.274520 0.144599 0.088012
H35   H     H_    0.808060 0.607615 0.377729 0.106844
H36   H     H_    0.833189 0.733264 0.932045 0.159862
H37   H     H_    0.398845 0.554173 0.902407 0.079652
H38   H     H_    0.616369 0.646079 0.904651 0.073510
H39   H     H_    0.665887 0.561333 0.760817 0.119810
H40   H     H_    0.817365 0.708897 0.739515 0.273592
H41   H     H_    0.668150 0.754862 0.788155 0.221668
H42   H     H_    0.730631 0.798557 0.880869 0.234222
H43   H     H_    0.902109 0.530396 0.572419 0.144796
H44   H     H_    0.895159 0.114395 0.964319 0.088717
H45   H     H_    0.356836 0.649487 0.821991 0.096461
H46   H     H_    0.247007 0.363025 0.090467 0.091986
H47   H     H_    0.088412 0.302682 0.618505 0.099266
H48   H     H_    0.599399 0.771594 0.089945 0.097078
N1    N     N_R   0.037320 0.720000 0.995830 -0.048138
N2    N     N_R   0.824900 0.517970 0.936430 -0.087282
N3    N     N_R   0.003190 0.648180 0.211390 -0.036944
N4    N     N_R   0.774330 0.457010 0.995830 -0.070493
N5    N     N_R   0.053760 0.709130 0.151980 -0.040857
N6    N     N_R   0.853840 0.498830 0.211390 -0.041530
N7    N     N_R   0.974250 0.667320 0.936430 -0.036230
N8    N     N_R   0.225670 0.542990 0.004170 -0.044063
N9    N     N_R   0.946240 0.290870 0.848020 -0.043129
N10   N     N_R   0.146160 0.501170 0.788610 -0.040123
N11   N     N_R   0.025750 0.332680 0.063570 -0.037323
N12   N     N_R   0.962680 0.280000 0.004170 -0.042426
N13   N     N_R   0.209230 0.553860 0.848010 -0.040050
N14   N     N_R   0.175100 0.482030 0.063570 -0.039973
N15   N     N_R   0.996810 0.351820 0.788610 -0.039730
N16   N     N_R   0.790770 0.446140 0.151990 -0.038411
Ni1   Ni    Ni4+2 0.130310 0.630310 0.000000 0.206958
Ni2   Ni    Ni4+2 0.869690 0.369690 0.000000 0.206974
Ni3   Ni    Ni4+2 0.985660 0.509480 0.863750 0.257190
Ni4   Ni    Ni4+2 0.014340 0.490520 0.136250 0.211922
O1    O     O_3   0.786031 0.559193 0.814524 -0.649136

loop_
_geom_bond_atom_site_label_1
_geom_bond_atom_site_label_2
_ccdc_geom_bond_type
N11   Ni4   S    
C25   C31   A    
C40   N4    A    
C59   N6    A    
N1    N7    A    
C6    C45   A    
N9    Ni2   S    
C27   C29   A    
C14   H5    S    
C35   C36   A    
C49   H24   S    
C3    C6    A    
C4    H4    S    
C39   C41   A    
C62   H39   S    
N1    Ni1   S    
C15   H6    S    
C26   C27   A    
C62   C63   S    
N10   Ni3   S    
C18   C24   A    
C7    C56   A    
C36   C37   A    
C37   C38   A    
C28   N3    A    
N3    N5    A    
C42   C53   S    
C40   H32   S    
C30   C31   A    
C10   C17   A    
C23   C40   A    
C56   H12   S    
C18   C19   A    
C41   C42   A    
C9    C66   A    
C45   H37   S    
C1    H1    S    
C12   C59   A    
C19   C20   A    
C57   H30   S    
C26   H10   S    
C48   H22   S    
C32   C38   A    
C4    C12   A    
C37   H43   S    
C47   C53   A    
C30   H14   S    
C2    N13   A    
C5    N15   A    
C28   C34   A    
C21   C22   A    
N9    N15   A    
C58   H31   S    
C64   H23   S    
C6    C54   S    
C60   H36   S    
N3    Ni4   S    
C16   N2    A    
C44   C46   A    
C17   H48   S    
C62   H38   S    
C22   C34   S    
C2    H45   S    
C59   H35   S    
C56   N9    A    
C8    C41   S    
C55   H29   S    
C5    C7    A    
C3    N14   A    
C4    N16   A    
N2    Ni3   S    
C25   C26   A    
C64   N10   A    
C21   H8    S    
C66   N12   A    
C13   C24   S    
C60   C61   A    
C25   H9    S    
C65   N11   A    
C62   O1    S    
N16   Ni2   S    
C43   C44   A    
C29   C30   A    
N14   Ni4   S    
N5    Ni1   S    
C47   C48   A    
C29   H13   S    
N12   Ni2   S    
C3    H46   S    
C9    C65   A    
C50   C51   A    
C28   H26   S    
C66   H44   S    
C63   H40   S    
C57   C61   S    
C33   H17   S    
C8    C64   A    
C39   C46   A    
N15   Ni3   S    
C48   C49   A    
C51   H27   S    
C18   H7    S    
C7    C19   S    
N10   N13   A    
C38   H15   S    
N11   N12   A    
C22   C24   A    
C42   C43   A    
C39   H19   S    
C63   H41   S    
N8    Ni1   S    
C16   O1    S    
C15   C17   A    
C54   C55   D    
C5    H47   S    
C43   H20   S    
C2    C8    A    
C65   H34   S    
C27   H11   S    
C1    C61   A    
C11   H3    S    
C23   C55   S    
C10   H2    S    
C45   N8    A    
C16   C23   A    
C32   H16   S    
C52   H33   S    
C34   C52   A    
N7    Ni3   S    
C32   C33   A    
C12   C44   S    
N6    N16   A    
C11   C13   A    
C57   C58   D    
C36   H18   S    
C33   C35   A    
N2    N4    A    
N6    Ni4   S    
N8    N14   A    
C60   N7    A    
N13   Ni1   S    
C54   H28   S    
N4    Ni2   S    
C10   C11   A    
C52   N5    A    
C50   H25   S    
C20   C21   A    
C49   C50   A    
C14   C15   A    
C1    N1    A    
C51   C53   A    
C63   H42   S    
C13   C14   A    
C35   C46   S    
C47   H21   S    
C20   C31   S    
