data_mof_unit_3048.cif
_audit_creation_date              2012-12-10T16:43:23-0500
_audit_creation_method            fapswitch 2.2
_symmetry_space_group_name_H-M    P1
_symmetry_Int_Tables_number       1
_space_group_crystal_system       triclinic
_cell_length_a                    10.765582
_cell_length_b                    8.691122
_cell_length_c                    7.451842
_cell_angle_alpha                 102.900561
_cell_angle_beta                  94.557409
_cell_angle_gamma                 92.632826
_cell_volume                      676.027599532

loop_
_atom_site_label
_atom_site_type_symbol
_atom_type_description
_atom_site_fract_x
_atom_site_fract_y
_atom_site_fract_z
_atom_type_partial_charge
C1    C     C_R   0.496054 0.199714 0.453281 0.908011
C2    C     C_R   0.078278 0.635843 0.644545 0.098336
C3    C     C_R   0.129894 0.523528 0.506715 -0.101609
C4    C     C_R   0.053236 0.424997 0.362651 -0.157279
C5    C     C_R   0.925531 0.426644 0.359846 -0.197865
C6    C     C_R   0.871760 0.528044 0.500330 -0.100401
C7    C     C_2   0.494212 0.031844 0.427007 -0.347915
C8    C     C_2   0.504879 0.968080 0.573068 -0.366176
C9    C     C_R   0.263023 0.508252 0.502972 0.813855
C10   C     C_R   0.503576 0.800268 0.546739 0.859555
C11   C     C_R   0.737515 0.510882 0.500059 0.787578
C12   C     C_R   0.153571 0.748270 0.781761 -0.267255
C13   C     C_R   0.100538 0.855016 0.919379 0.066189
C14   C     C_R   0.970647 0.857956 0.913778 -0.115946
C15   C     C_R   0.894854 0.753987 0.774161 -0.223535
C16   C     C_R   0.946896 0.638451 0.640904 0.107148
Cu1   Cu    Cu3+1 0.513920 0.517380 0.684380 0.943519
Cu2   Cu    Cu3+1 0.486080 0.482620 0.315620 0.959252
H1    H     H_    0.092473 0.342961 0.253464 0.202417
H2    H     H_    0.597871 0.622352 0.051619 0.224888
H3    H     H_    0.253960 0.756595 0.783404 0.153647
H4    H     H_    0.868385 0.344015 0.250623 0.164625
H5    H     H_    0.484371 0.960353 0.286222 0.166649
H6    H     H_    0.402104 0.377693 0.948371 0.229312
N1    N     N_2   0.465100 0.456430 0.038520 -0.217201
N2    N     N_2   0.534900 0.543570 0.961480 -0.221844
O1    O     O_R   0.509050 0.286130 0.619770 -0.579820
O2    O     O_R   0.485540 0.256780 0.308360 -0.586150
O3    O     O_R   0.331410 0.514680 0.655740 -0.595515
O4    O     O_R   0.307900 0.485330 0.344330 -0.573863
O5    O     O_R   0.514460 0.743220 0.691640 -0.608815
O6    O     O_R   0.490950 0.713870 0.380230 -0.582716
O7    O     O_R   0.692100 0.514670 0.655670 -0.582304
O8    O     O_R   0.668590 0.485320 0.344260 -0.588232
C17   C     C_2   0.182698 0.963190 0.067315 0.340852
H7    H     H_    0.283152 0.968168 0.060881 0.066441
O9    O     O_2   0.139676 0.045969 0.199525 -0.574924
H8    H     H_    0.927446 0.942811 0.015582 0.166050
H9    H     H_    0.795615 0.768004 0.771058 0.157755
H10   H     H_    0.514749 0.039525 0.713893 0.173283

loop_
_geom_bond_atom_site_label_1
_geom_bond_atom_site_label_2
_ccdc_geom_bond_type
C1    O2    A    
Cu2   O4    S    
C14   H8    S    
C2    C16   A    
C17   H7    S    
C9    O3    A    
C2    C12   A    
C2    C3    A    
C7    C8    D    
C13   C14   A    
C12   C13   A    
Cu2   O8    S    
C15   H9    S    
Cu2   N1    S    
Cu1   O7    S    
C9    O4    A    
C3    C9    S    
Cu1   N2    S    
C12   H3    S    
C8    C10   S    
C17   O9    D    
C13   C17   S    
C5    C6    A    
Cu1   O5    S    
C7    H5    S    
Cu2   O6    S    
C6    C16   A    
C3    C4    A    
Cu1   O1    S    
C10   O6    A    
Cu1   O3    S    
C11   O7    A    
Cu2   O2    S    
H6    N1    S    
Cu1   Cu2   S    
C6    C11   S    
C1    O1    A    
C14   C15   A    
C8    H10   S    
N1    N2    D    
C1    C7    S    
C4    H1    S    
C10   O5    A    
C11   O8    A    
C5    H4    S    
C15   C16   A    
C4    C5    A    
H2    N2    S    
