data_mof_unit_1068.cif
_audit_creation_date              2012-12-11T16:22:26-0500
_audit_creation_method            fapswitch 2.2
_symmetry_space_group_name_H-M    P1
_symmetry_Int_Tables_number       1
_space_group_crystal_system       triclinic
_cell_length_a                    16.984317
_cell_length_b                    16.831351
_cell_length_c                    19.451545
_cell_angle_alpha                 117.846652
_cell_angle_beta                  62.362445
_cell_angle_gamma                 100.603222
_cell_volume                      4351.89654643

loop_
_atom_site_label
_atom_site_type_symbol
_atom_type_description
_atom_site_fract_x
_atom_site_fract_y
_atom_site_fract_z
_atom_type_partial_charge
C1    C     C_R   0.019502 0.759919 0.033316 -0.093674
C2    C     C_R   0.765462 0.447105 0.243675 0.080785
C3    C     C_R   0.721447 0.528022 0.001759 -0.095702
C4    C     C_R   0.056898 0.734764 0.242190 0.045606
C5    C     C_R   0.246645 0.572678 0.016847 -0.115981
C6    C     C_R   0.964468 0.248100 0.826604 -0.055439
C7    C     C_R   0.172546 0.468092 0.750302 -0.137879
C8    C     C_R   0.041877 0.310923 0.062506 -0.145030
C9    C     C_R   0.960334 0.242721 0.990595 -0.078302
C10   C     C_R   0.250899 0.531860 0.827500 -0.055374
C11   C     C_R   0.180340 0.493127 0.091119 -0.097365
C12   C     C_R   0.763369 0.423934 0.166100 -0.136308
C13   C     C_R   0.027442 0.326663 0.750218 -0.130474
C14   C     C_R   0.251211 0.547563 0.073607 0.096755
C15   C     C_R   0.014071 0.240401 0.743540 0.073100
C16   C     C_R   0.258123 0.480795 0.744457 0.080986
C17   C     C_R   0.009670 0.227712 0.024329 0.093447
C18   C     C_R   0.078376 0.851988 0.449962 -0.161193
C19   C     C_R   0.055341 0.788973 0.385250 -0.155979
C20   C     C_R   0.093724 0.789747 0.304293 0.142185
C21   C     C_R   0.163691 0.846881 0.285755 -0.164728
C22   C     C_R   0.186354 0.910465 0.350915 -0.182676
C23   C     C_R   0.804330 0.542096 0.944195 0.537058
C24   C     C_R   0.138956 0.917373 0.434842 0.144819
C25   C     C_R   0.106050 0.079859 0.509251 -0.151305
C26   C     C_R   0.068564 0.156107 0.586035 -0.260837
C27   C     C_R   0.054788 0.158581 0.663775 0.051224
C28   C     C_R   0.084767 0.085432 0.663422 0.544165
C29   C     C_R   0.121715 0.007922 0.585220 -0.362028
C30   C     C_R   0.129590 0.004088 0.508804 0.090051
C31   C     C_R   0.591821 0.316050 0.352369 0.497026
C32   C     C_R   0.654601 0.340116 0.288139 -0.229885
C33   C     C_R   0.708435 0.413411 0.307754 0.050473
C34   C     C_R   0.008838 0.658946 0.241096 -0.119495
C35   C     C_R   0.705469 0.456577 0.390376 -0.173782
C36   C     C_R   0.642664 0.433859 0.455018 -0.194754
C37   C     C_R   0.581496 0.368206 0.438126 -0.035100
C38   C     C_R   0.491528 0.380977 0.586797 -0.353526
C39   C     C_R   0.413244 0.413168 0.664149 0.537485
C40   C     C_R   0.339754 0.441997 0.664817 0.052977
C41   C     C_R   0.343142 0.432035 0.587879 -0.270471
C42   C     C_R   0.420314 0.399433 0.511915 -0.133378
C43   C     C_R   0.495656 0.376342 0.511465 0.087478
C44   C     C_R   0.634750 0.570293 0.035578 0.150658
C45   C     C_R   0.737946 0.473143 0.029700 -0.203693
C46   C     C_R   0.315757 0.578027 0.110931 0.041251
C47   C     C_R   0.400215 0.541688 0.165052 -0.395930
C48   C     C_R   0.319006 0.543448 0.163486 0.543274
C49   C     C_R   0.385388 0.630020 0.080357 -0.358009
C50   C     C_R   0.466606 0.624898 0.078939 0.202990
C51   C     C_R   0.475282 0.574149 0.115701 0.139516
C52   C     C_R   0.559264 0.548555 0.095150 -0.210047
C53   C     C_R   0.625705 0.633023 0.010705 -0.200227
C54   C     C_R   0.541627 0.659915 0.031952 -0.216064
C55   C     C_R   0.814267 0.196161 0.220236 0.099970
C56   C     C_R   0.077587 0.736956 0.165223 -0.149318
C57   C     C_R   0.913505 0.865304 0.050861 -0.080526
C58   C     C_R   0.775359 0.953201 0.123146 -0.395114
C59   C     C_R   0.821177 0.869313 0.076216 0.477036
C60   C     C_R   0.959225 0.945973 0.072956 0.359158
C61   C     C_R   0.912088 0.030603 0.121149 0.015409
C62   C     C_R   0.819375 0.033133 0.146592 0.103890
C63   C     C_R   0.771297 0.115981 0.195874 -0.188170
C64   C     C_R   0.905420 0.194752 0.194940 -0.167193
C65   C     C_R   0.954583 0.113038 0.144545 -0.174843
C66   C     C_R   0.841806 0.494175 0.241876 -0.131542
C67   C     C_R   0.943002 0.693308 0.955097 -0.081032
C68   C     C_R   0.960093 0.776933 0.010764 0.155231
H1    H     H_    0.045618 0.808446 0.077425 0.134550
H2    H     H_    0.937364 0.193981 0.844660 0.128469
H3    H     H_    0.155627 0.437467 0.696827 0.097720
H4    H     H_    0.077972 0.326124 0.100341 0.103444
H5    H     H_    0.918312 0.194506 0.964496 0.095541
H6    H     H_    0.304068 0.556602 0.847111 0.136501
H7    H     H_    0.155070 0.469340 0.139863 0.165196
H8    H     H_    0.056180 0.344861 0.697621 0.097146
H9    H     H_    0.040630 0.856301 0.514398 0.122065
H10   H     H_    0.002150 0.745050 0.401435 0.111016
H11   H     H_    0.197356 0.846571 0.222896 0.111865
H12   H     H_    0.720265 0.376750 0.140648 0.089432
H13   H     H_    0.234199 0.959982 0.338112 0.123977
H14   H     H_    0.109619 0.077702 0.451324 0.129030
H15   H     H_    0.046769 0.211816 0.584866 0.140673
H16   H     H_    0.140246 0.949132 0.584434 0.132217
H17   H     H_    0.659261 0.302390 0.223532 0.140653
H18   H     H_    0.746864 0.512572 0.407172 0.123912
H19   H     H_    0.635569 0.474708 0.520353 0.143806
H20   H     H_    0.550262 0.363163 0.585905 0.133516
H21   H     H_    0.287417 0.453492 0.587033 0.142511
H22   H     H_    0.423103 0.398397 0.454707 0.147633
H23   H     H_    0.564132 0.505776 0.120683 0.119203
H24   H     H_    0.682603 0.659293 0.972560 0.174669
H25   H     H_    0.406388 0.508063 0.198293 0.140274
H26   H     H_    0.535668 0.702439 0.006413 0.132451
H27   H     H_    0.381620 0.664432 0.046922 0.142385
H28   H     H_    0.700358 0.118888 0.216066 0.152302
H29   H     H_    0.994201 0.627916 0.283203 0.092902
H30   H     H_    0.938249 0.257484 0.213612 0.120543
H31   H     H_    0.704371 0.956017 0.143163 0.153811
H32   H     H_    0.025576 0.115983 0.124324 0.134524
H33   H     H_    0.691037 0.444581 0.071890 0.126387
H34   H     H_    0.124960 0.779274 0.138759 0.090851
H35   H     H_    0.871440 0.510213 0.285245 0.089384
H36   H     H_    0.902628 0.683166 0.922769 0.201690
H37   H     H_    0.283501 0.623912 0.997439 0.085019
N1    N     N_R   0.034930 0.670790 0.995440 -0.062624
N2    N     N_R   0.954880 0.335850 0.881080 -0.056922
N3    N     N_R   0.115060 0.502430 0.834090 -0.039944
N4    N     N_R   0.014160 0.371890 0.051540 -0.042587
N5    N     N_R   0.965070 0.329210 0.004560 -0.046602
N6    N     N_R   0.164150 0.545120 0.881070 -0.055771
N7    N     N_R   0.133000 0.490740 0.051540 -0.050688
N8    N     N_R   0.996220 0.383590 0.834100 -0.040393
N9    N     N_R   0.835850 0.454880 0.118930 -0.037983
N10   N     N_R   0.867000 0.509260 0.948460 -0.071181
N11   N     N_R   0.003780 0.616410 0.165900 -0.039787
N12   N     N_R   0.825670 0.461520 0.995440 -0.067215
N13   N     N_R   0.045120 0.664150 0.118920 -0.041123
N14   N     N_R   0.884940 0.497570 0.165910 -0.040518
N15   N     N_R   0.985840 0.628110 0.948460 -0.060379
N16   N     N_R   0.174330 0.538480 0.004560 -0.039827
Ni1   Ni    Ni4+2 0.103690 0.603690 0.000000 0.214890
Ni2   Ni    Ni4+2 0.896310 0.396310 0.000000 0.210223
Ni3   Ni    Ni4+2 0.991110 0.505800 0.892250 0.258613
Ni4   Ni    Ni4+2 0.008890 0.494200 0.107750 0.213725
O1    O     O_3   0.077553 0.090873 0.739229 -0.779625
H38   H     H_    0.101989 0.034171 0.727113 0.318192
O2    O     O_3   0.538258 0.245716 0.330190 -0.776386
H39   H     H_    0.505276 0.229116 0.378737 0.317831
O3    O     O_3   0.821535 0.558568 0.875689 -0.798025
H40   H     H_    0.768900 0.541429 0.863286 0.307313
O4    O     O_3   0.407365 0.416927 0.738864 -0.778106
H41   H     H_    0.464431 0.394031 0.726710 0.316019
O5    O     O_3   0.244800 0.508523 0.209275 -0.800446
H42   H     H_    0.259435 0.487952 0.242350 0.316849
O6    O     O_3   0.775896 0.790639 0.058577 -0.775205
H43   H     H_    0.711857 0.805356 0.082429 0.320475
O7    O     O_3   0.049770 0.939655 0.045352 -0.758476
H44   H     H_    0.064469 0.984851 0.092717 0.306788

loop_
_geom_bond_atom_site_label_1
_geom_bond_atom_site_label_2
_ccdc_geom_bond_type
C58   C62   A    
C41   H21   S    
C26   H15   S    
C41   C42   A    
C3    C23   A    
C19   C20   A    
N2    Ni2   S    
C2    C12   A    
O2    H39   S    
C1    C68   A    
C14   C46   S    
C5    H37   S    
C53   C54   A    
C46   C49   A    
C26   C27   A    
C62   C63   A    
C18   C24   A    
C48   O5    S    
C28   C29   A    
C18   H9    S    
C7    H3    S    
C38   C39   A    
C11   C14   A    
C57   C59   A    
C39   O4    S    
C34   N11   A    
C5    N16   A    
C59   O6    S    
C9    N5    A    
C34   H29   S    
C18   C19   A    
N13   Ni1   S    
N2    N8    A    
C33   C35   A    
C6    C15   A    
C44   C53   A    
C35   C36   A    
O4    H41   S    
N10   N12   A    
C55   C63   A    
C6    N2    A    
C5    C14   A    
C67   N15   A    
N9    N14   A    
C1    N1    A    
C44   C52   A    
C64   H30   S    
C21   C22   A    
C4    C56   A    
N6    Ni1   S    
N1    Ni1   S    
C9    H5    S    
C31   O2    S    
N3    Ni3   S    
C28   O1    S    
C67   H36   S    
C12   N9    A    
C36   H19   S    
C46   C48   A    
C3    C44   S    
C8    H4    S    
C67   C68   A    
C22   H13   S    
C29   H16   S    
C39   C40   A    
C57   C60   A    
C47   C51   A    
C25   C26   A    
C63   H28   S    
C3    C45   A    
C1    H1    S    
C51   C52   A    
C23   O3    S    
C38   H20   S    
C60   C61   A    
C42   H22   S    
C37   C43   S    
C19   H10   S    
C29   C30   A    
C61   C65   A    
N5    Ni2   S    
C15   C27   S    
C47   C48   A    
C13   H8    S    
C55   C64   A    
C21   H11   S    
C53   H24   S    
C50   C51   A    
C47   H25   S    
C10   N6    A    
C50   C54   A    
C49   H27   S    
N16   Ni1   S    
C45   H33   S    
C16   C40   S    
N9    Ni2   S    
N14   Ni4   S    
C2    C33   S    
N4    Ni4   S    
C40   C41   A    
C66   N14   A    
C13   C15   A    
C25   H14   S    
C22   C24   A    
C42   C43   A    
C57   C68   S    
C9    C17   A    
C25   C30   A    
C6    H2    S    
C7    C16   A    
N10   Ni3   S    
N1    N15   A    
C11   N7    A    
C56   N13   A    
C66   H35   S    
C31   C32   A    
C58   H31   S    
C65   H32   S    
O6    H43   S    
C2    C66   A    
O5    H42   S    
C8    C17   A    
N3    N6    A    
N11   Ni4   S    
C64   C65   A    
O3    H40   S    
C58   C59   A    
C56   H34   S    
C38   C43   A    
C11   H7    S    
N4    N5    A    
C32   C33   A    
C10   H6    S    
N8    Ni3   S    
O1    H38   S    
C32   H17   S    
C12   H12   S    
C35   H18   S    
N11   N13   A    
C4    C34   A    
N12   Ni2   S    
C61   C62   A    
C24   C30   S    
C45   N12   A    
C54   H26   S    
O7    H44   S    
C23   N10   A    
C4    C20   S    
C31   C37   A    
N7    N16   A    
C20   C21   A    
C36   C37   A    
C49   C50   A    
C27   C28   A    
C7    N3    A    
C52   H23   S    
C10   C16   A    
N7    Ni4   S    
C8    N4    A    
C13   N8    A    
N15   Ni3   S    
C60   O7    S    
