data_mof_unit_1268.cif
_audit_creation_date              2012-12-11T14:49:48-0500
_audit_creation_method            fapswitch 2.2
_symmetry_space_group_name_H-M    P1
_symmetry_Int_Tables_number       1
_space_group_crystal_system       triclinic
_cell_length_a                    16.846581
_cell_length_b                    7.007618
_cell_length_c                    16.875184
_cell_angle_alpha                 88.294507
_cell_angle_beta                  100.930018
_cell_angle_gamma                 91.898176
_cell_volume                      1954.41738486

loop_
_atom_site_label
_atom_site_type_symbol
_atom_type_description
_atom_site_fract_x
_atom_site_fract_y
_atom_site_fract_z
_atom_type_partial_charge
O1    O     O_R   0.579510 0.506290 0.439030 -0.541393
O2    O     O_R   0.420490 0.006290 0.560970 -0.532477
O3    O     O_R   0.412540 0.170090 0.405290 -0.540322
O4    O     O_R   0.587460 0.670090 0.594710 -0.541180
C1    C     C_R   0.383656 0.345237 0.383438 0.653651
C2    C     C_R   0.614762 0.845832 0.618258 0.650716
O5    O     O_R   0.578390 0.176230 0.429330 -0.532562
O6    O     O_R   0.421610 0.676230 0.570670 -0.543596
O7    O     O_R   0.587530 0.011250 0.585190 -0.539347
O8    O     O_R   0.412470 0.511250 0.414810 -0.540138
C3    C     C_R   0.605274 0.350199 0.414230 0.705488
C4    C     C_R   0.395259 0.840845 0.587044 0.699375
O9    O     O_3   0.502800 0.340940 0.551110 -0.369510
O10   O     O_3   0.497200 0.840940 0.448890 -0.366662
V1    V     V_3+5 0.499480 0.064020 0.490520 1.406435
V2    V     V_3+5 0.500520 0.564020 0.509480 1.395847
C5    C     C_R   0.170193 0.932052 0.863019 -0.136670
C6    C     C_R   0.829043 0.385448 0.134643 -0.132036
C7    C     C_R   0.333855 0.833479 0.640626 -0.109261
C8    C     C_R   0.667300 0.381916 0.362572 -0.104391
C9    C     C_R   0.228710 0.648843 0.695910 -0.008278
C10   C     C_R   0.765703 0.603696 0.314481 -0.017770
C11   C     C_R   0.282912 0.670670 0.641633 -0.151082
C12   C     C_R   0.714117 0.553132 0.368903 -0.142298
C13   C     C_R   0.329774 0.978181 0.695097 -0.183498
C14   C     C_R   0.674365 0.256445 0.301840 -0.176804
C15   C     C_R   0.277094 0.959226 0.750936 0.131725
C16   C     C_R   0.725457 0.303034 0.246624 0.122019
C17   C     C_R   0.225244 0.795707 0.751648 0.077829
C18   C     C_R   0.772076 0.476265 0.252133 0.065987
C19   C     C_R   0.171218 0.786695 0.807176 -0.172392
C20   C     C_R   0.824290 0.513569 0.196165 -0.180826
C21   C     C_R   0.226475 0.088481 0.864494 -0.017039
C22   C     C_R   0.778091 0.217229 0.127897 -0.015246
C23   C     C_R   0.277506 0.101489 0.807432 -0.138497
C24   C     C_R   0.728455 0.178182 0.184659 -0.162425
H1    H     H_    0.127300 0.670879 0.806257 0.112412
H2    H     H_    0.864534 0.637382 0.201488 0.119648
H3    H     H_    0.319412 0.222552 0.807962 0.150451
H4    H     H_    0.690584 0.049189 0.180031 0.153498
H5    H     H_    0.286435 0.557544 0.600118 0.161512
H6    H     H_    0.708519 0.651628 0.415724 0.163175
H7    H     H_    0.369695 0.103015 0.695927 0.120400
H8    H     H_    0.637792 0.125503 0.295655 0.122629
C25   C     C_3   0.764193 0.705057 0.818087 0.187151
C26   C     C_3   0.269699 0.420547 0.160462 0.201849
H9    H     H_    0.808284 0.591424 0.815043 0.102324
H10   H     H_    0.272013 0.289186 0.125377 0.069022
C27   C     C_3   0.693437 0.681837 0.744372 -0.306901
C28   C     C_3   0.342347 0.407112 0.233079 -0.304180
H11   H     H_    0.634976 0.651783 0.764511 0.159825
H12   H     H_    0.380784 0.539578 0.238564 0.153955
H13   H     H_    0.704742 0.556960 0.709190 0.108535
H14   H     H_    0.382328 0.290839 0.222520 0.103550
H15   H     H_    0.882322 0.805261 0.728753 0.136779
H16   H     H_    0.182536 0.090867 0.189925 0.141450
H17   H     H_    0.776453 0.779449 0.621243 0.144696
H18   H     H_    0.292508 0.057954 0.290165 0.141060
C29   C     C_3   0.838541 0.919284 0.731445 -0.371372
C30   C     C_3   0.183312 0.207328 0.233302 -0.373771
C31   C     C_3   0.747461 0.063091 0.813281 -0.333715
C32   C     C_3   0.184157 0.555085 0.256163 -0.320064
C33   C     C_3   0.809692 0.904919 0.813600 0.041574
C34   C     C_3   0.186558 0.407742 0.189836 0.060211
H19   H     H_    0.776690 0.205656 0.806121 0.141688
H20   H     H_    0.127361 0.531976 0.280181 0.136670
H21   H     H_    0.725958 0.061268 0.871542 0.147832
H22   H     H_    0.182073 0.703631 0.231908 0.149411
C35   C     C_3   0.685324 0.864060 0.689707 0.056920
C36   C     C_3   0.311851 0.364225 0.313173 0.058792
C37   C     C_3   0.766105 0.899458 0.659473 -0.319098
C38   C     C_3   0.257147 0.180761 0.303102 -0.341281
C39   C     C_3   0.673930 0.035324 0.743318 -0.296745
C40   C     C_3   0.257623 0.532955 0.326512 -0.305009
H23   H     H_    0.617924 0.010852 0.768562 0.138696
H24   H     H_    0.293468 0.669737 0.331726 0.144400
H25   H     H_    0.666403 0.170111 0.706474 0.148153
H26   H     H_    0.235642 0.508932 0.384275 0.143233
H27   H     H_    0.870899 0.058649 0.725859 0.157335
H28   H     H_    0.126423 0.189814 0.257553 0.156902
H29   H     H_    0.762615 0.031866 0.621029 0.157892
H30   H     H_    0.235530 0.145671 0.360300 0.153808
O11   O     O_R   0.087500 0.266000 0.085220 -0.548745
O12   O     O_R   0.912500 0.766000 0.914780 -0.541006
O13   O     O_R   0.921600 0.589950 0.070670 -0.523925
O14   O     O_R   0.078400 0.089950 0.929330 -0.546798
C41   C     C_R   0.892997 0.416456 0.084185 0.689316
C42   C     C_R   0.106584 0.926138 0.914784 0.682426
O15   O     O_R   0.087460 0.596020 0.094710 -0.536958
O16   O     O_R   0.912540 0.096020 0.905290 -0.541241
O17   O     O_R   0.079520 0.760970 0.939020 -0.526725
O18   O     O_R   0.920480 0.260970 0.060980 -0.547462
C43   C     C_R   0.115283 0.425863 0.118868 0.657991
C44   C     C_R   0.882646 0.925529 0.883035 0.642911
O19   O     O_3   0.997180 0.425140 0.948910 -0.369389
O20   O     O_3   0.002820 0.925140 0.051090 -0.368376
V3    V     V_3+5 0.000520 0.702080 0.009480 1.413322
V4    V     V_3+5 0.999480 0.202080 0.990520 1.384324
C45   C     C_2   0.235943 0.236644 0.926985 0.346315
H31   H     H_    0.214376 0.209667 0.982922 0.037012
O21   O     O_2   0.269417 0.390469 0.917176 -0.545814
C46   C     C_2   0.773304 0.079733 0.061638 0.354901
H32   H     H_    0.792696 0.120830 0.005977 0.036264
O22   O     O_2   0.746327 0.917337 0.068331 -0.549309
C47   C     C_2   0.179323 0.468113 0.694318 0.360969
H33   H     H_    0.149452 0.425112 0.743591 0.061781
O23   O     O_2   0.172412 0.361010 0.637461 -0.529827
C48   C     C_2   0.808646 0.793562 0.322721 0.349046
H34   H     H_    0.835187 0.857520 0.274384 0.063280
O24   O     O_2   0.813701 0.884414 0.384230 -0.528962
N1    N     N_2   0.733345 0.679713 0.893127 -0.493887
H35   H     H_    0.765343 0.752945 0.941419 0.287613
C49   C     C_3   0.715629 0.484609 0.915924 -0.548280
H36   H     H_    0.688865 0.482711 0.971237 0.219852
H37   H     H_    0.772290 0.403662 0.928699 0.162030
H38   H     H_    0.671715 0.414669 0.867259 0.195293
N2    N     N_2   0.278690 0.580150 0.104677 -0.496302
H39   H     H_    0.247191 0.561255 0.046711 0.278805
C50   C     C_3   0.280470 0.776591 0.129474 -0.532264
H40   H     H_    0.218344 0.831954 0.117387 0.177016
H41   H     H_    0.316716 0.865029 0.092954 0.198859
H42   H     H_    0.308257 0.793058 0.193886 0.187278

loop_
_geom_bond_atom_site_label_1
_geom_bond_atom_site_label_2
_ccdc_geom_bond_type
C2    C35   S    
H15   C29   S    
C15   C17   A    
C5    C42   S    
C12   H6    S    
C23   H3    S    
N1    H35   S    
O1    C3    A    
O2    C4    A    
C13   H7    S    
C2    O7    A    
O19   V4    S    
C14   H8    S    
C10   C48   S    
O5    C3    A    
C47   O23   D    
C33   C44   S    
C28   H14   S    
C40   H24   S    
O12   V3    S    
C34   C43   S    
N2    C50   S    
O14   C42   A    
C30   C38   S    
O11   C43   A    
C48   H34   S    
C31   C33   S    
C35   C37   S    
C32   C34   S    
C8    C12   A    
C27   H11   S    
O11   V4    S    
O20   V4    S    
C36   C40   S    
C28   H12   S    
C35   C39   S    
C20   H2    S    
C49   H38   S    
C50   H41   S    
O6    V2    S    
C27   C35   S    
C41   O18   A    
O15   C43   A    
C39   H23   S    
C5    C21   A    
O14   V4    S    
O16   C44   A    
C25   H9    S    
C26   H10   S    
C3    C8    S    
C32   H20   S    
O13   C41   A    
O18   V4    S    
C24   H4    S    
O4    C2    A    
C29   H27   S    
C15   C23   A    
C9    C17   A    
C25   C33   S    
O17   V3    S    
C19   H1    S    
C26   N2    S    
C26   C34   S    
C21   C45   S    
C22   C46   S    
O4    V2    S    
C7    C11   A    
C1    C36   S    
C31   H21   S    
C45   H31   S    
C42   O17   A    
C25   C27   S    
O6    C4    A    
O20   V3    S    
C25   N1    S    
N1    C49   S    
O1    V2    S    
O12   C44   A    
H17   C37   S    
C46   O22   D    
O2    V1    S    
C6    C22   A    
C45   O21   D    
C9    C11   A    
C5    C19   A    
C10   C12   A    
C6    C20   A    
O3    V1    S    
C49   H36   S    
C50   H42   S    
C30   H28   S    
C10   C18   A    
C14   C16   A    
O3    C1    A    
C50   H40   S    
O19   V3    S    
C13   C15   A    
C47   H33   S    
C26   C28   S    
C29   C33   S    
C6    C41   S    
C11   H5    S    
C32   H22   S    
C30   C34   S    
C31   C39   S    
C16   C18   A    
O7    V1    S    
C1    O8    A    
C17   C19   A    
O8    V2    S    
N2    H39   S    
C18   C20   A    
H18   C38   S    
C8    C14   A    
C27   H13   S    
C4    C7    S    
O5    V1    S    
C21   C23   A    
C48   O24   D    
C22   C24   A    
C28   C36   S    
C46   H32   S    
C7    C13   A    
C38   H30   S    
O13   V3    S    
C31   H19   S    
H16   C30   S    
C16   C24   A    
C40   H26   S    
O9    V2    S    
O15   V3    S    
C39   H25   S    
O10   V1    S    
C32   C40   S    
C36   C38   S    
C37   H29   S    
O16   V4    S    
C9    C47   S    
C29   C37   S    
C49   H37   S    
