data_mof_unit_919.cif
_audit_creation_date              2012-10-26T18:34:00-0400
_audit_creation_method            fapswitch 2.2
_symmetry_space_group_name_H-M    P1
_symmetry_Int_Tables_number       1
_space_group_crystal_system       triclinic
_cell_length_a                    11.1551
_cell_length_b                    10.804511
_cell_length_c                    9.51565
_cell_angle_alpha                 90.62832
_cell_angle_beta                  102.651322
_cell_angle_gamma                 89.542262
_cell_volume                      1118.94682268

loop_
_atom_site_label
_atom_site_type_symbol
_atom_type_description
_atom_site_fract_x
_atom_site_fract_y
_atom_site_fract_z
_atom_type_partial_charge
C1    C     C_R   0.501707 0.262339 0.499609 0.591548
C2    C     C_2   0.869685 0.503985 0.588638 -0.073667
C3    C     C_2   0.064937 0.519092 0.512691 0.191402
C4    C     C_2   0.935070 0.480936 0.487319 0.191400
C5    C     C_R   0.579593 0.061602 0.428182 0.199507
C6    C     C_R   0.420362 0.938386 0.571789 0.199546
C7    C     C_R   0.581180 0.932846 0.433025 0.234667
C8    C     C_R   0.418808 0.067143 0.566956 0.234581
C9    C     C_R   0.499786 0.871480 0.502375 -0.052209
C10   C     C_R   0.500195 0.128513 0.497623 -0.052174
C11   C     C_3   0.221311 0.360987 0.034251 -0.100480
C12   C     C_R   0.498281 0.737660 0.500387 0.591543
C13   C     C_3   0.778769 0.638892 0.965798 -0.100531
C14   C     C_3   0.768631 0.839820 0.466505 -0.056935
C15   C     C_3   0.231428 0.160218 0.533636 -0.056965
C16   C     C_R   0.263414 0.503490 0.442355 0.557993
C17   C     C_R   0.736587 0.496521 0.557646 0.557995
C18   C     C_R   0.420214 0.426083 0.053524 0.402867
C19   C     C_R   0.579791 0.573910 0.946476 0.402890
C20   C     C_R   0.422266 0.425294 0.904131 0.030538
C21   C     C_R   0.577726 0.574710 0.095863 0.030529
C22   C     C_2   0.130316 0.496053 0.411367 -0.073653
Cl1   Cl    Cl    0.870177 0.397526 0.326071 -0.585931
Cl2   Cl    Cl    0.129840 0.602478 0.673954 -0.585898
Cl3   Cl    Cl    0.682379 0.136195 0.339773 -0.449444
Cl4   Cl    Cl    0.317535 0.863784 0.660124 -0.449570
Cu1   Cu    Cu3+1 0.500000 0.500020 0.640660 1.110659
Cu2   Cu    Cu3+1 0.500000 0.499980 0.359340 1.110661
H1    H     H_    0.912420 0.539782 0.694392 0.119820
H2    H     H_    0.838393 0.678182 0.898421 0.153078
H3    H     H_    0.830062 0.784884 0.412178 0.155662
H4    H     H_    0.750717 0.783207 0.556624 0.101841
H5    H     H_    0.818021 0.925931 0.509535 0.169519
H6    H     H_    0.181947 0.074098 0.490783 0.169675
H7    H     H_    0.249295 0.216702 0.443402 0.101799
H8    H     H_    0.170114 0.215303 0.587988 0.155611
H9    H     H_    0.087572 0.460275 0.305607 0.119842
H10   H     H_    0.362708 0.364127 0.829931 0.157204
H11   H     H_    0.637281 0.635888 0.170056 0.157246
H12   H     H_    0.203039 0.308452 0.930869 0.135876
H13   H     H_    0.194415 0.460089 0.015938 0.138951
H14   H     H_    0.161707 0.321515 0.101534 0.153115
H15   H     H_    0.805583 0.539760 0.984226 0.138970
H16   H     H_    0.797121 0.691520 0.069105 0.135957
N1    N     N_R   0.500030 0.500030 0.852080 -0.239164
N2    N     N_R   0.499970 0.499970 0.147920 -0.239156
O1    O     O_R   0.499990 0.319660 0.618740 -0.491722
O2    O     O_3   0.655075 0.653296 0.892082 -0.522121
O3    O     O_3   0.659342 0.866816 0.364755 -0.516208
O4    O     O_3   0.340722 0.133196 0.635317 -0.516242
O5    O     O_R   0.500010 0.680340 0.381260 -0.491754
O6    O     O_R   0.499990 0.319630 0.381170 -0.416104
O7    O     O_R   0.500010 0.680370 0.618830 -0.416135
O8    O     O_R   0.320690 0.500020 0.575130 -0.448600
O9    O     O_R   0.679310 0.499980 0.424870 -0.448577
O10   O     O_R   0.320680 0.499990 0.337560 -0.498574
O11   O     O_R   0.679320 0.500010 0.662440 -0.498555
O12   O     O_3   0.344985 0.346656 0.107946 -0.522121

loop_
_geom_bond_atom_site_label_1
_geom_bond_atom_site_label_2
_ccdc_geom_bond_type
C13   O2    S    
C2    C4    D    
C16   O10   A    
C11   O12   S    
C20   H10   S    
C17   O9    A    
C15   H6    S    
C20   N1    A    
C21   H11   S    
C14   H3    S    
Cu1   N1    S    
C14   H5    S    
Cu1   O7    S    
C1    O6    A    
Cu2   O10   S    
Cu1   O8    S    
C5    C7    A    
C5    C10   A    
C2    C17   S    
Cu2   O6    S    
Cu2   N2    S    
C3    Cl2   S    
C6    Cl4   S    
C6    C9    A    
C2    H1    S    
C5    Cl3   S    
C18   N2    A    
C15   H7    S    
C19   C21   A    
Cu2   O9    S    
C11   H13   S    
C18   C20   A    
C11   H12   S    
Cu2   O5    S    
C16   O8    A    
C14   O3    S    
C9    C12   S    
C1    C10   S    
C3    C4    S    
C8    O4    S    
C13   H2    S    
C13   H15   S    
C12   O5    A    
C14   H4    S    
C6    C8    A    
C7    O3    S    
C11   H14   S    
C8    C10   A    
C21   N2    A    
Cu1   O11   S    
C15   O4    S    
Cu1   O1    S    
Cu1   Cu2   S    
C7    C9    A    
C4    Cl1   S    
C19   O2    S    
C1    O1    A    
C3    C22   D    
C16   C22   S    
C15   H8    S    
C22   H9    S    
C18   O12   S    
C13   H16   S    
C19   N1    A    
C12   O7    A    
C17   O11   A    
