data_mof_unit_2319.cif
_audit_creation_date              2012-12-10T20:58:02-0500
_audit_creation_method            fapswitch 2.2
_symmetry_space_group_name_H-M    P1
_symmetry_Int_Tables_number       1
_space_group_crystal_system       triclinic
_cell_length_a                    18.169571
_cell_length_b                    18.261116
_cell_length_c                    18.377713
_cell_angle_alpha                 119.906672
_cell_angle_beta                  89.98728
_cell_angle_gamma                 119.983832
_cell_volume                      4319.29941626

loop_
_atom_site_label
_atom_site_type_symbol
_atom_type_description
_atom_site_fract_x
_atom_site_fract_y
_atom_site_fract_z
_atom_type_partial_charge
C1    C     C_R   0.358412 0.219984 0.360921 0.516123
C2    C     C_3   0.791093 0.943617 0.676286 0.619795
C3    C     C_3   0.177739 0.248193 0.233584 0.037410
C4    C     C_3   0.074773 0.175715 0.203773 -0.278072
C5    C     C_3   0.032436 0.103339 0.102645 -0.390564
C6    C     C_3   0.874453 0.798661 0.812924 0.014559
C7    C     C_3   0.857357 0.817335 0.900016 -0.265244
C8    C     C_3   0.803513 0.863792 0.924566 -0.499974
C9    C     C_3   0.484008 0.819488 0.903840 -0.010173
C10   C     C_3   0.579848 0.867660 0.955166 -0.264315
C11   C     C_3   0.598990 0.930459 0.055457 -0.487878
C12   C     C_3   0.445181 0.529933 0.936617 0.017999
C13   C     C_3   0.699975 0.897954 0.695196 0.037749
C14   C     C_3   0.513078 0.623737 0.937014 -0.241142
C15   C     C_3   0.600868 0.632985 0.932620 -0.488844
C16   C     C_R   0.641253 0.781134 0.637748 0.550683
C17   C     C_3   0.798901 0.102614 0.800921 0.037356
C18   C     C_3   0.779037 0.056977 0.856348 0.142263
C19   C     C_3   0.848206 0.064348 0.739140 0.306680
C20   C     C_3   0.707410 0.410878 0.269760 -0.192643
C21   C     C_3   0.771604 0.413587 0.213820 0.159813
C22   C     C_3   0.655472 0.487263 0.218657 -0.243982
C23   C     C_3   0.792714 0.604676 0.353068 -0.260274
C24   C     C_3   0.293408 0.593259 0.359048 -0.225012
C25   C     C_3   0.697956 0.501035 0.301667 0.036923
C26   C     C_3   0.799364 0.500381 0.200206 0.093359
C27   C     C_3   0.713688 0.483599 0.157742 -0.222554
C28   C     C_R   0.361973 0.503081 0.643328 0.545802
C29   C     C_3   0.851431 0.605791 0.292996 -0.284078
C30   C     C_R   0.306288 0.135808 0.581336 -0.098478
C31   C     C_R   0.309265 0.095706 0.493897 0.308319
C32   C     C_R   0.260779 0.097134 0.435247 0.079270
C33   C     C_R   0.207543 0.134386 0.463309 -0.128799
C34   C     C_R   0.203062 0.170916 0.549280 -0.079245
C35   C     C_3   0.299924 0.500333 0.302128 0.002280
C36   C     C_R   0.252165 0.171334 0.608075 -0.089545
C37   C     C_R   0.207706 0.943637 0.286064 -0.151837
C38   C     C_R   0.195904 0.892083 0.195306 -0.043278
C39   C     C_R   0.236681 0.948613 0.158527 -0.025545
C40   C     C_R   0.640720 0.500926 0.359450 0.501463
C41   C     C_R   0.289682 0.055570 0.213998 0.331662
C42   C     C_R   0.301058 0.107503 0.305374 0.022659
C43   C     C_R   0.258482 0.050435 0.341490 -0.044009
C44   C     C_R   0.282479 0.870373 0.027956 -0.040223
C45   C     C_R   0.272836 0.826122 0.937748 -0.106111
C46   C     C_3   0.198312 0.501099 0.200970 0.064719
C47   C     C_R   0.206732 0.810892 0.881944 -0.101260
C48   C     C_R   0.150336 0.840435 0.916366 -0.095539
C49   C     C_R   0.160006 0.885286 0.006644 -0.034167
C50   C     C_R   0.225867 0.899927 0.062771 0.123209
C51   C     C_R   0.875793 0.564716 0.524287 -0.123655
C52   C     C_R   0.641797 0.498740 0.638735 0.497312
C53   C     C_R   0.822065 0.524684 0.566765 -0.105579
C54   C     C_R   0.838586 0.589687 0.658034 0.066779
C55   C     C_R   0.908180 0.696278 0.706032 0.281791
C56   C     C_R   0.962430 0.735278 0.663036 -0.088969
C57   C     C_3   0.143468 0.399232 0.195080 0.194096
C58   C     C_R   0.946341 0.669547 0.572475 -0.143746
C59   C     C_R   0.840288 0.545040 0.762583 -0.117233
C60   C     C_R   0.799261 0.497860 0.805375 0.015956
C61   C     C_R   0.705812 0.447750 0.790418 -0.038440
C62   C     C_R   0.656374 0.449051 0.734843 -0.156177
C63   C     C_R   0.697641 0.497330 0.692801 0.008459
C64   C     C_R   0.358330 0.500516 0.359515 0.499950
C65   C     C_R   0.790491 0.544288 0.705249 -0.010601
C66   C     C_R   0.613919 0.286903 0.785072 -0.040864
C67   C     C_R   0.563348 0.234984 0.821586 0.386595
C68   C     C_3   0.234355 0.594169 0.299977 0.240948
C69   C     C_R   0.553702 0.289288 0.903253 -0.060120
C70   C     C_R   0.595234 0.395617 0.948801 -0.189857
C71   C     C_R   0.647416 0.448099 0.913430 -0.113843
C72   C     C_R   0.656471 0.393871 0.831118 0.012204
C73   C     C_R   0.430154 0.825429 0.751270 -0.145718
C74   C     C_R   0.403181 0.746431 0.762993 0.299554
C75   C     C_R   0.313449 0.657271 0.718114 0.012021
C76   C     C_3   0.340627 0.510864 0.230715 -0.246815
C77   C     C_R   0.252026 0.650230 0.664190 -0.117221
C78   C     C_R   0.279739 0.729625 0.653337 0.367442
C79   C     C_3   0.650191 0.940221 0.678902 -0.282230
C80   C     C_R   0.368658 0.817191 0.696998 -0.112922
C81   C     C_R   0.222603 0.566463 0.780855 -0.191492
C82   C     C_R   0.198722 0.501688 0.808944 -0.028059
C83   C     C_R   0.235776 0.444359 0.789226 0.016299
C84   C     C_R   0.291234 0.448713 0.737371 0.324846
C85   C     C_R   0.311401 0.509852 0.705426 0.052269
C86   C     C_R   0.281593 0.575001 0.732853 -0.057599
C87   C     C_R   0.291718 0.426055 0.899418 0.319384
C88   C     C_3   0.280084 0.509474 0.170421 -0.271767
C89   C     C_R   0.280830 0.366895 0.931560 -0.116102
C90   C     C_3   0.707569 0.059626 0.741312 -0.287270
C91   C     C_R   0.203542 0.266266 0.889374 -0.146198
C92   C     C_R   0.136848 0.223812 0.814805 -0.118069
C93   C     C_R   0.146883 0.281850 0.782276 -0.102671
C94   C     C_R   0.223493 0.383786 0.825320 0.122879
C95   C     C_R   0.857009 0.500595 0.142741 0.518885
C96   C     C_R   0.139209 0.500171 0.862227 0.520326
C97   C     C_R   0.856614 0.219009 0.861600 0.569669
C98   C     C_R   0.139041 0.779885 0.140999 0.504775
C99   C     C_R   0.855799 0.500182 0.862494 0.505894
C100  C     C_3   0.202782 0.398527 0.255375 0.169094
C101  C     C_3   0.720571 0.937349 0.794306 -0.251398
C102  C     C_R   0.140245 0.500543 0.142903 0.573124
C103  C     C_3   0.915116 0.932227 0.662309 0.033350
C104  C     C_3   0.894664 0.838627 0.572763 -0.227902
C105  C     C_3   0.979036 0.863211 0.545587 -0.507746
C106  C     C_3   0.743567 0.249170 0.133004 -0.018266
C107  C     C_3   0.829038 0.262805 0.110839 -0.241025
C108  C     C_3   0.842630 0.185105 0.107061 -0.416643
C109  C     C_3   0.343268 0.981962 0.475050 -0.000403
C110  C     C_3   0.425505 0.015706 0.538731 -0.253434
C111  C     C_3   0.406826 0.929366 0.547062 -0.432621
F1    F     F_    0.068489 0.387745 0.220269 -0.707394
F2    F     F_    0.770812 0.910378 0.587855 -0.616752
F3    F     F_    0.868319 0.105126 0.689464 -0.635004
F4    F     F_    0.858804 0.092940 0.910650 -0.685145
F5    F     F_    0.330877 0.108302 0.177658 -0.619411
F6    F     F_    0.522982 0.131862 0.777425 -0.677925
F7    F     F_    0.220114 0.721906 0.600781 -0.645970
F8    F     F_    0.328037 0.395330 0.721042 -0.656798
F9    F     F_    0.284053 0.686852 0.307968 -0.663490
H1    H     H_    0.347888 0.446671 0.188917 0.177479
H2    H     H_    0.409190 0.584380 0.263703 0.125450
H3    H     H_    0.474137 0.537549 0.995312 0.121820
H4    H     H_    0.483650 0.616414 0.878741 0.204394
H5    H     H_    0.527551 0.695097 0.998620 0.166663
H6    H     H_    0.633388 0.645225 0.992481 0.137697
H7    H     H_    0.647475 0.700040 0.930521 0.142758
H8    H     H_    0.587982 0.562167 0.871763 0.163192
H9    H     H_    0.913334 0.094380 0.781743 0.157243
H10   H     H_    0.755568 0.907899 0.807887 0.180449
H11   H     H_    0.639802 0.335917 0.229632 0.166956
H12   H     H_    0.734005 0.416151 0.327905 0.065954
H13   H     H_    0.834614 0.434825 0.252589 0.095873
H14   H     H_    0.586363 0.414418 0.180280 0.152443
H15   H     H_    0.319971 0.580640 0.171901 0.184703
H16   H     H_    0.673185 0.407189 0.092274 0.183204
H17   H     H_    0.786426 0.669762 0.376717 0.133991
H18   H     H_    0.176955 0.589409 0.324095 0.196330
H19   H     H_    0.826150 0.616287 0.412182 0.139593
H20   H     H_    0.914374 0.622137 0.325773 0.134561
H21   H     H_    0.871225 0.669483 0.285619 0.127004
H22   H     H_    0.649636 0.552278 0.239607 0.115896
H23   H     H_    0.732915 0.544008 0.145951 0.096834
H24   H     H_    0.249000 0.200172 0.674826 0.155050
H25   H     H_    0.345515 0.139100 0.628550 0.111386
H26   H     H_    0.256076 0.442403 0.100655 0.125369
H27   H     H_    0.168656 0.133791 0.418092 0.089869
H28   H     H_    0.161569 0.199073 0.570436 0.128633
H29   H     H_    0.173312 0.397927 0.308679 0.133750
H30   H     H_    0.175012 0.900544 0.314187 0.150375
H31   H     H_    0.333886 0.881772 0.070595 0.100654
H32   H     H_    0.316434 0.803428 0.910987 0.089096
H33   H     H_    0.199317 0.776370 0.812106 0.129634
H34   H     H_    0.099402 0.828917 0.873166 0.157198
H35   H     H_    0.116216 0.908313 0.032807 0.097154
H36   H     H_    0.988726 0.699760 0.539583 0.134881
H37   H     H_    0.864108 0.514090 0.454384 0.110383
H38   H     H_    0.769487 0.442609 0.529312 0.107874
H39   H     H_    0.017431 0.816415 0.700076 0.120368
H40   H     H_    0.584654 0.908940 0.690569 0.137148
H41   H     H_    0.911593 0.580739 0.771822 0.160882
H42   H     H_    0.584951 0.412535 0.725267 0.156516
H43   H     H_    0.619917 0.244093 0.721109 0.117561
H44   H     H_    0.513968 0.249076 0.931242 0.138548
H45   H     H_    0.587021 0.437404 0.011564 0.100820
H46   H     H_    0.118536 0.332557 0.124688 0.177431
H47   H     H_    0.680113 0.530541 0.949575 0.107273
H48   H     H_    0.390108 0.878819 0.688847 0.164216
H49   H     H_    0.498954 0.893484 0.784836 0.120952
H50   H     H_    0.182660 0.583136 0.630659 0.136032
H51   H     H_    0.634798 0.914382 0.608421 0.189317
H52   H     H_    0.197063 0.613314 0.798365 0.151095
H53   H     H_    0.332030 0.399113 0.989412 0.096833
H54   H     H_    0.263864 0.588388 0.410892 0.129527
H55   H     H_    0.195348 0.221124 0.914493 0.129253
H56   H     H_    0.077444 0.145833 0.782228 0.102633
H57   H     H_    0.094963 0.247825 0.724028 0.132035
H58   H     H_    0.361963 0.667109 0.394336 0.176771
H59   H     H_    0.970435 0.955129 0.712609 0.114769
H60   H     H_    0.940568 0.998217 0.656825 0.168361
H61   H     H_    0.869152 0.772042 0.577002 0.184752
H62   H     H_    0.719184 0.091483 0.701020 0.196277
H63   H     H_    0.841619 0.816994 0.521227 0.221214
H64   H     H_    0.003085 0.927546 0.538243 0.159899
H65   H     H_    0.963868 0.794490 0.481063 0.142237
H66   H     H_    0.033507 0.885567 0.596359 0.145168
H67   H     H_    0.685112 0.168708 0.081785 0.155426
H68   H     H_    0.746781 0.258777 0.198073 0.113481
H69   H     H_    0.823928 0.252140 0.045578 0.189424
H70   H     H_    0.888917 0.342160 0.161973 0.190336
H71   H     H_    0.848912 0.195392 0.172149 0.144874
H72   H     H_    0.905274 0.197395 0.091723 0.235730
H73   H     H_    0.669539 0.084034 0.783462 0.162053
H74   H     H_    0.785005 0.104832 0.054355 0.148767
H75   H     H_    0.326384 0.914386 0.408247 0.201325
H76   H     H_    0.283546 0.954471 0.496956 0.115566
H77   H     H_    0.483355 0.037725 0.513875 0.181889
H78   H     H_    0.444377 0.084347 0.605585 0.187184
H79   H     H_    0.350023 0.907148 0.573109 0.189900
H80   H     H_    0.467640 0.956451 0.593787 0.176129
H81   H     H_    0.389965 0.860610 0.481319 0.196358
H82   H     H_    0.204539 0.200533 0.206156 0.191266
H83   H     H_    0.207110 0.294702 0.307312 0.088137
H84   H     H_    0.656274 0.906097 0.808284 0.101477
H85   H     H_    0.056860 0.128480 0.230567 0.106126
H86   H     H_    0.046103 0.221308 0.231263 0.184741
H87   H     H_    0.046182 0.147960 0.073867 0.201588
H88   H     H_    0.958472 0.051114 0.084687 0.130093
H89   H     H_    0.059294 0.055895 0.073885 0.142981
H90   H     H_    0.807685 0.744525 0.759497 0.166274
H91   H     H_    0.911275 0.872863 0.819079 0.166847
H92   H     H_    0.819395 0.742671 0.893040 0.173678
H93   H     H_    0.922787 0.870542 0.954409 0.169003
H94   H     H_    0.840984 0.939447 0.933505 0.196650
H95   H     H_    0.742218 0.082110 0.899830 0.130053
H96   H     H_    0.792525 0.876387 0.988062 0.137382
H97   H     H_    0.736871 0.810548 0.871879 0.143394
H98   H     H_    0.435285 0.773404 0.925445 0.151494
H99   H     H_    0.478434 0.884041 0.920987 0.120270
H100  H     H_    0.589917 0.806049 0.935654 0.171020
H101  H     H_    0.628700 0.919426 0.938264 0.155774
H102  H     H_    0.591292 0.994122 0.076606 0.146240
H103  H     H_    0.669121 0.964571 0.090477 0.143928
H104  H     H_    0.552127 0.880104 0.074588 0.156629
H105  H     H_    0.432740 0.459553 0.874643 0.175274
O1    O     O_3   0.500000 0.500000 0.500000 -0.461398
O2    O     O_R   0.113800 0.731630 0.056520 -0.546499
O3    O     O_R   0.819390 0.439310 0.886160 -0.536841
O4    O     O_R   0.383400 0.268380 0.323710 -0.475614
O5    O     O_R   0.115110 0.560720 0.179280 -0.490482
O6    O     O_R   0.941380 0.560750 0.885620 -0.552989
O7    O     O_R   0.115110 0.439270 0.057830 -0.558250
O8    O     O_R   0.942690 0.268390 0.886930 -0.496119
O9    O     O_R   0.114340 0.731630 0.178520 -0.539818
O10   O     O_R   0.820160 0.439310 0.057830 -0.518652
O11   O     O_R   0.113800 0.560730 0.885620 -0.544678
O12   O     O_R   0.383400 0.560740 0.616060 -0.540693
O13   O     O_R   0.555060 0.731630 0.615290 -0.548137
O14   O     O_R   0.383950 0.439280 0.616600 -0.472272
O15   O     O_R   0.677590 0.560710 0.444390 -0.551739
O16   O     O_R   0.556370 0.439260 0.616600 -0.533536
O17   O     O_R   0.382640 0.439290 0.322940 -0.515363
O18   O     O_R   0.678360 0.560700 0.616060 -0.561541
O19   O     O_R   0.382640 0.560750 0.444390 -0.565383
O20   O     O_3   0.839003 0.907376 0.691290 -0.583322
O21   O     O_3   0.728367 0.316565 0.129831 -0.563702
O22   O     O_3   0.364674 0.062908 0.466721 -0.567893
O23   O     O_R   0.555060 0.439270 0.322940 -0.536195
O24   O     O_3   0.205239 0.311036 0.201676 -0.571270
O25   O     O_3   0.928297 0.760661 0.796648 -0.605049
O26   O     O_3   0.466482 0.752640 0.811957 -0.569823
O27   O     O_3   0.366295 0.527131 0.942109 -0.579873
O28   O     O_R   0.383950 0.268380 0.445700 -0.542183
O29   O     O_R   0.677590 0.731610 0.615290 -0.496025
O30   O     O_3   0.997750 0.500010 0.002220 -0.455483
O31   O     O_R   0.942690 0.560750 0.179280 -0.567492
O32   O     O_R   0.114340 0.439270 0.886160 -0.537185
O33   O     O_R   0.820160 0.268410 0.886930 -0.555994
Zn1   Zn    Zn3+2 0.456040 0.586770 0.543190 0.934388
Zn2   Zn    Zn3+2 0.456820 0.413240 0.543960 0.972979
Zn3   Zn    Zn3+2 0.631110 0.586750 0.543190 0.935798
Zn4   Zn    Zn3+2 0.456040 0.413240 0.369660 0.964466
Zn5   Zn    Zn3+2 0.041710 0.413240 0.959030 0.981088
Zn6   Zn    Zn3+2 0.866640 0.413270 0.959030 0.953267
Zn7   Zn    Zn3+2 0.040930 0.586780 0.958260 0.935033
Zn8   Zn    Zn3+2 0.041710 0.586770 0.132560 0.955356

loop_
_geom_bond_atom_site_label_1
_geom_bond_atom_site_label_2
_ccdc_geom_bond_type
C9    H98   S    
C19   H9    S    
C55   C56   A    
C13   C79   S    
O10   Zn6   S    
O16   Zn2   S    
C110  H78   S    
C3    H83   S    
C41   C42   A    
C68   H18   S    
C18   H95   S    
C69   H44   S    
C89   H53   S    
O15   Zn3   S    
C38   C98   S    
C60   C99   S    
C24   H54   S    
C20   C21   S    
C111  H81   S    
C63   C65   A    
C7    H92   S    
C99   O3    A    
C10   H100  S    
C7    C8    S    
C39   C41   A    
C54   C65   S    
C62   H42   S    
O4    Zn4   S    
C92   H56   S    
C16   O13   A    
C46   C102  S    
C26   C27   S    
C103  O20   S    
C14   H5    S    
C22   H14   S    
C83   C84   A    
C76   H1    S    
C23   C29   S    
C11   H104  S    
C23   H19   S    
C78   F7    S    
C2    O20   S    
C106  H67   S    
C56   H39   S    
C8    H94   S    
C28   O14   A    
C38   C39   A    
C111  H80   S    
C2    F2    S    
C78   C80   A    
O9    Zn8   S    
C57   F1    S    
C64   O17   A    
C20   C25   S    
C105  H65   S    
C87   C94   A    
C109  H76   S    
C103  H60   S    
C73   C74   A    
C81   H52   S    
C79   H51   S    
C2    C13   S    
O3    Zn6   S    
C110  C111  S    
C79   C90   S    
O31   Zn8   S    
C8    H97   S    
C33   H27   S    
C10   H101  S    
C111  H79   S    
C16   O29   A    
C73   C80   A    
C66   C72   A    
C90   H62   S    
O29   Zn3   S    
C56   C58   A    
C96   O32   A    
C22   C25   S    
C12   H3    S    
O12   Zn1   S    
O1    Zn1   S    
C27   H23   S    
C107  C108  S    
C101  H84   S    
C108  H71   S    
C70   C71   A    
C89   C91   A    
C103  C104  S    
C9    C10   S    
C37   H30   S    
C46   C88   S    
C81   C86   A    
C77   C78   A    
O8    Zn5   S    
C101  H10   S    
C9    H99   S    
C23   C25   S    
C66   C67   A    
C29   H21   S    
C59   C60   A    
C15   H7    S    
C110  H77   S    
C102  O7    A    
C31   O22   S    
C61   C62   A    
O19   Zn1   S    
C95   O10   A    
C20   H12   S    
C11   H102  S    
C21   H13   S    
C104  C105  S    
C40   O23   A    
C21   C26   S    
C1    O28   A    
C97   O33   A    
C74   O26   S    
C6    C7    S    
O23   Zn4   S    
C45   C47   A    
O17   Zn4   S    
C87   O27   S    
O33   Zn6   S    
C35   C76   S    
C24   C35   S    
C14   H4    S    
C74   C75   A    
C6    O25   S    
C44   H31   S    
O14   Zn2   S    
C4    H85   S    
C82   C96   S    
C84   C85   A    
C100  O24   S    
C70   H45   S    
C11   H103  S    
C91   C92   A    
C93   H57   S    
C77   H50   S    
O18   Zn3   S    
C57   H46   S    
C47   H33   S    
C19   F3    S    
C85   C86   A    
C57   C100  S    
O30   Zn7   S    
C15   H6    S    
C34   H28   S    
C81   C82   A    
C76   C88   S    
C60   C61   A    
C51   C53   A    
C18   C101  S    
C105  H66   S    
C37   C43   A    
C46   C68   S    
C37   C38   A    
C59   H41   S    
C28   O12   A    
C5    H87   S    
C75   C77   A    
C75   C86   S    
C47   C48   A    
C98   O9    A    
C97   O8    A    
C107  H69   S    
C62   C63   A    
C17   C18   S    
C96   O11   A    
C55   O25   S    
C91   H55   S    
O13   Zn1   S    
C51   C58   A    
C7    H93   S    
C106  O21   S    
C4    H86   S    
C67   F6    S    
O1    Zn3   S    
C39   C50   S    
C35   C64   S    
C58   H36   S    
C6    H90   S    
O1    Zn4   S    
C61   C72   S    
C48   C49   A    
O30   Zn5   S    
C82   C83   A    
C22   C27   S    
O6    Zn7   S    
C46   C57   S    
C24   H58   S    
O11   Zn7   S    
C52   O18   A    
C42   C43   A    
C27   H16   S    
C41   F5    S    
O1    Zn2   S    
C3    C4    S    
C79   H40   S    
C5    H89   S    
C44   C45   A    
C30   H25   S    
C98   O2    A    
O5    Zn8   S    
C44   C50   A    
C26   C95   S    
C29   H20   S    
C48   H34   S    
C54   C55   A    
C73   H49   S    
O7    Zn5   S    
C9    O26   S    
C2    C19   S    
O32   Zn5   S    
C49   H35   S    
C31   C32   A    
O2    Zn7   S    
C17   C90   S    
C3    O24   S    
C88   H15   S    
C12   C14   S    
C4    C5    S    
C8    H96   S    
C52   C63   S    
C18   F4    S    
C99   O6    A    
C22   H22   S    
C6    H91   S    
C53   C54   A    
C21   O21   S    
C64   O19   A    
O30   Zn8   S    
C100  H29   S    
C33   C34   A    
C93   C94   A    
C12   O27   S    
C30   C36   A    
C15   H8    S    
C108  H74   S    
C76   H2    S    
C32   C33   A    
C45   H32   S    
C87   C89   A    
C36   H24   S    
C106  H68   S    
C71   C72   A    
C25   C40   S    
C109  C110  S    
C59   C65   A    
C5    H88   S    
C83   C94   S    
O28   Zn2   S    
C12   H105  S    
C30   C31   A    
C90   H73   S    
C17   C97   S    
C84   F8    S    
C23   H17   S    
C107  H70   S    
C92   C93   A    
C17   C19   S    
C32   C43   S    
C51   H37   S    
C66   H43   S    
C109  H75   S    
C34   C36   A    
C103  H59   S    
C105  H64   S    
C53   H38   S    
C69   C70   A    
C10   C11   S    
C24   C68   S    
C104  H61   S    
C1    O4    A    
C1    C42   S    
C104  H63   S    
O30   Zn6   S    
C109  O22   S    
C26   C29   S    
C40   O15   A    
C49   C50   A    
C106  C107  S    
C13   C16   S    
C28   C85   S    
C102  O5    A    
C3    H82   S    
C88   H26   S    
C14   C15   S    
C108  H72   S    
C71   H47   S    
C20   H11   S    
C67   C69   A    
C52   O16   A    
C13   C101  S    
C95   O31   A    
C80   H48   S    
C68   F9    S    
C35   C100  S    
