data_mof_unit_2182.cif
_audit_creation_date              2012-10-26T19:21:33-0400
_audit_creation_method            fapswitch 2.2
_symmetry_space_group_name_H-M    P1
_symmetry_Int_Tables_number       1
_space_group_crystal_system       triclinic
_cell_length_a                    9.802669
_cell_length_b                    11.045867
_cell_length_c                    15.873769
_cell_angle_alpha                 94.736033
_cell_angle_beta                  79.118931
_cell_angle_gamma                 111.278369
_cell_volume                      1572.64125196

loop_
_atom_site_label
_atom_site_type_symbol
_atom_type_description
_atom_site_fract_x
_atom_site_fract_y
_atom_site_fract_z
_atom_type_partial_charge
C1    C     C_R   0.556133 0.745406 0.506184 0.563940
C2    C     C_2   0.515676 0.069459 0.501582 -0.152549
C3    C     C_2   0.923270 0.490306 0.492511 -0.019584
C4    C     C_2   0.076729 0.509694 0.507489 -0.019585
C5    C     C_R   0.411098 0.486196 0.662784 0.550055
C6    C     C_R   0.588902 0.513803 0.337215 0.550054
C7    C     C_R   0.357842 0.475187 0.755952 -0.008572
C8    C     C_R   0.642157 0.524814 0.244047 -0.008571
C9    C     C_R   0.160779 0.426613 0.878929 -0.069801
C10   C     C_R   0.839219 0.573401 0.121070 -0.069808
C11   C     C_R   0.207941 0.445188 0.790964 -0.106026
C12   C     C_R   0.443867 0.254594 0.493816 0.563940
C13   C     C_R   0.792059 0.554822 0.209035 -0.106026
C14   C     C_R   0.460637 0.493481 0.810367 -0.124007
C15   C     C_R   0.539360 0.506515 0.189633 -0.124006
C16   C     C_R   0.417688 0.483175 0.899927 0.014779
C17   C     C_R   0.582307 0.516828 0.100074 0.014779
C18   C     C_R   0.263087 0.439300 0.933977 0.028067
C19   C     C_R   0.736908 0.560709 0.066024 0.028068
C20   C     C_R   0.524569 0.512173 0.955597 0.004955
C21   C     C_R   0.475426 0.487831 0.044404 0.004954
C22   C     C_2   0.055965 0.344898 0.060063 0.549952
C23   C     C_R   0.320902 0.431398 0.074712 -0.127228
C24   C     C_2   0.944028 0.655118 0.939938 0.549949
C25   C     C_R   0.679093 0.568611 0.925289 -0.127227
C26   C     C_R   0.215152 0.408894 0.021690 0.055146
C27   C     C_R   0.784842 0.591117 0.978311 0.055153
C28   C     C_2   0.587787 0.884548 0.509558 -0.120459
C29   C     C_2   0.412213 0.115452 0.490442 -0.120459
C30   C     C_2   0.484324 0.930541 0.498418 -0.152550
Cu1   Cu    Cu3+1 0.362980 0.479380 0.485080 0.952544
Cu2   Cu    Cu3+1 0.637020 0.520620 0.514920 0.952545
H1    H     H_    0.426023 0.488761 0.219255 0.134194
H2    H     H_    0.375492 0.865510 0.486842 0.158794
H3    H     H_    0.303593 0.050139 0.478841 0.108314
H4    H     H_    0.696407 0.949861 0.521159 0.108314
H5    H     H_    0.121988 0.577279 0.557441 0.153189
H6    H     H_    0.878012 0.422721 0.442559 0.153191
H7    H     H_    0.111650 0.384922 0.415514 0.211638
H8    H     H_    0.888350 0.615078 0.584486 0.211637
H9    H     H_    0.855652 0.210239 0.048560 0.348362
H10   H     H_    0.144331 0.789794 0.951440 0.348361
H11   H     H_    0.573973 0.511225 0.780746 0.134195
H12   H     H_    0.873375 0.566859 0.249711 0.151940
H13   H     H_    0.126626 0.433155 0.750288 0.151940
H14   H     H_    0.043716 0.403531 0.903049 0.182267
H15   H     H_    0.956282 0.596490 0.096950 0.182249
H16   H     H_    0.277972 0.397895 0.139520 0.136495
H17   H     H_    0.722021 0.602120 0.860482 0.136488
H18   H     H_    0.624508 0.134490 0.513158 0.158794
N1    N     N_2   0.842890 0.551600 0.537350 -0.353031
N2    N     N_2   0.157110 0.448400 0.462650 -0.353031
O1    O     O_R   0.426810 0.668300 0.492040 -0.496281
O2    O     O_R   0.960348 0.246571 0.015005 -0.698410
O3    O     O_2   0.989861 0.625933 0.866913 -0.548348
O4    O     O_R   0.039634 0.753461 0.984992 -0.698403
O5    O     O_R   0.573190 0.331700 0.507960 -0.496281
O6    O     O_R   0.658240 0.703130 0.517240 -0.486758
O7    O     O_R   0.341760 0.296870 0.482760 -0.486758
O8    O     O_R   0.319390 0.472820 0.610170 -0.497254
O9    O     O_R   0.680610 0.527180 0.389830 -0.497253
O10   O     O_R   0.550820 0.507640 0.635370 -0.496318
O11   O     O_R   0.449180 0.492360 0.364630 -0.496317
O12   O     O_2   0.010142 0.374069 0.133094 -0.548342

loop_
_geom_bond_atom_site_label_1
_geom_bond_atom_site_label_2
_ccdc_geom_bond_type
C6    O11   A    
Cu2   O9    S    
C1    C28   S    
C6    C8    S    
C5    C7    S    
Cu2   N1    S    
C8    C13   A    
C14   C16   A    
C12   C29   S    
C24   O4    S    
H8    N1    S    
C19   C27   A    
C5    O8    A    
C29   H3    S    
Cu1   Cu2   S    
C18   C26   A    
C24   C27   S    
Cu2   O6    S    
C10   C19   A    
C16   C20   A    
C28   C30   D    
H7    N2    S    
Cu2   O10   S    
C9    H14   S    
C22   O2    S    
C1    O6    A    
Cu1   O1    S    
C24   O3    D    
C7    C11   A    
C9    C11   A    
Cu2   O5    S    
C4    N2    D    
C2    C29   D    
C12   O5    A    
C6    O9    A    
C17   C19   A    
C5    O10   A    
C8    C15   A    
Cu1   N2    S    
C21   C23   A    
C25   H17   S    
H9    O2    S    
C11   H13   S    
C25   C27   A    
C20   C25   A    
C30   H2    S    
C22   O12   D    
C3    C4    S    
Cu1   O11   S    
C9    C18   A    
C2    C30   S    
C20   C21   A    
C28   H4    S    
C16   C18   A    
C22   C26   S    
C23   C26   A    
Cu1   O7    S    
C10   H15   S    
C15   C17   A    
C1    O1    A    
C14   H11   S    
C3    N1    D    
C23   H16   S    
C2    H18   S    
Cu1   O8    S    
H10   O4    S    
C13   H12   S    
C12   O7    A    
C15   H1    S    
C7    C14   A    
C17   C21   A    
C3    H6    S    
C4    H5    S    
C10   C13   A    
