data_mof_unit_2857.cif
_audit_creation_date              2012-12-10T17:40:01-0500
_audit_creation_method            fapswitch 2.2
_symmetry_space_group_name_H-M    P1
_symmetry_Int_Tables_number       1
_space_group_crystal_system       triclinic
_cell_length_a                    12.200294
_cell_length_b                    12.65387
_cell_length_c                    27.61884
_cell_angle_alpha                 94.640053
_cell_angle_beta                  87.420957
_cell_angle_gamma                 96.192685
_cell_volume                      4222.21757204

loop_
_atom_site_label
_atom_site_type_symbol
_atom_type_description
_atom_site_fract_x
_atom_site_fract_y
_atom_site_fract_z
_atom_type_partial_charge
C1    C     C_R   0.523215 0.699076 0.493456 0.882511
C2    C     C_R   0.421549 0.555825 0.132261 -0.013085
C3    C     C_R   0.709493 0.623035 0.214753 -0.189230
C4    C     C_R   0.357624 0.321050 0.741963 0.168902
C5    C     C_R   0.271451 0.344846 0.775176 -0.193703
C6    C     C_R   0.206970 0.263028 0.797502 -0.134069
C7    C     C_R   0.227468 0.157004 0.786601 -0.122002
C8    C     C_R   0.312570 0.132616 0.753379 -0.174757
C9    C     C_R   0.377756 0.214214 0.731256 -0.057405
C10   C     C_R   0.638946 0.183341 0.557041 0.156140
C11   C     C_R   0.747863 0.218346 0.542416 -0.101179
C12   C     C_R   0.825324 0.257157 0.577020 -0.165910
C13   C     C_R   0.497712 0.491393 0.645540 -0.060762
C14   C     C_R   0.794996 0.261366 0.626479 -0.125687
C15   C     C_R   0.687052 0.227256 0.641401 -0.113557
C16   C     C_R   0.609735 0.187505 0.606911 -0.185680
C17   C     C_R   0.361342 0.814912 0.441497 0.156934
C18   C     C_R   0.390684 0.809651 0.391631 -0.186677
C19   C     C_R   0.313095 0.770255 0.357205 -0.110513
C20   C     C_R   0.204825 0.737571 0.372186 -0.123634
C21   C     C_R   0.174505 0.742511 0.421655 -0.169432
C22   C     C_R   0.252258 0.780774 0.456205 -0.101694
C23   C     C_R   0.499831 0.500313 0.354237 -0.087784
C24   C     C_R   0.427625 0.562567 0.030095 0.055183
C25   C     C_R   0.519931 0.400033 0.970579 0.041715
C26   C     C_R   0.503191 0.389243 0.021097 0.004859
C27   C     C_R   0.442960 0.572831 0.979337 0.039006
C28   C     C_R   0.465706 0.475278 0.050911 0.034910
C29   C     C_R   0.483470 0.487956 0.949581 0.037618
C30   C     C_R   0.368700 0.633131 0.060548 -0.242933
C31   C     C_R   0.476749 0.300584 0.506134 0.878454
C32   C     C_R   0.581397 0.330420 0.941026 -0.297526
C33   C     C_R   0.367914 0.632789 0.110973 0.124667
C34   C     C_R   0.588242 0.332821 0.890741 0.144268
C35   C     C_R   0.500064 0.498088 0.593370 0.879880
C36   C     C_R   0.499895 0.501856 0.406659 0.873081
C37   C     C_R   0.430017 0.668864 0.957710 0.023533
C38   C     C_R   0.515902 0.293207 0.043038 0.032034
C39   C     C_R   0.460855 0.188214 0.516030 -0.145684
C40   C     C_R   0.539217 0.810823 0.482653 -0.146512
C41   C     C_R   0.648506 0.978192 0.498858 -0.249486
C42   C     C_R   0.490519 0.492037 0.898501 -0.117946
C43   C     C_R   0.351870 0.020896 0.499025 -0.249506
C44   C     C_R   0.643277 0.869775 0.485098 0.086699
C45   C     C_R   0.356881 0.129157 0.513010 0.087260
C46   C     C_R   0.445530 0.863265 0.476529 -0.098146
C47   C     C_R   0.554691 0.135617 0.521882 -0.098654
C48   C     C_R   0.449062 0.971010 0.492454 0.085528
C49   C     C_R   0.551274 0.028070 0.505604 0.084637
C50   C     C_R   0.944869 0.396728 0.452948 -0.037866
C51   C     C_R   0.054863 0.602433 0.547539 -0.039339
C52   C     C_R   0.833610 0.415873 0.454142 0.059807
C53   C     C_R   0.465206 0.473660 0.102001 -0.111011
C54   C     C_R   0.166349 0.583711 0.546042 0.059074
C55   C     C_R   0.861529 0.535293 0.524670 0.043310
C56   C     C_R   0.138239 0.464621 0.475400 0.047117
C57   C     C_R   0.978733 0.535490 0.518245 -0.019453
C58   C     C_R   0.021044 0.464006 0.482095 -0.019319
C59   C     C_R   0.440285 0.568970 0.826478 0.533382
C60   C     C_R   0.529213 0.402036 0.172675 0.479664
C61   C     C_R   0.538611 0.415108 0.818058 0.537182
C62   C     C_R   0.430345 0.555510 0.182817 0.535630
C63   C     C_R   0.426785 0.407643 0.718394 -0.011753
C64   C     C_R   0.450475 0.577211 0.877155 -0.085361
C65   C     C_R   0.562794 0.571344 0.277548 0.011276
C66   C     C_R   0.432115 0.408390 0.667539 0.012601
C67   C     C_R   0.563843 0.578359 0.328601 0.013237
C68   C     C_R   0.552461 0.574725 0.673814 -0.292415
C69   C     C_R   0.440755 0.414311 0.329604 -0.214508
C70   C     C_R   0.547976 0.574859 0.724185 0.142850
C71   C     C_R   0.436798 0.407145 0.279468 0.128585
C72   C     C_R   0.485777 0.491275 0.746568 0.224936
C73   C     C_R   0.497876 0.485652 0.253037 0.188882
C74   C     C_R   0.183363 0.412693 0.429879 0.217190
C75   C     C_R   0.508977 0.389960 0.122820 -0.091585
C76   C     C_R   0.165495 0.453827 0.385404 -0.137191
C77   C     C_R   0.170252 0.389740 0.341818 -0.141361
C78   C     C_R   0.192715 0.283823 0.342251 -0.120416
C79   C     C_R   0.216525 0.243998 0.385855 -0.199072
C80   C     C_R   0.211962 0.308408 0.429308 -0.094805
C81   C     C_R   0.815664 0.587961 0.569776 0.216389
C82   C     C_R   0.786320 0.691858 0.569759 -0.085395
C83   C     C_R   0.777126 0.755793 0.613103 -0.180574
C84   C     C_R   0.798869 0.716544 0.657087 -0.157904
C85   C     C_R   0.823559 0.611352 0.657952 -0.155138
C86   C     C_R   0.427414 0.669328 0.906733 -0.032269
C87   C     C_R   0.831500 0.547215 0.614537 -0.121878
C88   C     C_R   0.231402 0.623663 0.589056 0.191223
C89   C     C_R   0.213276 0.568831 0.631522 -0.181756
C90   C     C_R   0.263039 0.609752 0.674672 -0.111460
C91   C     C_R   0.330893 0.706054 0.675987 -0.100473
C92   C     C_R   0.348337 0.761919 0.634266 -0.193759
C93   C     C_R   0.297477 0.721965 0.591219 -0.118034
C94   C     C_R   0.769149 0.376462 0.410870 0.191231
C95   C     C_R   0.789315 0.430911 0.368381 -0.180252
C96   C     C_R   0.740459 0.390350 0.324979 -0.121019
C97   C     C_R   0.525850 0.295660 0.093636 0.006161
C98   C     C_R   0.671299 0.294852 0.323447 -0.098735
C99   C     C_R   0.651803 0.239324 0.365189 -0.188465
C100  C     C_R   0.701888 0.278824 0.408473 -0.121660
C101  C     C_R   0.419012 0.772029 0.885308 0.198633
C102  C     C_R   0.318752 0.817608 0.887855 -0.122359
C103  C     C_R   0.313042 0.916543 0.869398 -0.142356
C104  C     C_R   0.407139 0.970262 0.848309 -0.124192
C105  C     C_R   0.506782 0.924653 0.845088 -0.157391
C106  C     C_R   0.512899 0.825866 0.863523 -0.119988
C107  C     C_R   0.533622 0.193404 0.115553 0.238543
C108  C     C_R   0.538544 0.411430 0.868759 -0.013856
C109  C     C_R   0.443013 0.146528 0.142259 -0.130670
C110  C     C_R   0.446962 0.046899 0.160213 -0.155623
C111  C     C_R   0.540984 0.993256 0.151425 -0.117630
C112  C     C_R   0.631833 0.039754 0.125220 -0.143251
C113  C     C_R   0.628266 0.139496 0.107216 -0.118929
C114  C     C_R   0.629623 0.653041 0.249967 0.165983
C115  C     C_R   0.613833 0.761419 0.258891 -0.064456
C116  C     C_R   0.677322 0.838369 0.233153 -0.177783
C117  C     C_R   0.755951 0.807763 0.197923 -0.116519
C118  C     C_R   0.771980 0.700180 0.188719 -0.133185
H1    H     H_    0.593739 0.642276 0.656619 0.172968
H2    H     H_    0.738038 0.799799 0.433056 0.185741
H3    H     H_    0.137172 0.531500 0.384989 0.125240
H4    H     H_    0.152316 0.420884 0.308017 0.143796
H5    H     H_    0.192726 0.232947 0.308833 0.150975
H6    H     H_    0.234010 0.162027 0.386297 0.146891
H7    H     H_    0.217468 0.273432 0.462795 0.172852
H8    H     H_    0.782946 0.726808 0.536093 0.169635
H9    H     H_    0.758295 0.837280 0.612314 0.143216
H10   H     H_    0.795720 0.767447 0.690417 0.129192
H11   H     H_    0.840338 0.580666 0.692007 0.138067
H12   H     H_    0.400311 0.350823 0.349750 0.178711
H13   H     H_    0.860203 0.469769 0.615422 0.122694
H14   H     H_    0.159318 0.494964 0.631271 0.115009
H15   H     H_    0.248938 0.566806 0.707097 0.152105
H16   H     H_    0.369636 0.737554 0.709371 0.167459
H17   H     H_    0.399903 0.837200 0.635473 0.134493
H18   H     H_    0.308713 0.769220 0.560391 0.128507
H19   H     H_    0.844351 0.504112 0.368793 0.114497
H20   H     H_    0.756241 0.432984 0.292531 0.146448
H21   H     H_    0.633108 0.263719 0.289889 0.171768
H22   H     H_    0.599243 0.164623 0.363825 0.136888
H23   H     H_    0.728445 0.022898 0.503108 0.140149
H24   H     H_    0.689106 0.231638 0.439271 0.129901
H25   H     H_    0.930004 0.236953 0.436019 0.173712
H26   H     H_    0.962372 0.310836 0.387810 0.207988
H27   H     H_    0.036882 0.686126 0.613214 0.208488
H28   H     H_    0.069011 0.761842 0.565557 0.174732
H29   H     H_    0.690182 0.658089 0.745980 0.172064
H30   H     H_    0.583428 0.732456 0.742947 0.188860
H31   H     H_    0.417130 0.269890 0.235886 0.220939
H32   H     H_    0.315910 0.351543 0.232958 0.178100
H33   H     H_    0.245644 0.776940 0.904455 0.116443
H34   H     H_    0.271970 0.976219 0.494646 0.140219
H35   H     H_    0.235879 0.951905 0.871720 0.122668
H36   H     H_    0.403078 0.047410 0.834658 0.146526
H37   H     H_    0.579472 0.966231 0.828637 0.130099
H38   H     H_    0.590821 0.791722 0.861312 0.121495
H39   H     H_    0.368887 0.186468 0.148466 0.108379
H40   H     H_    0.376663 0.010723 0.180463 0.133699
H41   H     H_    0.543000 0.915347 0.164625 0.149224
H42   H     H_    0.704579 0.998038 0.118465 0.125015
H43   H     H_    0.698476 0.174228 0.086394 0.112477
H44   H     H_    0.584351 0.700379 0.380719 0.165243
H45   H     H_    0.319378 0.687912 0.045908 0.162457
H46   H     H_    0.693978 0.629727 0.370584 0.206500
H47   H     H_    0.417735 0.294881 0.611448 0.166990
H48   H     H_    0.305733 0.362109 0.622796 0.208123
H49   H     H_    0.552153 0.786187 0.285623 0.128183
H50   H     H_    0.665124 0.921733 0.240338 0.136609
H51   H     H_    0.804558 0.867425 0.177823 0.123174
H52   H     H_    0.833207 0.676589 0.161556 0.132755
H53   H     H_    0.723884 0.540166 0.207708 0.155414
H54   H     H_    0.253879 0.426522 0.783557 0.146942
H55   H     H_    0.140860 0.281804 0.823146 0.132716
H56   H     H_    0.627764 0.274576 0.956533 0.146683
H57   H     H_    0.177449 0.093742 0.803891 0.123806
H58   H     H_    0.328438 0.050483 0.744975 0.134177
H59   H     H_    0.444288 0.194290 0.706042 0.125023
H60   H     H_    0.347828 0.786801 0.131366 0.182299
H61   H     H_    0.229733 0.703336 0.130327 0.171231
H62   H     H_    0.727331 0.261646 0.874197 0.173898
H63   H     H_    0.608862 0.179125 0.869909 0.172313
H64   H     H_    0.365492 0.805937 0.982601 0.176929
H65   H     H_    0.505236 0.817824 0.975021 0.194716
H66   H     H_    0.449681 0.192797 0.986205 0.202652
H67   H     H_    0.188261 0.123545 0.520985 0.168582
H68   H     H_    0.570435 0.158648 0.007933 0.172319
H69   H     H_    0.774431 0.213218 0.504686 0.097601
H70   H     H_    0.909108 0.283559 0.565473 0.130817
H71   H     H_    0.855183 0.291148 0.653239 0.127280
H72   H     H_    0.663620 0.230281 0.679720 0.159581
H73   H     H_    0.527523 0.157554 0.619122 0.122988
H74   H     H_    0.473146 0.838688 0.379351 0.122289
H75   H     H_    0.336543 0.766521 0.318885 0.158760
H76   H     H_    0.144415 0.708163 0.345468 0.128304
H77   H     H_    0.090513 0.717034 0.433248 0.130431
H78   H     H_    0.259347 0.194017 0.565405 0.188183
H79   H     H_    0.225795 0.786356 0.493957 0.098603
H80   H     H_    0.811595 0.875900 0.475126 0.168874
N1    N     N_R   0.486179 0.490409 0.798354 -0.340035
N2    N     N_3   0.367798 0.320838 0.256180 -0.484918
N3    N     N_3   0.632334 0.662830 0.353707 -0.475617
N4    N     N_3   0.367108 0.327094 0.638957 -0.475799
N5    N     N_3   0.312307 0.711337 0.139943 -0.391863
N6    N     N_3   0.646260 0.254781 0.862621 -0.391136
N7    N     N_3   0.436456 0.768688 0.986867 -0.468248
N8    N     N_3   0.495746 0.189957 0.016978 -0.469020
N9    N     N_R   0.487290 0.481956 0.201489 -0.344706
N10   N     N_R   0.207800 0.519340 0.508990 -0.146037
N11   N     N_R   0.792200 0.480660 0.491010 -0.145856
N12   N     N_3   0.258238 0.177209 0.527772 -0.465227
N13   N     N_3   0.741620 0.821170 0.470337 -0.464714
N14   N     N_3   0.977420 0.304652 0.424361 -0.454969
N15   N     N_3   0.021891 0.693538 0.576756 -0.454892
N16   N     N_3   0.605757 0.660179 0.753205 -0.447941
O1    O     O_R   0.421700 0.658820 0.502400 -0.617140
O2    O     O_2   0.592300 0.336394 0.192215 -0.602359
O3    O     O_2   0.383994 0.628237 0.213332 -0.566792
O4    O     O_2   0.589774 0.344326 0.788343 -0.566062
O5    O     O_R   0.578300 0.341180 0.497600 -0.617091
O6    O     O_R   0.609310 0.646410 0.496630 -0.612030
O7    O     O_R   0.390690 0.353590 0.503370 -0.611789
O8    O     O_R   0.406200 0.506190 0.574130 -0.614334
O9    O     O_R   0.593800 0.493810 0.425870 -0.612621
O10   O     O_R   0.593820 0.493770 0.568360 -0.607267
O11   O     O_R   0.406180 0.506230 0.431640 -0.608049
O12   O     O_2   0.383655 0.637425 0.805186 -0.585912
Zn1   Zn    Zn3+2 0.374730 0.508290 0.503850 0.947464
Zn2   Zn    Zn3+2 0.625270 0.491710 0.496150 0.948053

loop_
_geom_bond_atom_site_label_1
_geom_bond_atom_site_label_2
_ccdc_geom_bond_type
C84   H10   S    
C36   O11   A    
C29   C42   A    
C27   C29   A    
C65   C114  S    
C23   C69   A    
C22   H79   S    
C111  C112  A    
C24   C27   A    
H29   N16   S    
C109  H39   S    
C61   N1    A    
C81   C82   A    
C90   C91   A    
H66   N8    S    
C7    C8    A    
C47   C49   A    
C100  H24   S    
C77   C78   A    
C40   C46   A    
C4    C63   S    
C18   H74   S    
C59   C64   A    
C101  C102  A    
C89   H14   S    
C74   C76   A    
C11   H69   S    
C76   H3    S    
O8    Zn1   S    
C92   C93   A    
C16   H73   S    
C13   C35   S    
C68   H1    S    
C96   H20   S    
C5    C6    A    
C80   H7    S    
C118  H52   S    
C87   H13   S    
C15   C16   A    
C23   C36   S    
C75   C97   A    
C65   C73   A    
C116  C117  A    
O6    Zn2   S    
C18   C19   A    
H48   N4    S    
C23   C67   A    
C69   C71   A    
C59   O12   S    
C111  H41   S    
C110  C111  A    
C107  C113  A    
C77   H4    S    
C61   C108  A    
C1    C40   S    
C85   H11   S    
C31   O7    A    
C14   H71   S    
C103  H35   S    
C82   H8    S    
C95   C96   A    
C59   N1    A    
C69   H12   S    
C65   C67   A    
C7    H57   S    
C1    O1    A    
C50   C52   A    
C52   C94   S    
C51   C57   A    
N11   Zn2   S    
O5    Zn2   S    
C55   C81   S    
C38   N8    S    
C43   C48   A    
O1    Zn1   S    
C110  H40   S    
C102  H33   S    
C39   C45   A    
H78   N12   S    
C25   C32   A    
C93   H18   S    
H2    N13   S    
C106  H38   S    
C73   N9    S    
C63   C66   A    
C50   N14   S    
C20   H76   S    
C74   C80   A    
H60   N5    S    
C107  C109  A    
C97   C107  S    
C53   C75   A    
C30   H45   S    
C38   C97   A    
O10   Zn2   S    
C64   C86   A    
C104  C105  A    
C3    H53   S    
C114  C115  A    
C6    C7    A    
C31   O5    A    
C13   C66   A    
C85   C87   A    
C25   C29   A    
C46   C48   A    
C95   H19   S    
H64   N7    S    
C56   C74   S    
H68   N8    S    
H44   N3    S    
C50   C58   A    
C62   O3    S    
C37   C86   A    
C71   N2    S    
C45   N12   S    
C84   C85   A    
C78   H5    S    
H46   N3    S    
C35   O8    A    
C34   N6    S    
C91   C92   A    
C71   C73   A    
C90   H15   S    
O9    Zn2   S    
C8    C9    A    
C25   C26   A    
C32   H56   S    
C33   N5    S    
C96   C98   A    
C70   N16   S    
H47   N4    S    
C115  C116  A    
C41   H23   S    
C67   N3    S    
C3    C118  A    
C55   N11   A    
C83   C84   A    
H32   N2    S    
C94   C100  A    
C11   C12   A    
C20   C21   A    
C17   C18   A    
C104  H36   S    
C94   C95   A    
H67   N12   S    
C21   H77   S    
H80   N13   S    
C43   C45   A    
C36   O9    A    
C81   C87   A    
C61   O4    S    
H27   N15   S    
C2    C33   A    
C48   C49   A    
C105  H37   S    
C15   H72   S    
C12   C14   A    
C19   H75   S    
C54   N10   A    
C55   C57   A    
C52   N11   A    
H65   N7    S    
C41   C44   A    
C99   H22   S    
H63   N6    S    
C115  H49   S    
C89   C90   A    
C42   C64   A    
C62   N9    A    
H26   N14   S    
C9    H59   S    
C39   C47   A    
C79   H6    S    
C83   H9    S    
C101  C106  A    
C88   C93   A    
C112  H42   S    
C30   C33   A    
C78   C79   A    
C37   N7    S    
C26   C38   A    
C24   C28   A    
C2    C53   A    
H61   N5    S    
C4    C5    A    
H62   N6    S    
C3    C114  A    
H30   N16   S    
C28   C53   A    
C8    H58   S    
C60   N9    A    
H25   N14   S    
C6    H55   S    
C41   C49   A    
C105  C106  A    
O7    Zn1   S    
C60   C75   A    
C26   C28   A    
C17   C22   A    
C99   C100  A    
C98   H21   S    
C44   N13   S    
C34   C108  A    
C21   C22   A    
C51   C54   A    
C19   C20   A    
C60   O2    S    
C17   C46   S    
C56   N10   A    
N10   Zn1   S    
C10   C16   A    
C35   O10   A    
C72   N1    S    
C54   C88   S    
C76   C77   A    
C86   C101  S    
C51   N15   S    
C57   C58   A    
C91   H16   S    
C92   H17   S    
C27   C37   A    
C63   C72   A    
O11   Zn1   S    
C5    H54   S    
C56   C58   A    
C1    O6    A    
C112  C113  A    
C102  C103  A    
C24   C30   A    
H28   N15   S    
C10   C11   A    
H31   N2    S    
C113  H43   S    
C79   C80   A    
C66   N4    S    
C117  H51   S    
C40   C44   A    
C88   C89   A    
C68   C70   A    
C98   C99   A    
C109  C110  A    
C103  C104  A    
C31   C39   S    
C14   C15   A    
C116  H50   S    
C70   C72   A    
C82   C83   A    
C4    C9    A    
C117  C118  A    
C10   C47   S    
C42   C108  A    
C43   H34   S    
C2    C62   A    
C32   C34   A    
C13   C68   A    
C12   H70   S    
