data_mof_unit_1665.cif
_audit_creation_date              2013-03-05T15:40:24-0500
_audit_creation_method            fapswitch 2.2
_symmetry_space_group_name_H-M    P1
_symmetry_Int_Tables_number       1
_space_group_crystal_system       triclinic
_cell_length_a                    7.195729
_cell_length_b                    11.657229
_cell_length_c                    12.893897
_cell_angle_alpha                 89.999927
_cell_angle_beta                  90.00008
_cell_angle_gamma                 89.999946
_cell_volume                      1081.56923056

loop_
_atom_site_label
_atom_site_type_symbol
_atom_site_description
_atom_site_fract_x
_atom_site_fract_y
_atom_site_fract_z
_atom_type_partial_charge
O1    O     O_R   0.563540 0.856420 0.141290 -0.533055
O2    O     O_R   0.436460 0.143580 0.858710 -0.533054
O3    O     O_R   0.436460 0.143580 0.641290 -0.533040
O4    O     O_R   0.563540 0.856420 0.358710 -0.533041
O5    O     O_R   0.063540 0.643580 0.358710 -0.533060
O6    O     O_R   0.936460 0.356420 0.641290 -0.533073
O7    O     O_R   0.936460 0.356420 0.858710 -0.533044
O8    O     O_R   0.063540 0.643580 0.141290 -0.533048
O9    O     O_R   0.233730 0.870400 0.357990 -0.506754
O10   O     O_R   0.766270 0.129600 0.642010 -0.506758
O11   O     O_R   0.766270 0.129600 0.857990 -0.506740
O12   O     O_R   0.233730 0.870400 0.142010 -0.506741
O13   O     O_R   0.733730 0.629600 0.142010 -0.506749
O14   O     O_R   0.266270 0.370400 0.857990 -0.506747
O15   O     O_R   0.266270 0.370400 0.642010 -0.506735
O16   O     O_R   0.733730 0.629600 0.357990 -0.506730
C1    C     C_R   0.403973 0.897482 0.392476 0.704959
C2    C     C_R   0.596027 0.102518 0.607524 0.704936
C3    C     C_R   0.596027 0.102517 0.892475 0.704993
C4    C     C_R   0.403973 0.897484 0.107525 0.704986
C5    C     C_R   0.903973 0.602518 0.107524 0.704969
C6    C     C_R   0.096027 0.397483 0.892475 0.704975
C7    C     C_R   0.096026 0.397485 0.607527 0.704978
C8    C     C_R   0.903973 0.602516 0.392474 0.705021
O17   O     O_3   0.396920 0.675570 0.250000 -0.352852
O18   O     O_3   0.603080 0.324430 0.750000 -0.352857
O19   O     O_3   0.896920 0.824430 0.250000 -0.352854
O20   O     O_3   0.103080 0.175570 0.750000 -0.352850
V1    V     V_3+5 0.122110 0.763800 0.250000 1.872905
V2    V     V_3+5 0.877890 0.236200 0.750000 1.872886
V3    V     V_3+5 0.622110 0.736200 0.250000 1.872923
V4    V     V_3+5 0.377890 0.263800 0.750000 1.872904
C9    C     C_2   0.917067 0.515576 0.476875 0.106371
C10   C     C_2   0.082933 0.484428 0.523129 0.106361
C11   C     C_2   0.082936 0.484418 0.976880 0.106383
C12   C     C_2   0.917065 0.515583 0.023119 0.106385
C13   C     C_2   0.417065 0.984421 0.023122 0.106374
C14   C     C_2   0.582934 0.015581 0.976879 0.106373
C15   C     C_2   0.582937 0.015584 0.523118 0.106393
C16   C     C_2   0.417064 0.984413 0.476884 0.106394
N1    N     N_R   0.745302 0.464522 0.508668 0.118905
O21   O     O_R   0.688962 0.369637 0.465830 -0.339637
O22   O     O_R   0.650008 0.510266 0.583720 -0.310849
N2    N     N_R   0.254701 0.535475 0.491332 0.118934
O23   O     O_R   0.311000 0.630393 0.534121 -0.339667
O24   O     O_R   0.349971 0.489728 0.416271 -0.310835
N3    N     N_R   0.254712 0.535439 0.008698 0.118941
O25   O     O_R   0.310984 0.630404 0.965984 -0.339689
O26   O     O_R   0.349995 0.489634 0.083724 -0.310842
N4    N     N_R   0.745289 0.464562 0.991301 0.118944
O27   O     O_R   0.689021 0.369595 0.034017 -0.339685
O28   O     O_R   0.650012 0.510361 0.916270 -0.310848
N5    N     N_R   0.245290 0.035448 0.991309 0.118931
O29   O     O_R   0.188987 0.130388 0.034063 -0.339672
O30   O     O_R   0.150018 0.989665 0.916267 -0.310842
N6    N     N_R   0.754707 0.964548 0.008688 0.118931
O31   O     O_R   0.811009 0.869614 0.965923 -0.339669
O32   O     O_R   0.849975 0.010319 0.083738 -0.310847
N7    N     N_R   0.754718 0.964577 0.491290 0.118950
O33   O     O_R   0.810982 0.869592 0.533972 -0.339704
O34   O     O_R   0.849985 0.010397 0.416266 -0.310844
N8    N     N_R   0.245285 0.035426 0.508708 0.118947
O35   O     O_R   0.189015 0.130400 0.466008 -0.339693
O36   O     O_R   0.150019 0.989617 0.583739 -0.310851

loop_
_geom_bond_atom_site_label_1
_geom_bond_atom_site_label_2
_geom_bond_distance
_ccdc_geom_bond_type
O17   V3    1.767839 S    
N4    O28   1.300393 A    
C2    C15   1.490067 S    
C14   N6    1.431744 S    
O18   V4    1.767838 S    
C13   C14   1.382764 D    
C6    C11   1.490069 S    
C3    C14   1.490067 S    
O12   V1    2.031779 S    
O19   V1    1.767837 S    
O7    C6    1.317970 A    
N1    O21   1.301112 A    
O10   V2    2.031780 S    
O6    C7    1.317968 A    
C8    C9    1.490070 S    
O9    V1    2.031779 S    
C7    C10   1.490066 S    
C13   N5    1.431746 S    
O12   C4    1.340923 A    
O15   C7    1.340922 A    
O8    C5    1.317968 A    
C16   N8    1.431747 S    
C15   N7    1.431746 S    
N7    O33   1.301076 A    
O16   C8    1.340924 A    
O7    V2    2.026422 S    
N5    O29   1.301109 A    
N2    O23   1.301085 A    
O16   V3    2.031776 S    
O14   C6    1.340922 A    
C4    C13   1.490068 S    
N1    O22   1.300401 A    
O11   C3    1.340924 A    
N8    O35   1.301085 A    
O5    C8    1.317969 A    
O10   C2    1.340922 A    
O8    V1    2.026423 S    
O2    V4    2.026419 S    
O6    V2    2.026421 S    
N2    O24   1.300398 A    
C9    C10   1.382759 D    
C9    N1    1.431742 S    
O5    V1    2.026421 S    
N5    O30   1.300396 A    
O3    V4    2.026423 S    
N7    O34   1.300391 A    
O4    V3    2.026422 S    
O4    C1    1.317967 A    
O13   C5    1.340924 A    
O1    V3    2.026419 S    
C12   N4    1.431745 S    
N6    O31   1.301109 A    
O3    C2    1.317970 A    
N3    O26   1.300390 A    
O9    C1    1.340923 A    
C15   C16   1.382768 D    
C5    C12   1.490067 S    
C10   N2    1.431740 S    
O1    C4    1.317969 A    
N8    O36   1.300398 A    
N4    O27   1.301091 A    
O2    C3    1.317967 A    
C1    C16   1.490066 S    
O14   V4    2.031779 S    
O13   V3    2.031780 S    
C11   N3    1.431744 S    
N3    O25   1.301074 A    
O11   V2    2.031778 S    
N6    O32   1.300403 A    
O20   V2    1.767837 S    
C11   C12   1.382765 D    
O15   V4    2.031776 S    
