data_mof_unit_1758.cif
_audit_creation_date              2013-03-05T16:33:33-0500
_audit_creation_method            fapswitch 2.2
_symmetry_space_group_name_H-M    P1
_symmetry_Int_Tables_number       1
_space_group_crystal_system       triclinic
_cell_length_a                    10.821285
_cell_length_b                    10.779498
_cell_length_c                    9.587358
_cell_angle_alpha                 89.551945
_cell_angle_beta                  89.957291
_cell_angle_gamma                 90.835037
_cell_volume                      1118.1929541

loop_
_atom_site_label
_atom_site_type_symbol
_atom_site_description
_atom_site_fract_x
_atom_site_fract_y
_atom_site_fract_z
_atom_type_partial_charge
O1    O     O_R   0.500000 0.319640 0.618810 -0.536517
O2    O     O_R   0.500010 0.319680 0.381230 -0.590611
C1    C     C_R   0.497850 0.262657 0.500550 0.804110
O3    O     O_R   0.319650 0.499970 0.618810 -0.544056
O4    O     O_R   0.319660 0.500010 0.381230 -0.585565
C2    C     C_R   0.262469 0.498522 0.499967 0.802286
Cu1   Cu    Cu3+1 0.499990 0.499980 0.640670 1.007683
Cu2   Cu    Cu3+1 0.500010 0.500020 0.359330 0.987810
O5    O     O_R   0.499990 0.680320 0.618770 -0.589743
O6    O     O_R   0.500000 0.680360 0.381190 -0.536384
O7    O     O_R   0.680340 0.499990 0.618770 -0.578647
O8    O     O_R   0.680350 0.500030 0.381190 -0.594785
C3    C     C_R   0.499624 0.737523 0.499849 0.790742
C4    C     C_R   0.737518 0.498251 0.499962 0.784676
C5    C     C_R   0.063755 0.506190 0.623694 0.214988
C6    C     C_R   0.129109 0.488796 0.500271 -0.110430
C7    C     C_R   0.063971 0.456218 0.378769 -0.203892
H1    H     H_    0.112161 0.435706 0.282790 0.179142
C8    C     C_R   0.934995 0.455960 0.378854 -0.210938
H2    H     H_    0.886324 0.435616 0.282846 0.172597
C9    C     C_R   0.870627 0.487772 0.500594 -0.107685
C10   C     C_R   0.936517 0.504695 0.624196 0.134045
C11   C     C_3   0.930903 0.608652 0.725900 -0.500126
C12   C     C_3   0.070970 0.611641 0.723719 -0.422734
H3    H     H_    0.888831 0.693622 0.681035 0.193847
H4    H     H_    0.892587 0.577209 0.827986 0.207872
H5    H     H_    0.110627 0.697644 0.675659 0.190420
H6    H     H_    0.112420 0.584899 0.825325 0.243895
C13   C     C_R   0.553545 0.064636 0.606732 0.199973
C14   C     C_R   0.490463 0.129409 0.503539 -0.092377
C15   C     C_R   0.416334 0.064227 0.408088 -0.170222
H7    H     H_    0.361052 0.113189 0.331904 0.166799
C16   C     C_R   0.416500 0.934623 0.408635 -0.111752
H8    H     H_    0.359995 0.884640 0.334100 0.202847
C17   C     C_R   0.493279 0.870910 0.501928 -0.104308
C18   C     C_R   0.555543 0.936814 0.605729 0.126795
C19   C     C_3   0.689825 0.935176 0.642701 -0.495150
C20   C     C_3   0.686826 0.075613 0.644919 -0.452426
H9    H     H_    0.706980 0.894900 0.747413 0.210635
H10   H     H_    0.748303 0.897762 0.557799 0.198380
H11   H     H_    0.699920 0.114861 0.750863 0.222003
H12   H     H_    0.743930 0.120373 0.561582 0.192475
C21   C     C_R   0.589342 0.563123 0.071978 0.129803
N1    N     N_R   0.500790 0.500930 0.147930 -0.190139
C22   C     C_R   0.419754 0.427483 0.076050 -0.068635
H13   H     H_    0.353935 0.370062 0.133152 0.152469
C23   C     C_R   0.419649 0.426446 0.927554 0.421189
N2    N     N_R   0.500790 0.500890 0.852020 -0.231544
C24   C     C_R   0.591227 0.560457 0.925410 0.130928
C25   C     C_3   0.627617 0.693441 0.912970 -0.503558
C26   C     C_3   0.622030 0.699267 0.071060 0.158051
H14   H     H_    0.722706 0.705893 0.871953 0.150088
H15   H     H_    0.556682 0.750147 0.859624 0.249630
H16   H     H_    0.712471 0.720444 0.121264 0.094168
N3    N     N_R   0.334713 0.345010 0.858884 0.133155
O9    O     O_R   0.217504 0.369374 0.863799 -0.400340
O10   O     O_R   0.367318 0.231103 0.837371 -0.352592
N4    N     N_R   0.522978 0.780910 0.115681 0.160410
O11   O     O_R   0.407530 0.749354 0.097185 -0.360788
O12   O     O_R   0.550529 0.896481 0.140401 -0.367969

loop_
_geom_bond_atom_site_label_1
_geom_bond_atom_site_label_2
_geom_bond_distance
_ccdc_geom_bond_type
C13   C20   1.491528 S    
C1    C14   1.437466 S    
C25   H14   1.107253 S    
C21   N1    1.367676 A    
C15   C16   1.397064 A    
C3    C17   1.440784 S    
C19   C20   1.514977 S    
O4    Cu2   1.962723 S    
C12   H6    1.110510 S    
N4    O12   1.300364 A    
C15   H7    1.083393 S    
C23   N2    1.381583 A    
C12   H5    1.112374 S    
Cu2   O8    1.962886 S    
C14   C15   1.403331 A    
C11   C12   1.515694 S    
C26   H16   1.112445 S    
Cu1   N2    2.026413 S    
N3    O9    1.299892 A    
N3    O10   1.300445 A    
C16   H8    1.082542 S    
Cu1   Cu2   2.697304 S    
C19   H9    1.107518 S    
C26   N4    1.462584 S    
C5    C12   1.494120 S    
C22   H13   1.082314 S    
Cu1   O7    1.962723 S    
C13   C18   1.378449 A    
C21   C26   1.504530 S    
C13   C14   1.391542 A    
O3    Cu1   1.962886 S    
C4    C9    1.446480 S    
Cu2   O6    1.956870 S    
C18   C19   1.496294 S    
C7    C8    1.395656 A    
O8    C4    1.296457 A    
C20   H12   1.112463 S    
C19   H10   1.112412 S    
O2    C1    1.294441 A    
C22   C23   1.423824 A    
C7    H1    1.083239 S    
O4    C2    1.295199 A    
O7    C4    1.296243 A    
O2    Cu2   1.953646 S    
C25   H15   1.110769 S    
C2    C6    1.445405 S    
C5    C6    1.393409 A    
Cu2   N1    2.026724 S    
C11   H3    1.112436 S    
N1    C22   1.363782 A    
C20   H11   1.111734 S    
C23   N3    1.426615 S    
C24   C25   1.484937 S    
C11   H4    1.111222 S    
O1    C1    1.293780 A    
Cu1   O5    1.953649 S    
O5    C3    1.291987 A    
C10   C11   1.493046 S    
N2    C24   1.361945 A    
O1    Cu1   1.956870 S    
C17   C18   1.395397 A    
C25   C26   1.518653 S    
C16   C17   1.403605 A    
N4    O11   1.302606 A    
C9    C10   1.395279 A    
O3    C2    1.297069 A    
C5    C10   1.376742 A    
C21   C24   1.405857 A    
C8    H2    1.083165 S    
C6    C7    1.406246 A    
C8    C9    1.406077 A    
O6    C3    1.298045 A    
