data_mof_unit_20.cif
_audit_creation_date              2012-12-10T16:52:40-0500
_audit_creation_method            fapswitch 2.2
_symmetry_space_group_name_H-M    P1
_symmetry_Int_Tables_number       1
_space_group_crystal_system       triclinic
_cell_length_a                    7.829981
_cell_length_b                    8.62354
_cell_length_c                    13.693757
_cell_angle_alpha                 93.629144
_cell_angle_beta                  92.60502
_cell_angle_gamma                 94.058017
_cell_volume                      919.305781203

loop_
_atom_site_label
_atom_site_type_symbol
_atom_type_description
_atom_site_fract_x
_atom_site_fract_y
_atom_site_fract_z
_atom_type_partial_charge
C1    C     C_R   0.044453 0.794223 0.497747 0.909342
C2    C     C_R   0.937579 0.487131 0.317260 0.865016
C3    C     C_R   0.097496 0.552288 0.787149 -0.118746
C4    C     C_R   0.909731 0.476735 0.210641 -0.113284
C5    C     C_R   0.080420 0.718344 0.935270 -0.229640
C6    C     C_R   0.963371 0.373493 0.047146 -0.229544
C7    C     C_R   0.013166 0.665487 0.841928 -0.002784
C8    C     C_R   0.015690 0.398427 0.145978 -0.005990
C9    C     C_R   0.241733 0.491185 0.827369 -0.286032
C10   C     C_R   0.763212 0.539824 0.174048 -0.271561
C11   C     C_R   0.322730 0.557557 0.914210 0.098295
C12   C     C_R   0.955553 0.205784 0.502350 0.908761
C13   C     C_R   0.710087 0.517438 0.075392 0.091744
C14   C     C_R   0.236366 0.667797 0.970752 0.153396
C15   C     C_R   0.808505 0.426813 0.012505 0.156134
C16   C     C_R   0.488090 0.518294 0.945146 0.070819
C17   C     C_R   0.554883 0.573199 0.039725 0.068683
C18   C     C_1   0.172852 0.335470 0.178821 0.193504
C19   C     C_1   0.863051 0.733625 0.803401 0.191029
C20   C     C_1   0.222354 0.017558 0.568634 0.225798
C21   C     C_1   0.777507 0.982407 0.431644 0.227141
C22   C     C_R   0.464922 0.682428 0.095154 -0.215314
C23   C     C_R   0.591406 0.431049 0.883102 -0.210873
C24   C     C_R   0.308823 0.729314 0.060663 -0.212345
C25   C     C_R   0.749766 0.387854 0.916236 -0.213331
C26   C     C_2   0.066997 0.957240 0.511810 -0.244840
C27   C     C_2   0.932939 0.042754 0.488408 -0.242066
C28   C     C_R   0.063124 0.516349 0.682409 0.864476
H1    H     H_    0.245069 0.814852 0.104415 0.154296
H2    H     H_    0.512402 0.626130 0.572423 0.203413
H3    H     H_    0.825106 0.321025 0.866671 0.152408
H4    H     H_    0.685493 0.597804 0.225742 0.171742
H5    H     H_    0.292913 0.395421 0.786527 0.160519
H6    H     H_    0.015458 0.804043 0.978323 0.141695
H7    H     H_    0.040762 0.308271 0.997756 0.144227
H8    H     H_    0.515347 0.739488 0.163793 0.158129
H9    H     H_    0.556449 0.399086 0.807075 0.162217
H10   H     H_    0.487606 0.373843 0.427602 0.203507
N1    N     N_2   0.440860 0.456490 0.474790 -0.162178
N2    N     N_2   0.559140 0.543510 0.525210 -0.163386
N3    N     N_1   0.299019 0.285127 0.204865 -0.206564
N4    N     N_1   0.742648 0.788216 0.772675 -0.200386
N5    N     N_1   0.345694 0.065029 0.613781 -0.197445
N6    N     N_1   0.654129 0.934886 0.386546 -0.205211
O1    O     O_R   0.891570 0.738930 0.506190 -0.603119
O2    O     O_R   0.108430 0.261070 0.493810 -0.605300
O3    O     O_R   0.174650 0.711050 0.490030 -0.615130
O4    O     O_R   0.825350 0.288950 0.509970 -0.614996
O5    O     O_R   0.909850 0.521900 0.644940 -0.610165
O6    O     O_R   0.090150 0.478100 0.355060 -0.605361
O7    O     O_R   0.192930 0.494020 0.628780 -0.613326
O8    O     O_R   0.807070 0.505980 0.371220 -0.617245
Zn1   Zn    Zn3+2 0.810990 0.518620 0.510790 0.968642
Zn2   Zn    Zn3+2 0.189010 0.481380 0.489210 0.971232

loop_
_geom_bond_atom_site_label_1
_geom_bond_atom_site_label_2
_ccdc_geom_bond_type
C25   H3    S    
C2    C4    S    
C3    C9    A    
C21   N6    T    
C22   H8    S    
C28   O5    A    
C3    C7    A    
C17   C22   A    
C19   N4    T    
C13   C17   A    
C4    C8    A    
O7    Zn2   S    
C5    H6    S    
O2    Zn2   S    
C23   C25   A    
C21   C27   S    
O1    Zn1   S    
C6    H7    S    
C9    H5    S    
C9    C11   A    
C1    O1    A    
C5    C14   A    
O6    Zn2   S    
C2    O8    A    
O3    Zn2   S    
O5    Zn1   S    
C3    C28   S    
C11   C14   A    
C12   O4    A    
C16   C23   A    
C7    C19   S    
C13   C15   A    
C26   C27   D    
O4    Zn1   S    
C28   O7    A    
C22   C24   A    
C1    C26   S    
N1    Zn2   S    
C15   C25   A    
C12   C27   S    
C4    C10   A    
C10   H4    S    
H2    N2    S    
C20   N5    T    
H10   N1    S    
O8    Zn1   S    
C12   O2    A    
N2    Zn1   S    
C11   C16   A    
C18   N3    T    
C14   C24   A    
N1    N2    D    
C5    C7    A    
C24   H1    S    
C1    O3    A    
C6    C8    A    
C2    O6    A    
C6    C15   A    
C23   H9    S    
C8    C18   S    
C16   C17   A    
C20   C26   S    
C10   C13   A    
