data_mof_unit_2976.cif
_audit_creation_date              2012-12-10T17:17:50-0500
_audit_creation_method            fapswitch 2.2
_symmetry_space_group_name_H-M    P1
_symmetry_Int_Tables_number       1
_space_group_crystal_system       triclinic
_cell_length_a                    14.806015
_cell_length_b                    15.917638
_cell_length_c                    9.59141
_cell_angle_alpha                 90.323464
_cell_angle_beta                  90.87315
_cell_angle_gamma                 90.060873
_cell_volume                      2260.17270394

loop_
_atom_site_label
_atom_site_type_symbol
_atom_type_description
_atom_site_fract_x
_atom_site_fract_y
_atom_site_fract_z
_atom_type_partial_charge
C1    C     C_R   0.384612 0.878438 0.499179 0.783882
C2    C     C_R   0.385718 0.122706 0.500892 0.792030
C3    C     C_R   0.884610 0.378440 0.499178 0.783881
C4    C     C_R   0.885717 0.622705 0.500892 0.792023
C5    C     C_R   0.285544 0.222485 0.379512 -0.236587
C6    C     C_R   0.259987 0.799917 0.387502 -0.213252
C7    C     C_R   0.785537 0.722478 0.379511 -0.236594
C8    C     C_R   0.759979 0.299923 0.387508 -0.213260
C9    C     C_R   0.716058 0.780418 0.379592 -0.198136
C10   C     C_R   0.691409 0.240930 0.392421 -0.246185
C11   C     C_R   0.216066 0.280425 0.379594 -0.198082
C12   C     C_R   0.191413 0.740928 0.392415 -0.246204
C13   C     C_R   0.677229 0.806078 0.505127 -0.120019
C14   C     C_R   0.679365 0.192590 0.512281 -0.130810
C15   C     C_R   0.177232 0.306081 0.505128 -0.120063
C16   C     C_R   0.179356 0.692597 0.512286 -0.130828
C17   C     C_R   0.672129 0.975929 0.137754 0.475762
C18   C     C_R   0.172132 0.475936 0.137753 0.475736
C19   C     C_R   0.740135 0.939211 0.056106 -0.314877
C20   C     C_R   0.240140 0.439226 0.056100 -0.314846
C21   C     C_R   0.738298 0.949549 0.914809 -0.257650
C22   C     C_R   0.238303 0.449567 0.914805 -0.257662
C23   C     C_R   0.662144 0.982138 0.852556 -0.154186
C24   C     C_R   0.162146 0.482151 0.852553 -0.154174
C25   C     C_R   0.580717 0.990642 0.925050 0.130752
C26   C     C_R   0.080718 0.490649 0.925050 0.130754
C27   C     C_R   0.582716 0.989312 0.075102 0.102643
C28   C     C_R   0.082717 0.489316 0.075102 0.102630
C29   C     C_R   0.422999 0.009252 0.072243 -0.078400
C30   C     C_R   0.922999 0.509247 0.072243 -0.078395
C31   C     C_R   0.615681 0.121838 0.502789 0.816215
C32   C     C_R   0.613804 0.876886 0.501044 0.800859
C33   C     C_R   0.115678 0.621841 0.502790 0.816239
C34   C     C_R   0.113804 0.376886 0.501044 0.800833
C35   C     C_R   0.423036 0.008904 0.924473 -0.056738
C36   C     C_R   0.923036 0.508898 0.924473 -0.056738
C37   C     C_R   0.335371 0.214607 0.764397 -0.170056
C38   C     C_R   0.384180 0.750054 0.718695 -0.159489
C39   C     C_R   0.835367 0.714604 0.764395 -0.170063
C40   C     C_R   0.884206 0.250039 0.718650 -0.159507
C41   C     C_R   0.290282 0.227100 0.889104 -0.171983
C42   C     C_R   0.369642 0.710411 0.845233 -0.144388
C43   C     C_R   0.790277 0.727094 0.889102 -0.171983
C44   C     C_R   0.869682 0.210383 0.845173 -0.144399
C45   C     C_R   0.701066 0.753485 0.886220 -0.125890
C46   C     C_R   0.785393 0.176698 0.872143 -0.154358
C47   C     C_R   0.201073 0.253493 0.886224 -0.125894
C48   C     C_R   0.285346 0.676734 0.872195 -0.154355
C49   C     C_R   0.660811 0.776909 0.760089 -0.153277
C50   C     C_R   0.718800 0.175568 0.767815 -0.187068
C51   C     C_R   0.160816 0.276914 0.760092 -0.153279
C52   C     C_R   0.218762 0.675597 0.767848 -0.187025
C53   C     C_R   0.708218 0.770563 0.633053 0.087163
C54   C     C_R   0.736051 0.206862 0.632308 0.099505
C55   C     C_R   0.208221 0.270566 0.633055 0.087154
C56   C     C_R   0.236029 0.706879 0.632329 0.099478
C57   C     C_R   0.290425 0.226130 0.634086 0.105003
C58   C     C_R   0.314832 0.755200 0.616129 0.092993
C59   C     C_R   0.790422 0.726128 0.634085 0.104988
C60   C     C_R   0.814848 0.255189 0.616104 0.093015
C61   C     C_R   0.323015 0.193989 0.505395 -0.113562
C62   C     C_R   0.321641 0.807885 0.498705 -0.111994
C63   C     C_R   0.823011 0.693986 0.505394 -0.113555
C64   C     C_R   0.821642 0.307885 0.498699 -0.111997
Cu1   Cu    Cu3+1 0.499990 0.000000 0.640660 0.918526
Cu2   Cu    Cu3+1 0.999990 0.500000 0.640660 0.918530
Cu3   Cu    Cu3+1 0.500010 1.000000 0.359340 0.969380
Cu4   Cu    Cu3+1 0.000010 0.500000 0.359340 0.969382
H1    H     H_    0.310249 0.200342 0.280130 0.157323
H2    H     H_    0.264676 0.839516 0.296378 0.162675
H3    H     H_    0.810240 0.700334 0.280129 0.157328
H4    H     H_    0.764658 0.339531 0.296396 0.162674
H5    H     H_    0.797300 0.935113 0.853735 0.183045
H6    H     H_    0.297305 0.435135 0.853730 0.183041
H7    H     H_    0.670081 0.998536 0.746712 0.216724
H8    H     H_    0.170082 0.498545 0.746707 0.216739
H9    H     H_    0.359779 0.016083 0.867903 0.146822
H10   H     H_    0.859778 0.516074 0.867903 0.146820
H11   H     H_    0.405857 0.197758 0.772475 0.162827
H12   H     H_    0.450128 0.775922 0.701030 0.135469
H13   H     H_    0.905854 0.697756 0.772475 0.162827
H14   H     H_    0.950148 0.275914 0.700979 0.135467
H15   H     H_    0.324179 0.215044 0.987785 0.128151
H16   H     H_    0.422680 0.708687 0.924120 0.129525
H17   H     H_    0.824173 0.715037 0.987782 0.128152
H18   H     H_    0.922727 0.208656 0.924045 0.129533
H19   H     H_    0.664419 0.760040 0.982512 0.131002
H20   H     H_    0.771501 0.150971 0.973846 0.134350
H21   H     H_    0.164427 0.260050 0.982517 0.131001
H22   H     H_    0.271441 0.651016 0.973906 0.134328
H23   H     H_    0.592168 0.798225 0.764930 0.152676
H24   H     H_    0.653406 0.154582 0.799965 0.170516
H25   H     H_    0.092172 0.298230 0.764935 0.152681
H26   H     H_    0.153365 0.654611 0.799990 0.170501
H27   H     H_    0.692392 0.804700 0.280335 0.165536
H28   H     H_    0.647603 0.232900 0.301778 0.162454
H29   H     H_    0.192402 0.304710 0.280336 0.165540
H30   H     H_    0.147616 0.732890 0.301762 0.162450
H31   H     H_    0.359798 0.016735 0.126015 0.131921
H32   H     H_    0.859797 0.516727 0.126015 0.131918
H33   H     H_    0.801926 0.915646 0.102790 0.155254
H34   H     H_    0.301934 0.415664 0.102782 0.155254
N1    N     N_R   0.501200 0.000000 0.147910 -0.188224
N2    N     N_R   0.001200 0.500000 0.147910 -0.188223
N3    N     N_R   0.501270 1.000000 0.852040 -0.195415
N4    N     N_R   0.001270 0.500000 0.852040 -0.195417
O1    O     O_R   0.409820 0.909830 0.618810 -0.579382
O2    O     O_R   0.409820 0.090170 0.618810 -0.593240
O3    O     O_R   0.909820 0.409830 0.618810 -0.579380
O4    O     O_R   0.909820 0.590170 0.618810 -0.593244
O5    O     O_R   0.409840 0.909830 0.381240 -0.586312
O6    O     O_R   0.409840 0.090170 0.381240 -0.588998
O7    O     O_R   0.909840 0.409830 0.381240 -0.586311
O8    O     O_R   0.909840 0.590170 0.381240 -0.589001
O9    O     O_R   0.590170 0.090170 0.618760 -0.630627
O10   O     O_R   0.590170 0.909830 0.618760 -0.622370
O11   O     O_R   0.090170 0.590170 0.618760 -0.630616
O12   O     O_R   0.090170 0.409830 0.618760 -0.622368
O13   O     O_R   0.590190 0.090180 0.381190 -0.523613
O14   O     O_R   0.590190 0.909820 0.381190 -0.528174
O15   O     O_R   0.090190 0.590180 0.381190 -0.523627
O16   O     O_R   0.090190 0.409820 0.381190 -0.528159
O17   O     O_3   0.695993 0.000772 0.272224 -0.543077
C65   C     C_3   0.783004 0.039339 0.283941 0.060860
H35   H     H_    0.776384 0.100128 0.338095 0.174698
H36   H     H_    0.813542 0.056937 0.182798 0.080262
C66   C     C_3   0.848566 0.984249 0.368600 -0.378131
H37   H     H_    0.841554 0.917464 0.336504 0.224924
H38   H     H_    0.918984 0.004161 0.347483 0.177832
C67   C     C_3   0.832866 0.991708 0.525089 -0.794837
H39   H     H_    0.849161 0.056233 0.562293 0.240473
H40   H     H_    0.876874 0.946508 0.581812 0.231949
H41   H     H_    0.761627 0.977511 0.548777 0.259344
O18   O     O_3   0.195996 0.500766 0.272229 -0.543069
C68   C     C_3   0.282996 0.539355 0.283942 0.060908
H42   H     H_    0.276362 0.600140 0.338102 0.174675
H43   H     H_    0.313525 0.556964 0.182796 0.080247
C69   C     C_3   0.348583 0.484281 0.368589 -0.378092
H44   H     H_    0.341611 0.417492 0.336469 0.224875
H45   H     H_    0.418996 0.504232 0.347489 0.177808
C70   C     C_3   0.332873 0.491717 0.525081 -0.794698
H46   H     H_    0.349063 0.556270 0.562288 0.240443
H47   H     H_    0.376968 0.446579 0.581799 0.231917
H48   H     H_    0.261654 0.477411 0.548775 0.259322

loop_
_geom_bond_atom_site_label_1
_geom_bond_atom_site_label_2
_ccdc_geom_bond_type
C34   O12   A    
C68   C69   S    
Cu2   Cu4   S    
C58   C62   A    
C40   C60   A    
C21   H5    S    
C47   H21   S    
C13   C32   S    
C14   C31   S    
C1    C62   S    
C26   N4    A    
C16   C56   A    
C53   C59   A    
C25   N3    A    
C68   H42   S    
C54   C60   A    
C3    C64   S    
C33   O11   A    
C37   H11   S    
C4    C63   S    
C2    O6    A    
C50   C54   A    
C4    O8    A    
C45   H19   S    
C49   H23   S    
C38   C42   A    
C70   H47   S    
C6    C12   A    
C20   H34   S    
C41   H15   S    
C30   H32   S    
C29   N1    A    
C18   C20   A    
C68   H43   S    
Cu1   N3    S    
C9    C13   A    
C5    H1    S    
C38   C58   A    
C52   C56   A    
C11   C15   A    
C17   O17   S    
C12   C16   A    
Cu1   Cu3   S    
Cu2   O11   S    
C52   H26   S    
C45   C49   A    
Cu3   O14   S    
C9    H27   S    
C15   C34   S    
C46   H20   S    
C2    C61   S    
Cu4   O7    S    
C34   O16   A    
C48   H22   S    
C33   O15   A    
Cu1   O9    S    
Cu2   N4    S    
C44   H18   S    
C31   O9    A    
C44   C46   A    
C46   C50   A    
C13   C53   A    
C8    H4    S    
C29   H31   S    
C36   N4    A    
C43   H17   S    
C40   H14   S    
O17   C65   S    
C42   H16   S    
C39   H13   S    
C3    O7    A    
C70   H48   S    
Cu4   O16   S    
C24   H8    S    
C39   C43   A    
Cu3   N1    S    
C35   H9    S    
C32   O10   A    
C60   C64   A    
C17   C27   A    
C67   H40   S    
C66   H38   S    
C35   N3    A    
C16   C33   S    
C28   N2    A    
C10   H28   S    
C39   C59   A    
C41   C47   A    
C18   C28   A    
C42   C48   A    
Cu2   O4    S    
C57   C61   A    
C43   C45   A    
C7    C63   A    
C69   H45   S    
C8    C64   A    
C65   C66   S    
Cu3   O5    S    
C14   C54   A    
C20   C22   A    
C55   C57   A    
C10   C14   A    
Cu1   O10   S    
C22   C24   A    
C67   H41   S    
C22   H6    S    
C40   C44   A    
C66   H37   S    
C65   H36   S    
C50   H24   S    
C6    H2    S    
C4    O4    A    
Cu1   O2    S    
C19   C21   A    
C26   C28   A    
Cu4   N2    S    
C23   H7    S    
C69   C70   S    
Cu4   O15   S    
C47   C51   A    
C5    C11   A    
O18   C68   S    
C25   C27   A    
C29   C35   A    
C59   C63   A    
C51   H25   S    
C30   C36   A    
C11   H29   S    
C6    C62   A    
C21   C23   A    
C67   H39   S    
C66   C67   S    
C36   H10   S    
C70   H46   S    
C1    O5    A    
C7    H3    S    
C19   H33   S    
C24   C26   A    
Cu4   O8    S    
C38   H12   S    
C3    O3    A    
C49   C53   A    
C2    O2    A    
C17   C19   A    
C56   C58   A    
C18   O18   S    
C51   C55   A    
C23   C25   A    
Cu2   O3    S    
C37   C41   A    
C69   H44   S    
C1    O1    A    
C7    C9    A    
Cu3   O6    S    
C48   C52   A    
C32   O14   A    
C8    C10   A    
Cu2   O12   S    
C30   N2    A    
C12   H30   S    
C31   O13   A    
Cu3   O13   S    
C27   N1    A    
Cu1   O1    S    
C37   C57   A    
C5    C61   A    
C15   C55   A    
C65   H35   S    
