data_mof_unit_2027.cif
_audit_creation_date              2013-03-05T16:44:35-0500
_audit_creation_method            fapswitch 2.2
_symmetry_space_group_name_H-M    P1
_symmetry_Int_Tables_number       1
_space_group_crystal_system       triclinic
_cell_length_a                    27.691788
_cell_length_b                    10.68091
_cell_length_c                    9.844719
_cell_angle_alpha                 90.11726
_cell_angle_beta                  89.868263
_cell_angle_gamma                 89.755438
_cell_volume                      2911.76657069

loop_
_atom_site_label
_atom_site_type_symbol
_atom_site_description
_atom_site_fract_x
_atom_site_fract_y
_atom_site_fract_z
_atom_type_partial_charge
O1    O     O_R   0.500010 0.316790 0.614690 -0.639498
O2    O     O_R   0.500000 0.316760 0.385350 -0.634604
C1    C     C_R   0.501015 0.259948 0.499957 0.903815
O3    O     O_R   0.428760 0.500040 0.614660 -0.607016
O4    O     O_R   0.428750 0.500000 0.385310 -0.620036
C2    C     C_R   0.406212 0.500352 0.499881 0.951928
Zn1   Zn    Zn3+2 0.500000 0.500020 0.653130 0.951726
Zn2   Zn    Zn3+2 0.500000 0.499980 0.346870 0.949331
O5    O     O_R   0.500000 0.683240 0.614650 -0.606075
O6    O     O_R   0.499990 0.683210 0.385310 -0.626313
O7    O     O_R   0.571250 0.500000 0.614690 -0.622424
O8    O     O_R   0.571240 0.499960 0.385340 -0.622428
C3    C     C_R   0.501147 0.740060 0.500077 0.915343
C4    C     C_R   0.594000 0.499675 0.499851 0.865048
C5    C     C_R   0.178040 0.378356 0.523781 0.527633
O9    O     O_2   0.202729 0.280761 0.576596 -0.543053
N1    N     N_R   0.202306 0.479161 0.472871 -0.349095
C6    C     C_R   0.178532 0.578833 0.416768 0.521710
C7    C     C_R   0.275544 0.574280 0.563639 -0.123412
C8    C     C_R   0.325601 0.581636 0.570655 0.345650
C9    C     C_R   0.331904 0.403470 0.416897 -0.275536
C10   C     C_R   0.281909 0.397413 0.409297 -0.072980
C11   C     C_R   0.253685 0.482819 0.482689 0.230437
C12   C     C_R   0.102301 0.481677 0.472450 -0.053897
C13   C     C_R   0.127535 0.377410 0.523891 -0.030833
C14   C     C_R   0.101833 0.274593 0.572921 -0.130817
C15   C     C_R   0.128066 0.582123 0.415706 -0.024741
C16   C     C_R   0.353907 0.494862 0.497908 -0.138512
H1    H     H_    0.353514 0.336979 0.359567 0.171803
H2    H     H_    0.265073 0.327301 0.345691 0.165080
H3    H     H_    0.120257 0.190203 0.605506 0.198764
C17   C     C_R   0.646694 0.498290 0.499328 -0.040577
C18   C     C_R   0.975645 0.400277 0.565932 -0.052874
C19   C     C_R   0.975088 0.582687 0.411758 0.071419
C20   C     C_R   0.950076 0.491918 0.489903 0.035056
C21   C     C_R   0.949544 0.327226 0.661927 0.349341
C22   C     C_R   0.899315 0.329473 0.662518 -0.154843
C23   C     C_R   0.873808 0.409566 0.576475 -0.092743
C24   C     C_R   0.899046 0.493729 0.493039 -0.052388
C25   C     C_R   0.873171 0.580174 0.413227 -0.004250
C26   C     C_R   0.822693 0.579533 0.417005 0.510971
N2    N     N_R   0.798925 0.495153 0.496816 -0.355369
C27   C     C_R   0.823281 0.411101 0.575998 0.537917
C28   C     C_R   0.722398 0.525514 0.617487 -0.093495
C29   C     C_R   0.672226 0.526304 0.618477 -0.216295
C30   C     C_R   0.671890 0.468549 0.379609 -0.214584
C31   C     C_R   0.722041 0.466529 0.379265 -0.092998
C32   C     C_R   0.747372 0.495431 0.497988 0.301468
O10   O     O_2   0.798612 0.328664 0.653039 -0.553507
C33   C     C_R   0.026031 0.388155 0.544567 0.061809
C34   C     C_R   0.051313 0.485497 0.478039 0.077272
C35   C     C_R   0.026100 0.585983 0.416368 0.051512
C36   C     C_R   0.051772 0.278985 0.580353 -0.130693
H4    H     H_    0.653487 0.549988 0.711808 0.165836
H5    H     H_    0.741941 0.548640 0.709270 0.152523
H6    H     H_    0.880258 0.271395 0.734956 0.223076
H7    H     H_    0.033580 0.194055 0.609530 0.198561
O11   O     O_2   0.203766 0.674404 0.362446 -0.538907
C37   C     C_R   0.103043 0.684138 0.361297 -0.118152
H8    H     H_    0.253434 0.641172 0.618821 0.183153
H9    H     H_    0.122105 0.763325 0.318721 0.195854
C38   C     C_R   0.948129 0.666787 0.331008 -0.198585
C39   C     C_R   0.898059 0.665205 0.331705 -0.121566
O12   O     O_2   0.797475 0.663236 0.342618 -0.555103
C40   C     C_R   0.052918 0.685990 0.360912 -0.205191
H10   H     H_    0.964792 0.732753 0.262904 0.152298
H11   H     H_    0.652902 0.445850 0.286753 0.162250
H12   H     H_    0.878921 0.731318 0.267921 0.195069
H13   H     H_    0.741305 0.442634 0.286863 0.151840
H14   H     H_    0.036130 0.769055 0.320251 0.151001
C41   C     C_R   0.507820 0.063860 0.622992 0.034922
C42   C     C_R   0.507674 0.128471 0.500269 -0.052984
C43   C     C_R   0.516437 0.064333 0.378162 -0.218503
H15   H     H_    0.520016 0.112998 0.282223 0.161622
C44   C     C_R   0.516588 0.934974 0.378230 -0.209085
H16   H     H_    0.520159 0.885888 0.282283 0.166094
C45   C     C_R   0.508110 0.871394 0.500474 -0.057153
C46   C     C_R   0.508386 0.936380 0.623109 0.037049
C47   C     C_3   0.475474 0.928824 0.743434 -0.481864
C48   C     C_3   0.475127 0.071147 0.744366 0.335890
H17   H     H_    0.440009 0.886362 0.718070 0.260001
H18   H     H_    0.493776 0.887768 0.833437 0.153210
H19   H     H_    0.493725 0.111695 0.834799 0.044431
C49   C     C_R   0.477464 0.592119 0.071878 0.201543
N3    N     N_R   0.499670 0.499140 0.142800 -0.107556
C50   C     C_R   0.525929 0.412133 0.071678 -0.128788
H20   H     H_    0.546089 0.341198 0.125904 0.143443
C51   C     C_R   0.526006 0.412307 0.927505 -0.159160
H21   H     H_    0.546176 0.341412 0.872667 0.147374
N4    N     N_R   0.499670 0.499180 0.857150 -0.115402
C52   C     C_R   0.477416 0.592116 0.929246 0.189030
C53   C     C_3   0.425005 0.624203 0.925127 -0.438566
C54   C     C_3   0.425204 0.624696 0.079139 -0.501598
H22   H     H_    0.418608 0.718618 0.881787 0.238589
H23   H     H_    0.402718 0.547909 0.881093 0.236607
H24   H     H_    0.419089 0.719178 0.123676 0.214746
H25   H     H_    0.402945 0.548933 0.124153 0.230619
O13   O     O_3   0.428851 0.119246 0.710681 -0.604638
C55   C     C_3   0.414533 0.214276 0.802852 0.133222
H26   H     H_    0.385518 0.270138 0.753677 0.175075
H27   H     H_    0.444270 0.280926 0.824798 0.150309
C56   C     C_3   0.394416 0.158294 0.934604 -0.371929
H28   H     H_    0.361872 0.101788 0.911071 0.259102
H29   H     H_    0.421720 0.095731 0.982007 0.213875
C57   C     C_3   0.381015 0.260936 0.036172 -0.936664
H30   H     H_    0.413585 0.315346 0.064582 0.264427
H31   H     H_    0.365747 0.217966 0.129378 0.273536
H32   H     H_    0.353614 0.325206 0.992004 0.272425
Cl1   Cl    Cl    0.976280 0.251419 0.802571 -0.613607
Cl2   Cl    Cl    0.351251 0.706887 0.661053 -0.652754

loop_
_geom_bond_atom_site_label_1
_geom_bond_atom_site_label_2
_geom_bond_distance
_ccdc_geom_bond_type
C26   N2    1.366878 A    
C17   C29   1.403384 A    
C20   C24   1.413416 A    
C7    C8    1.390609 A    
C12   C15   1.406874 A    
C45   C46   1.391438 A    
Zn1   O7    2.008148 S    
C57   H31   1.110381 S    
N1    C11   1.426965 S    
C25   C39   1.396317 A    
C21   C22   1.391037 A    
Zn2   N3    2.009055 S    
C48   H19   1.117071 S    
C23   C24   1.406058 A    
O7    C4    1.292961 A    
C50   C51   1.419351 A    
C5    C13   1.398662 A    
C5    O9    1.349865 S    
C19   C38   1.412820 A    
C18   C21   1.424429 A    
C56   C57   1.526351 S    
C5    N1    1.367057 A    
C19   C20   1.420504 A    
C43   H15   1.083552 S    
O5    C3    1.282333 A    
C31   H13   1.082985 S    
C39   H12   1.083499 S    
C22   H6    1.083836 S    
C6    O11   1.350150 S    
C2    C16   1.450029 S    
C55   H26   1.111221 S    
C49   C52   1.404181 A    
C12   C34   1.413306 A    
C14   H3    1.083359 S    
O1    Zn1   1.992555 S    
C9    C10   1.388403 A    
C43   C44   1.381664 A    
O3    Zn1   2.009642 S    
C41   C48   1.499172 S    
C33   C34   1.416685 A    
C57   H32   1.110997 S    
C3    C45   1.416764 S    
C37   H9    1.083481 S    
C33   C36   1.409818 A    
C38   H10   1.078036 S    
C34   C35   1.416420 A    
C49   N3    1.360685 A    
O3    C2    1.292262 A    
C4    C17   1.459211 S    
C24   C25   1.408260 A    
C47   H17   1.112200 S    
C36   H7    1.078646 S    
C46   C47   1.495449 S    
C27   O10   1.350066 S    
C8    C16   1.405293 A    
C18   C33   1.415932 A    
N3    C50   1.368150 A    
Zn1   N4    2.008558 S    
C9    H1    1.083594 S    
C53   H23   1.112171 S    
C30   H11   1.083207 S    
O1    C1    1.281438 A    
C7    C11   1.399963 A    
C44   H16   1.083495 S    
C22   C23   1.395993 A    
C47   H18   1.111765 S    
C31   C32   1.399136 A    
Zn2   O8    2.009642 S    
C38   C39   1.386690 A    
C53   H22   1.109488 S    
N1    C6    1.367459 A    
N2    C32   1.427614 S    
C12   C13   1.407930 A    
C56   H29   1.111109 S    
C44   C45   1.402859 A    
C8    Cl2   1.758506 S    
C25   C26   1.398298 A    
C55   H27   1.112085 S    
C9    C16   1.401543 A    
O8    C4    1.292815 A    
C29   H4    1.083154 S    
C54   H24   1.111623 S    
N2    C27   1.366978 A    
C14   C36   1.388644 A    
C54   H25   1.111594 S    
C52   C53   1.490522 S    
C28   C29   1.389376 A    
Zn1   O5    1.994045 S    
C30   C31   1.388820 A    
C10   H2    1.082893 S    
C48   O13   1.418847 S    
C50   H20   1.081722 S    
C17   C30   1.403428 A    
O2    Zn2   1.994046 S    
C6    C15   1.397821 A    
C51   N4    1.368116 A    
C42   C43   1.402539 A    
O6    C3    1.282116 A    
O4    Zn2   2.008151 S    
C7    H8    1.083326 S    
C57   H30   1.111034 S    
C19   C35   1.414044 A    
O2    C1    1.282493 A    
C13   C14   1.397422 A    
C23   C27   1.399228 A    
C15   C37   1.397138 A    
C37   C40   1.388119 A    
C28   H5    1.082967 S    
N4    C52   1.363357 A    
O4    C2    1.287804 A    
C53   C54   1.516219 S    
C18   C20   1.420966 A    
C1    C42   1.415582 S    
C49   C54   1.488496 S    
C56   H28   1.111367 S    
C47   C48   1.520137 S    
C28   C32   1.399403 A    
C41   C42   1.392599 A    
C55   C56   1.533924 S    
C51   H21   1.081717 S    
Zn2   O6    1.992554 S    
O13   C55   1.414899 S    
C21   Cl1   1.767776 S    
C10   C11   1.397737 A    
C26   O12   1.350157 S    
C41   C46   1.361636 A    
C35   C40   1.413445 A    
C40   H14   1.078092 S    
