data_mof_unit_2429.cif
_audit_creation_date              2012-12-11T15:29:35-0500
_audit_creation_method            fapswitch 2.2
_symmetry_space_group_name_H-M    P1
_symmetry_Int_Tables_number       1
_space_group_crystal_system       triclinic
_cell_length_a                    21.476723
_cell_length_b                    7.237278
_cell_length_c                    14.724138
_cell_angle_alpha                 89.998544
_cell_angle_beta                  74.520897
_cell_angle_gamma                 90.000332
_cell_volume                      2205.60411029

loop_
_atom_site_label
_atom_site_type_symbol
_atom_type_description
_atom_site_fract_x
_atom_site_fract_y
_atom_site_fract_z
_atom_type_partial_charge
O1    O     O_R   0.464160 0.506670 0.130070 -0.531505
O2    O     O_R   0.535840 0.006670 0.869930 -0.531489
O3    O     O_R   0.589710 0.179080 0.006710 -0.546687
O4    O     O_R   0.410290 0.679080 0.993290 -0.546694
C1    C     C_R   0.615817 0.344819 0.004278 0.744205
C2    C     C_R   0.384182 0.844820 0.995723 0.744197
O5    O     O_R   0.467940 0.177220 0.138010 -0.539145
O6    O     O_R   0.532060 0.677220 0.861990 -0.539172
O7    O     O_R   0.413200 0.002810 0.002170 -0.529579
O8    O     O_R   0.586800 0.502810 0.997830 -0.529622
C3    C     C_R   0.455878 0.345428 0.174572 0.763168
C4    C     C_R   0.544122 0.845435 0.825428 0.763134
O9    O     O_3   0.482180 0.337850 0.955280 -0.367266
O10   O     O_3   0.517820 0.837850 0.044720 -0.367293
V1    V     V_3+5 0.503310 0.064600 0.008300 1.546866
V2    V     V_3+5 0.496690 0.564600 0.991700 1.546797
C5    C     C_R   0.572102 0.853177 0.723263 -0.111631
C6    C     C_R   0.427899 0.353127 0.276740 -0.111617
C7    C     C_R   0.928880 0.864431 0.276783 -0.109436
C8    C     C_R   0.071123 0.364442 0.723215 -0.109423
C9    C     C_R   0.561016 0.859448 0.564321 -0.171850
C10   C     C_R   0.438984 0.358793 0.435689 -0.171860
C11   C     C_R   0.532825 0.851665 0.661066 0.386113
C12   C     C_R   0.467173 0.351191 0.338939 0.386176
C13   C     C_R   0.639423 0.858799 0.688132 -0.281825
C14   C     C_R   0.360580 0.358966 0.311872 -0.281850
C15   C     C_R   0.669284 0.861273 0.589923 0.095712
C16   C     C_R   0.330719 0.361183 0.410082 0.095717
C17   C     C_R   0.628420 0.864554 0.528451 0.045551
C18   C     C_R   0.371582 0.364086 0.471560 0.045556
C19   C     C_R   0.737967 0.859182 0.550782 0.075954
C20   C     C_R   0.262036 0.359165 0.449218 0.075972
C21   C     C_R   0.764379 0.867068 0.450792 0.063632
C22   C     C_R   0.235624 0.366878 0.549212 0.063607
C23   C     C_R   0.721203 0.873094 0.393143 -0.137907
C24   C     C_R   0.278799 0.372548 0.606870 -0.138079
C25   C     C_R   0.654852 0.871096 0.431369 -0.100068
C26   C     C_R   0.345150 0.370403 0.568646 -0.100101
C27   C     C_R   0.781022 0.845410 0.608104 -0.196225
C28   C     C_R   0.218979 0.345567 0.391891 -0.196221
C29   C     C_R   0.847386 0.837780 0.569661 -0.097484
C30   C     C_R   0.152614 0.337939 0.430332 -0.097459
C31   C     C_R   0.874410 0.845729 0.472239 0.041216
C32   C     C_R   0.125591 0.345781 0.527757 0.041219
C33   C     C_R   0.833045 0.864156 0.411583 0.032459
C34   C     C_R   0.166958 0.364093 0.588416 0.032442
C35   C     C_R   0.942248 0.834997 0.433985 0.474477
C36   C     C_R   0.057752 0.335059 0.566012 0.474488
C37   C     C_R   0.968751 0.842522 0.336663 -0.169110
C38   C     C_R   0.031250 0.342560 0.663335 -0.169124
C39   C     C_R   0.862142 0.878057 0.313578 -0.174077
C40   C     C_R   0.137862 0.378019 0.686420 -0.174148
H1    H     H_    0.834681 0.900797 0.263282 0.155810
H2    H     H_    0.165329 0.400780 0.736708 0.155805
H3    H     H_    0.020628 0.832635 0.307607 0.144963
H4    H     H_    0.979372 0.332685 0.692391 0.144951
H5    H     H_    0.530087 0.859942 0.516907 0.166460
H6    H     H_    0.469911 0.358970 0.483105 0.166446
C41   C     C_3   0.226505 0.738764 0.918260 -0.366679
C42   C     C_3   0.773500 0.238674 0.081714 -0.366700
H7    H     H_    0.223006 0.788217 0.848321 0.196287
H8    H     H_    0.776994 0.288060 0.151665 0.196285
C43   C     C_3   0.298675 0.725249 0.918499 -0.254978
C44   C     C_3   0.701331 0.225147 0.081467 -0.254929
H9    H     H_    0.283743 0.654578 0.109901 0.184827
H10   H     H_    0.716262 0.154720 0.890042 0.184800
C45   C     C_3   0.197300 0.793269 0.092094 -0.360076
C46   C     C_3   0.802701 0.293366 0.907894 -0.360075
C47   C     C_3   0.220215 0.068882 0.979811 0.632094
C48   C     C_3   0.779775 0.568859 0.020247 0.632066
C49   C     C_3   0.188223 0.869586 0.997855 -0.044465
C50   C     C_3   0.811775 0.369582 0.002151 -0.044440
C51   C     C_3   0.313499 0.855374 0.994156 -0.071970
C52   C     C_3   0.686500 0.355368 0.005848 -0.071976
C53   C     C_3   0.269663 0.794982 0.091676 -0.413611
C54   C     C_3   0.730338 0.295096 0.908311 -0.413601
C55   C     C_3   0.294227 0.056593 0.973928 0.224020
C56   C     C_3   0.705762 0.556560 0.026137 0.223974
H11   H     H_    0.168645 0.875245 0.152782 0.185555
H12   H     H_    0.831355 0.375399 0.847225 0.185548
H13   H     H_    0.276590 0.890901 0.147252 0.158821
H14   H     H_    0.723409 0.391090 0.852763 0.158824
O11   O     O_R   0.913210 0.208550 0.002110 -0.546541
O12   O     O_R   0.086790 0.708550 0.997890 -0.546539
O13   O     O_R   0.032060 0.539960 0.861980 -0.540983
O14   O     O_R   0.967940 0.039960 0.138020 -0.540975
C57   C     C_R   0.043600 0.372586 0.825221 0.733181
C58   C     C_R   0.956402 0.872582 0.174779 0.733187
O15   O     O_R   0.910290 0.538020 0.993280 -0.491963
O16   O     O_R   0.089710 0.038020 0.006720 -0.491953
O17   O     O_R   0.964160 0.712340 0.130090 -0.525829
O18   O     O_R   0.035840 0.212340 0.869910 -0.525836
C59   C     C_R   0.883703 0.371050 0.999130 0.720382
C60   C     C_R   0.116297 0.871051 0.000873 0.720380
O19   O     O_3   0.017820 0.379210 0.044690 -0.364592
O20   O     O_3   0.982180 0.879210 0.955310 -0.364605
V3    V     V_3+5 0.996690 0.652500 0.991710 1.597433
V4    V     V_3+5 0.003310 0.152500 0.008290 1.597446
H15   H     H_    0.623824 0.873703 0.384091 0.183293
H16   H     H_    0.376177 0.372701 0.615929 0.183322
Cl1   Cl    Cl    0.996336 0.810442 0.504831 -0.600828
Cl2   Cl    Cl    0.003663 0.310512 0.495166 -0.600812
H17   H     H_    0.205080 0.597778 0.927856 0.225845
H18   H     H_    0.794932 0.097700 0.072087 0.225862
H19   H     H_    0.329823 0.759972 0.847451 0.238585
H20   H     H_    0.670180 0.259772 0.152524 0.238608
H21   H     H_    0.309790 0.579792 0.933112 0.208041
H22   H     H_    0.690227 0.079706 0.066807 0.207995
H23   H     H_    0.178641 0.649298 0.103066 0.218717
H24   H     H_    0.821362 0.149402 0.896888 0.218675
Cl3   Cl    Cl    0.184133 0.226549 0.074337 -0.712585
Cl4   Cl    Cl    0.815843 0.726625 0.925755 -0.712628
Cl5   Cl    Cl    0.205858 0.169765 0.874913 -0.642858
Cl6   Cl    Cl    0.794134 0.669637 0.125163 -0.642728
Cl7   Cl    Cl    0.346429 0.145117 0.865219 -0.554716
Cl8   Cl    Cl    0.653558 0.644921 0.134880 -0.554648
H25   H     H_    0.304486 0.147555 0.029131 0.110335
H26   H     H_    0.695493 0.647599 0.970968 0.110352
H27   H     H_    0.877390 0.824867 0.617831 0.195392
H28   H     H_    0.122607 0.325133 0.382158 0.195405
Cl9   Cl    Cl    0.448171 0.839642 0.701991 -0.629419
Cl10  Cl    Cl    0.551822 0.338870 0.298010 -0.629515
H29   H     H_    0.666771 0.860890 0.739716 0.112981
H30   H     H_    0.333233 0.361396 0.260289 0.112995
H31   H     H_    0.736753 0.875513 0.317425 0.181929
H32   H     H_    0.263243 0.374723 0.682590 0.182129
H33   H     H_    0.765128 0.836401 0.683731 0.141661
H34   H     H_    0.234873 0.336637 0.316259 0.141676

loop_
_geom_bond_atom_site_label_1
_geom_bond_atom_site_label_2
_ccdc_geom_bond_type
C46   H12   S    
C3    C6    S    
C35   Cl1   S    
C48   C56   S    
C21   C33   A    
C47   C55   S    
O1    C3    A    
O2    C4    A    
C2    O7    A    
O19   V4    S    
O18   V4    S    
C35   C37   A    
C49   C60   S    
C48   Cl6   S    
O5    C3    A    
C47   Cl5   S    
C5    C11   A    
C52   C54   S    
C6    C12   A    
O12   V3    S    
C56   H26   S    
C55   H25   S    
O14   C58   A    
C15   C17   A    
C33   C39   A    
O11   C59   A    
C8    C57   S    
C34   C40   A    
C18   C26   A    
C42   H8    S    
C1    C52   S    
C47   C49   S    
C8    C38   A    
C23   H31   S    
C45   H23   S    
C40   H2    S    
O11   V4    S    
C6    C14   A    
C4    C5    S    
C19   C21   A    
C44   H22   S    
C22   C34   A    
C43   H19   S    
C45   C49   S    
O6    C4    A    
C36   C38   A    
H10   C54   S    
C14   H30   S    
C57   O18   A    
C29   C31   A    
C30   C32   A    
O17   V3    S    
C32   C34   A    
O16   C60   A    
O13   C57   A    
C56   Cl8   S    
C41   H7    S    
C27   H33   S    
C15   C19   A    
C16   C20   A    
C45   H11   S    
C11   Cl9   S    
C7    C58   S    
C54   H14   S    
C53   H13   S    
O12   C60   A    
C43   C51   S    
C37   H3    S    
C9    C17   A    
C38   H4    S    
O15   V3    S    
C39   H1    S    
C20   C22   A    
O4    V2    S    
C9    H5    S    
C13   H29   S    
C7    C37   A    
C58   O17   A    
C46   C50   S    
C36   Cl2   S    
O20   V3    S    
C12   Cl10  S    
C42   H18   S    
O1    V2    S    
C46   H24   S    
C29   H27   S    
O2    V1    S    
C31   C33   A    
C48   Cl4   S    
C50   C59   S    
C26   H16   S    
C9    C11   A    
C10   C12   A    
O4    C2    A    
C46   C54   S    
C51   C53   S    
C43   H21   S    
C24   C26   A    
C25   H15   S    
O3    V1    S    
C2    C51   S    
C51   C55   S    
C10   C18   A    
C23   C25   A    
C14   C16   A    
C24   H32   S    
C28   C30   A    
O3    C1    A    
C10   H6    S    
C44   H20   S    
C13   C15   A    
C41   C43   S    
H9    C53   S    
C42   C44   S    
C41   H17   S    
C16   C18   A    
O7    V1    S    
C5    C13   A    
C1    O8    A    
C8    C40   A    
O8    V2    S    
C47   Cl3   S    
C30   H28   S    
O5    V1    S    
C21   C23   A    
C19   C27   A    
C22   C24   A    
C20   C28   A    
C42   C50   S    
O15   C59   A    
O14   V4    S    
O13   V3    S    
C7    C39   A    
C45   C53   S    
C27   C29   A    
O6    V2    S    
C52   C56   S    
O9    V2    S    
C17   C25   A    
C44   C52   S    
O10   V1    S    
C48   C50   S    
C55   Cl7   S    
C31   C35   A    
O16   V4    S    
C32   C36   A    
C41   C49   S    
C28   H34   S    
