data_mof_unit_964.cif
_audit_creation_date              2012-12-10T20:49:42-0500
_audit_creation_method            fapswitch 2.2
_symmetry_space_group_name_H-M    P1
_symmetry_Int_Tables_number       1
_space_group_crystal_system       triclinic
_cell_length_a                    8.104109
_cell_length_b                    8.933137
_cell_length_c                    16.941758
_cell_angle_alpha                 89.998597
_cell_angle_beta                  84.788666
_cell_angle_gamma                 90.000416
_cell_volume                      1221.43073399

loop_
_atom_site_label
_atom_site_type_symbol
_atom_type_description
_atom_site_fract_x
_atom_site_fract_y
_atom_site_fract_z
_atom_type_partial_charge
C1    C     C_R   0.500000 0.782024 0.500000 0.994501
C2    C     C_R   0.499999 0.217974 0.500001 0.924315
C3    C     C_1   0.500001 0.934809 0.500001 -0.142634
C4    C     C_1   0.499998 0.065183 0.500002 -0.166438
C5    C     C_R   0.476721 0.500599 0.653206 0.931376
C6    C     C_R   0.523275 0.500623 0.346783 0.930612
C7    C     C_R   0.461791 0.477428 0.738237 -0.046925
C8    C     C_R   0.538206 0.477500 0.261729 -0.047132
C9    C     C_R   0.579862 0.536342 0.786113 -0.111270
C10   C     C_R   0.419434 0.535462 0.213941 -0.111213
C11   C     C_R   0.581148 0.484152 0.864560 -0.021202
C12   C     C_R   0.418363 0.483194 0.135502 -0.020822
C13   C     C_R   0.460468 0.376065 0.894080 0.175065
C14   C     C_R   0.540055 0.376120 0.105852 0.175211
C15   C     C_R   0.339929 0.327302 0.846259 -0.175241
C16   C     C_R   0.661215 0.328329 0.153573 -0.175364
C17   C     C_R   0.340817 0.376753 0.769159 -0.226860
C18   C     C_R   0.660060 0.377767 0.230690 -0.226713
C19   C     C_2   0.438583 0.325547 0.976929 -0.152404
C20   C     C_2   0.562354 0.325937 0.022951 -0.152660
H1    H     H_    0.245056 0.248562 0.868562 0.147128
H2    H     H_    0.756836 0.250380 0.131173 0.146836
H3    H     H_    0.751190 0.332775 0.267302 0.165520
H4    H     H_    0.250268 0.331038 0.732449 0.165459
H5    H     H_    0.688679 0.312544 0.996414 0.133729
H6    H     H_    0.312390 0.311074 0.003433 0.133825
N1    N     N_1   0.926360 0.500000 0.499990 -0.028968
N2    N     N_1   0.073640 0.500000 0.500010 -0.028931
O1    O     O_R   0.363150 0.714660 0.500000 -0.602386
O2    O     O_R   0.636850 0.285340 0.500000 -0.620727
O3    O     O_R   0.636850 0.714660 0.500000 -0.602374
O4    O     O_R   0.363150 0.285340 0.500000 -0.620801
O5    O     O_R   0.346950 0.500000 0.615800 -0.635964
O6    O     O_R   0.653050 0.500000 0.384200 -0.636052
O7    O     O_R   0.620700 0.500000 0.615800 -0.602152
O8    O     O_R   0.379300 0.500000 0.384200 -0.602122
Zn1   Zn    Zn3+2 0.317220 0.500000 0.500010 1.017676
Zn2   Zn    Zn3+2 0.682780 0.500000 0.499990 1.017613
C21   C     C_2   0.294167 0.548030 0.086075 0.367102
H7    H     H_    0.163279 0.527678 0.101738 0.032509
O9    O     O_2   0.336430 0.629169 0.029962 -0.480019
C22   C     C_2   0.704426 0.550069 0.914139 0.367085
H8    H     H_    0.835580 0.531046 0.898527 0.033040
O10   O     O_2   0.661053 0.630614 0.970344 -0.479906
C23   C     C_2   0.696114 0.657767 0.756211 0.439416
H9    H     H_    0.817656 0.667720 0.777695 0.051969
O11   O     O_2   0.654865 0.751260 0.709207 -0.562621
C24   C     C_2   0.302155 0.656040 0.243910 0.440448
H10   H     H_    0.180190 0.664648 0.222749 0.051576
O12   O     O_2   0.342978 0.750304 0.290601 -0.562112

loop_
_geom_bond_atom_site_label_1
_geom_bond_atom_site_label_2
_ccdc_geom_bond_type
C2    C4    S    
C22   O10   D    
C9    C23   S    
C14   C20   S    
C8    C18   A    
C11   C13   A    
C19   C20   D    
O3    Zn2   S    
C1    O3    A    
C2    O2    A    
C12   C21   S    
C1    O1    A    
C21   O9    D    
O6    Zn2   S    
C23   H9    S    
C24   O12   D    
C9    C11   A    
C10   C12   A    
N2    Zn1   S    
C15   C17   A    
C5    O7    A    
C2    O4    A    
C24   H10   S    
C12   C14   A    
C1    C3    S    
C13   C15   A    
C10   C24   S    
C14   C16   A    
C17   H4    S    
C22   H8    S    
C13   C19   S    
N1    Zn2   S    
C18   H3    S    
C7    C9    A    
C15   H1    S    
O7    Zn2   S    
O2    Zn2   S    
C11   C22   S    
C16   C18   A    
C20   H5    S    
C23   O11   D    
O1    Zn1   S    
C21   H7    S    
C5    C7    S    
C19   H6    S    
O8    Zn1   S    
C6    C8    S    
C7    C17   A    
O4    Zn1   S    
C6    O8    A    
C8    C10   A    
O5    Zn1   S    
C3    C4    T    
C6    O6    A    
C16   H2    S    
N1    N2    T    
C5    O5    A    
