data_mof_unit_1473.cif
_audit_creation_date              2012-12-11T14:33:48-0500
_audit_creation_method            fapswitch 2.2
_symmetry_space_group_name_H-M    P1
_symmetry_Int_Tables_number       1
_space_group_crystal_system       triclinic
_cell_length_a                    14.184799
_cell_length_b                    14.264877
_cell_length_c                    27.1268
_cell_angle_alpha                 89.425607
_cell_angle_beta                  90.906391
_cell_angle_gamma                 120.573506
_cell_volume                      4725.26317778

loop_
_atom_site_label
_atom_site_type_symbol
_atom_type_description
_atom_site_fract_x
_atom_site_fract_y
_atom_site_fract_z
_atom_type_partial_charge
C1    C     C_R   0.236918 0.785406 0.569764 0.553317
C2    C     C_R   0.212753 0.447401 0.568612 0.550112
C3    C     C_R   0.553218 0.765189 0.569190 0.544348
C4    C     C_3   0.703789 0.737759 0.791677 -0.007075
C5    C     C_3   0.234237 0.983793 0.778387 0.008200
C6    C     C_3   0.157885 0.453290 0.796294 -0.000439
C7    C     C_3   0.700045 0.737726 0.733286 -0.000758
C8    C     C_3   0.254017 0.960615 0.724013 0.011481
C9    C     C_3   0.163580 0.464245 0.737947 -0.009988
C10   C     C_1   0.683559 0.831412 0.866331 0.057959
C11   C     C_1   0.100696 0.905925 0.847997 0.045949
C12   C     C_1   0.158372 0.325153 0.865412 0.063231
C13   C     C_1   0.639953 0.810432 0.659739 -0.005831
C14   C     C_1   0.190764 0.816024 0.659577 -0.001830
C15   C     C_1   0.186522 0.383013 0.660427 -0.012374
C16   C     C_1   0.607954 0.796486 0.617048 0.044705
C17   C     C_1   0.208442 0.801766 0.617900 0.052797
C18   C     C_1   0.196457 0.403338 0.617121 0.051397
C19   C     C_R   0.107044 0.223383 0.087577 0.589176
C20   C     C_R   0.777123 0.882583 0.087641 0.585577
C21   C     C_R   0.118231 0.893124 0.086996 0.608549
C22   C     C_R   0.106688 0.221451 0.951422 0.571137
C23   C     C_R   0.773735 0.882907 0.953975 0.570011
C24   C     C_R   0.088221 0.933686 0.944007 0.566171
C25   C     C_R   0.604842 0.889025 0.359357 -0.085616
C26   C     C_R   0.105357 0.716878 0.360525 -0.082214
C27   C     C_R   0.281570 0.391153 0.361539 -0.085792
C28   C     C_R   0.633432 0.907031 0.309713 0.032236
C29   C     C_R   0.087845 0.726734 0.310505 0.033155
C30   C     C_R   0.272403 0.364034 0.311795 0.030098
C31   C     C_R   0.672864 0.924216 0.207518 -0.012316
C32   C     C_R   0.073500 0.746712 0.207647 -0.014099
C33   C     C_R   0.253396 0.326227 0.209381 -0.012745
C34   C     C_R   0.231997 0.787295 0.431971 0.542169
C35   C     C_R   0.211990 0.445591 0.431918 0.540933
C36   C     C_R   0.553956 0.767263 0.431872 0.538536
C37   C     C_R   0.634579 0.986563 0.229977 -0.055155
C38   C     C_R   0.007443 0.646397 0.231116 -0.059603
C39   C     C_R   0.353725 0.362105 0.233964 -0.054766
C40   C     C_R   0.611940 0.976127 0.280185 0.179842
C41   C     C_R   0.016328 0.635243 0.281764 0.178064
C42   C     C_R   0.364562 0.384276 0.284307 0.179877
C43   C     C_R   0.693646 0.931604 0.156524 0.117362
C44   C     C_R   0.067700 0.759103 0.156291 0.117547
C45   C     C_R   0.241178 0.305570 0.158243 0.115864
C46   C     C_R   0.721544 0.859258 0.135284 0.017194
C47   C     C_R   0.142317 0.859448 0.134469 0.015099
C48   C     C_R   0.141714 0.280702 0.134951 0.016103
C49   C     C_R   0.671166 0.762899 0.366919 -0.087327
C50   C     C_R   0.237717 0.909983 0.366142 -0.087849
C51   C     C_R   0.088396 0.331680 0.364785 -0.089813
C52   C     C_R   0.700402 0.778961 0.317437 0.030795
C53   C     C_R   0.221923 0.922569 0.316285 0.031070
C54   C     C_R   0.076294 0.302524 0.315215 0.029650
C55   C     C_R   0.677262 0.848006 0.288199 0.009441
C56   C     C_R   0.150369 0.829495 0.287860 0.009426
C57   C     C_R   0.169813 0.323309 0.288096 0.009274
C58   C     C_R   0.744165 0.720905 0.295575 0.181330
C59   C     C_R   0.283425 0.024269 0.293269 0.182053
C60   C     C_R   0.974700 0.261434 0.291105 0.179492
C61   C     C_R   0.749152 0.718761 0.244563 -0.059715
C62   C     C_R   0.286840 0.030022 0.242175 -0.056959
C63   C     C_R   0.969944 0.257915 0.239972 -0.061113
C64   C     C_R   0.718979 0.780880 0.215038 -0.025367
C65   C     C_R   0.222385 0.936646 0.213645 -0.025794
C66   C     C_R   0.063984 0.286189 0.212640 -0.026066
C67   C     C_3   0.546273 0.776526 0.738389 -0.204552
C68   C     C_3   0.177623 0.765946 0.749787 -0.199662
C69   C     C_3   0.284674 0.380461 0.735867 -0.196699
C70   C     C_R   0.692025 0.852913 0.236987 -0.008967
C71   C     C_R   0.146822 0.838136 0.236422 -0.010283
C72   C     C_R   0.161842 0.309505 0.236789 -0.009423
C73   C     C_R   0.716365 0.773298 0.163942 0.063261
C74   C     C_R   0.230479 0.940135 0.162663 0.064113
C75   C     C_R   0.061782 0.290025 0.161540 0.066643
C76   C     C_R   0.616478 0.811352 0.386746 -0.022961
C77   C     C_R   0.186622 0.806492 0.387003 -0.023788
C78   C     C_R   0.191814 0.382905 0.386784 -0.023645
C79   C     C_3   0.741251 0.931048 0.732732 -0.213030
C80   C     C_3   0.050715 0.814794 0.710645 -0.216372
C81   C     C_3   0.081663 0.263681 0.728424 -0.218289
C82   C     C_3   0.747328 0.933328 0.790203 0.055094
C83   C     C_3   0.033390 0.865073 0.757200 0.036496
C84   C     C_3   0.072734 0.252162 0.785100 0.041827
C85   C     C_1   0.716101 0.855997 0.908047 0.098897
C86   C     C_1   0.092047 0.917959 0.891594 0.066099
C87   C     C_1   0.141809 0.283610 0.906055 0.084523
C88   C     C_3   0.658301 0.814391 0.714321 -0.020070
C89   C     C_3   0.170167 0.839312 0.709682 -0.000188
C90   C     C_3   0.179735 0.373765 0.714453 -0.011421
C91   C     C_3   0.552713 0.779962 0.795311 -0.035192
C92   C     C_3   0.138058 0.784143 0.799791 -0.048734
C93   C     C_3   0.281902 0.377550 0.792786 -0.041637
C94   C     C_3   0.670413 0.818970 0.812346 0.026233
C95   C     C_3   0.124332 0.886200 0.797130 0.041509
C96   C     C_3   0.168258 0.353020 0.811891 0.026465
Cr1   Cr    Cr6+3 0.164410 0.584450 0.499910 1.078910
Cr2   Cr    Cr6+3 0.415550 0.579960 0.499910 1.085351
Cr3   Cr    Cr6+3 0.420040 0.835590 0.499910 1.083821
Cr4   Cr    Cr6+3 0.155170 0.075460 0.019960 1.139007
Cr5   Cr    Cr6+3 0.924540 0.079710 0.019960 1.144531
Cr6   Cr    Cr6+3 0.920290 0.844830 0.019960 1.144020
H1    H     H_    0.491804 0.690778 0.727491 0.185876
H2    H     H_    0.264023 0.786781 0.754349 0.211165
H3    H     H_    0.358474 0.456673 0.723493 0.184298
H4    H     H_    0.497411 0.696997 0.809990 0.192188
H5    H     H_    0.199920 0.796226 0.828604 0.201987
H6    H     H_    0.345787 0.459077 0.806280 0.194350
H7    H     H_    0.789090 0.765788 0.803450 0.167731
H8    H     H_    0.227580 0.057699 0.777407 0.192500
H9    H     H_    0.077407 0.440533 0.807451 0.206514
H10   H     H_    0.564616 0.928064 0.375689 0.194716
H11   H     H_    0.063675 0.637534 0.377826 0.195053
H12   H     H_    0.360854 0.427896 0.379604 0.196255
H13   H     H_    0.618032 0.041207 0.208724 0.210078
H14   H     H_    0.950977 0.574665 0.210394 0.209672
H15   H     H_    0.425838 0.377339 0.214258 0.210304
H16   H     H_    0.779785 0.670532 0.228401 0.183803
H17   H     H_    0.337991 0.108622 0.225105 0.187589
H18   H     H_    0.891443 0.229613 0.221974 0.186867
H19   H     H_    0.510915 0.825601 0.724148 0.196421
H20   H     H_    0.126369 0.679214 0.738972 0.184599
H21   H     H_    0.291842 0.311530 0.721576 0.173906
H22   H     H_    0.681176 0.705017 0.389088 0.199378
H23   H     H_    0.298038 0.978180 0.387733 0.198339
H24   H     H_    0.020078 0.324352 0.385233 0.199197
H25   H     H_    0.822986 0.959346 0.716961 0.209303
H26   H     H_    0.029800 0.843664 0.676141 0.175358
H27   H     H_    0.005494 0.254588 0.711512 0.178875
H28   H     H_    0.714855 0.988374 0.719507 0.158076
H29   H     H_    0.992625 0.725201 0.710923 0.148996
H30   H     H_    0.092567 0.199187 0.712318 0.187447
H31   H     H_    0.723064 0.991806 0.802850 0.221302
H32   H     H_    0.950875 0.809578 0.771938 0.172072
H33   H     H_    0.077413 0.179513 0.795819 0.231743
H34   H     H_    0.785393 0.772144 0.720223 0.149401
H35   H     H_    0.238463 0.013492 0.698868 0.169390
H36   H     H_    0.083257 0.451772 0.724733 0.158628
O1    O     O_R   0.137150 0.468200 0.553200 -0.495043
O2    O     O_R   0.531800 0.668950 0.553200 -0.480762
O3    O     O_R   0.331050 0.862850 0.553200 -0.486725
O4    O     O_R   0.179100 0.982980 0.967000 -0.464347
O5    O     O_R   0.017020 0.196120 0.967000 -0.472357
O6    O     O_R   0.803880 0.820900 0.967000 -0.503409
O7    O     O_R   0.173970 0.688730 0.549930 -0.492715
O8    O     O_R   0.311270 0.485240 0.549930 -0.485949
O9    O     O_R   0.514760 0.826030 0.549930 -0.489750
O10   O     O_R   0.140110 0.470540 0.446010 -0.501738
O11   O     O_R   0.529460 0.669570 0.446010 -0.499353
O12   O     O_R   0.330430 0.859890 0.446010 -0.499698
O13   O     O_R   0.176710 0.690910 0.450560 -0.502810
O14   O     O_R   0.309090 0.485800 0.450560 -0.503368
O15   O     O_R   0.514200 0.823290 0.450560 -0.503220
O16   O     O_3   0.333333 0.666667 0.499990 -0.299958
O17   O     O_R   0.176750 0.985260 0.074180 -0.479193
O18   O     O_R   0.014740 0.191490 0.074180 -0.481290
O19   O     O_R   0.808510 0.823250 0.074180 -0.484610
O20   O     O_R   0.146100 0.172630 0.068980 -0.463826
O21   O     O_R   0.827370 0.973470 0.068980 -0.463706
O22   O     O_R   0.026530 0.853900 0.068980 -0.457409
O23   O     O_3   1.000000 0.000000 0.020040 -0.309056
O24   O     O_R   0.148270 0.170520 0.969620 -0.511894
O25   O     O_R   0.829480 0.977750 0.969620 -0.476150
O26   O     O_R   0.022250 0.851730 0.969620 -0.465618
I1    I     I_    0.493507 0.878332 0.824791 -0.257422
I2    I     I_    0.990221 0.638219 0.822862 -0.275519
I3    I     I_    0.340141 0.276477 0.821946 -0.273709
Br1   Br    Br    0.677210 0.033936 0.115288 -0.404435
Br2   Br    Br    0.964962 0.639204 0.115280 -0.392199
Br3   Br    Br    0.360444 0.318357 0.119564 -0.406665
Br4   Br    Br    0.548254 0.056198 0.305554 -0.383197
Br5   Br    Br    0.931229 0.491491 0.308820 -0.372299
Br6   Br    Br    0.509051 0.446931 0.312535 -0.374677
I4    I     I_    0.683868 0.621876 0.131814 -0.144322
I5    I     I_    0.383515 0.057394 0.129816 -0.131090
I6    I     I_    0.947656 0.327708 0.126218 -0.136224
Br7   Br    Br    0.795890 0.641351 0.333489 -0.406296
Br8   Br    Br    0.366954 0.156946 0.329724 -0.399499
Br9   Br    Br    0.840585 0.210342 0.326070 -0.397717
Br10  Br    Br    0.893079 0.988676 0.819255 -0.543463
Br11  Br    Br    0.037708 0.995285 0.731738 -0.660160
Br12  Br    Br    0.929352 0.230657 0.804441 -0.454211
I7    I     I_    0.616173 0.579069 0.698037 -0.301426
I8    I     I_    0.422144 0.009950 0.706939 -0.262427
I9    I     I_    0.276994 0.618524 0.705463 -0.490111
I10   I     I_    0.617549 0.580808 0.828414 -0.222243
I11   I     I_    0.365828 0.035083 0.832162 -0.148869
I12   I     I_    0.260946 0.595113 0.839756 -0.323247

loop_
_geom_bond_atom_site_label_1
_geom_bond_atom_site_label_2
_ccdc_geom_bond_type
Cr2   O11   S    
C15   C18   T    
C4    H7    S    
Cr2   O16   S    
C84   H33   S    
C3    O9    A    
C82   C94   S    
C2    C18   S    
C33   C45   A    
C6    H9    S    
C1    O7    A    
C91   H4    S    
C27   C78   A    
C45   Br3   S    
C6    C9    S    
C34   O12   A    
C67   H1    S    
C10   C85   T    
Cr2   O14   S    
C43   Br1   S    
C79   H28   S    
C25   C28   A    
C67   C88   S    
C33   C39   A    
C31   C43   A    
C60   C63   A    
C2    O1    A    
C37   C40   A    
C9    I9    S    
C80   C83   S    
C93   H6    S    
C22   O24   A    
C36   O11   A    
C45   C48   A    
C5    H8    S    
C10   C94   S    
C11   C86   T    
C30   C57   A    
C6    I12   S    
C73   I4    S    
C7    H34   S    
C83   Br11  S    
C84   C96   S    
C4    I10   S    
C80   C89   S    
C44   Br2   S    
C83   H32   S    
C79   H25   S    
C36   C76   S    
C33   C72   A    
C68   C92   S    
C31   C70   A    
C66   C72   A    
C24   O4    A    
C20   O21   A    
C22   O5    A    
C64   C73   A    
Cr4   O23   S    
C32   C38   A    
C39   C42   A    
C12   C87   T    
C44   C47   A    
C8    I8    S    
C58   C61   A    
C75   I6    S    
C63   C66   A    
C80   H29   S    
C27   C30   A    
C19   O18   A    
C51   H24   S    
C48   C75   A    
C24   O26   A    
Cr6   O6    S    
C4    C7    S    
C67   H19   S    
Cr6   O19   S    
C79   C88   S    
C5    C95   S    
C28   C55   A    
Cr3   O3    S    
C36   O15   A    
C32   C71   A    
C23   O25   A    
C53   C59   A    
Cr3   O12   S    
C26   C77   A    
C28   C40   A    
C50   C53   A    
Cr5   O25   S    
C38   C41   A    
C68   H20   S    
C69   H3    S    
C19   C48   S    
C81   H30   S    
C54   C60   A    
Cr3   O16   S    
Cr2   O8    S    
Cr5   O18   S    
C39   H15   S    
C49   H22   S    
C92   C95   S    
C65   C74   A    
C31   C37   A    
Cr2   O2    S    
C8    H35   S    
C60   Br9   S    
C61   C64   A    
C64   C70   A    
C14   C89   S    
C92   I2    S    
C5    C8    S    
C38   H14   S    
C9    H36   S    
C92   H5    S    
C81   H27   S    
C7    C88   S    
Cr1   O13   S    
C49   C52   A    
C83   C95   S    
C67   C91   S    
C68   C89   S    
C21   O17   A    
C49   C76   A    
C50   H23   S    
C22   C87   S    
Cr5   O21   S    
C62   H17   S    
C52   C58   A    
C4    C94   S    
C81   C90   S    
Cr4   O17   S    
C93   C96   S    
C6    C96   S    
C20   O19   A    
Cr1   O10   S    
C23   O6    A    
C35   O14   A    
C5    I11   S    
Cr6   O22   S    
C69   C90   S    
C50   C77   A    
C81   C84   S    
C32   C44   A    
C53   C56   A    
C11   C95   S    
Cr3   O9    S    
C59   C62   A    
C62   C65   A    
C29   C41   A    
C61   H16   S    
C19   O20   A    
Cr1   O7    S    
C91   I1    S    
C59   Br8   S    
C30   C42   A    
C68   H2    S    
C47   C74   A    
C42   Br6   S    
Cr1   O16   S    
C9    C90   S    
C79   C82   S    
C34   O13   A    
C52   C55   A    
C37   H13   S    
C29   C56   A    
C2    O8    A    
C80   H26   S    
C35   C78   S    
C69   C93   S    
C8    C89   S    
C7    I7    S    
C51   C54   A    
C25   C76   A    
C82   H31   S    
Cr5   O23   S    
C26   H11   S    
C74   I5    S    
C34   C77   S    
Cr4   O4    S    
C41   Br5   S    
C91   C94   S    
C63   H18   S    
Cr5   O5    S    
C25   H10   S    
Cr6   O23   S    
C66   C75   A    
Cr3   O15   S    
C13   C88   S    
C84   Br12  S    
C21   O22   A    
C58   Br7   S    
C35   O10   A    
C46   C73   A    
C57   C72   A    
C43   C46   A    
C51   C78   A    
C55   C70   A    
C1    O3    A    
C27   H12   S    
Cr4   O20   S    
C65   C71   A    
C1    C17   S    
C93   I3    S    
C26   C29   A    
Cr6   O26   S    
C23   C85   S    
C13   C16   T    
C82   Br10  S    
C69   H21   S    
C12   C96   S    
Cr4   O24   S    
C3    O2    A    
C21   C47   S    
C24   C86   S    
Cr1   O1    S    
C40   Br4   S    
C20   C46   S    
C3    C16   S    
C56   C71   A    
C15   C90   S    
C54   C57   A    
C14   C17   T    
