data_mof_unit_243.cif
_audit_creation_date              2012-12-10T16:57:10-0500
_audit_creation_method            fapswitch 2.2
_symmetry_space_group_name_H-M    P1
_symmetry_Int_Tables_number       1
_space_group_crystal_system       triclinic
_cell_length_a                    7.838092
_cell_length_b                    8.57886
_cell_length_c                    16.992115
_cell_angle_alpha                 93.63316
_cell_angle_beta                  81.282457
_cell_angle_gamma                 92.692574
_cell_volume                      1126.30336365

loop_
_atom_site_label
_atom_site_type_symbol
_atom_type_description
_atom_site_fract_x
_atom_site_fract_y
_atom_site_fract_z
_atom_type_partial_charge
C1    C     C_R   0.543899 0.793703 0.497400 0.913152
C2    C     C_R   0.384658 0.558114 0.229793 -0.042811
C3    C     C_R   0.646641 0.482117 0.847705 0.146546
C4    C     C_R   0.353360 0.517879 0.152294 0.146547
C5    C     C_R   0.528036 0.575007 0.898444 0.121903
C6    C     C_R   0.471967 0.424990 0.101555 0.121903
C7    C     C_R   0.388489 0.640845 0.870546 0.147800
C8    C     C_R   0.611515 0.359154 0.129454 0.147800
C9    C     C_R   0.362266 0.605862 0.791349 -0.056616
C10   C     C_R   0.637736 0.394137 0.208652 -0.056616
C11   C     C_2   0.524014 0.567785 0.983631 -0.191118
C12   C     C_R   0.456101 0.206297 0.502599 0.913152
C13   C     C_2   0.475990 0.432212 0.016368 -0.191118
C14   C     C_1   0.720203 0.324008 0.722929 0.235105
C15   C     C_1   0.279793 0.675986 0.277070 0.235106
C16   C     C_1   0.788278 0.335146 0.235398 0.233177
C17   C     C_1   0.211724 0.664855 0.764602 0.233176
C18   C     C_3   0.264134 0.745266 0.924820 -0.902989
C19   C     C_3   0.735871 0.254734 0.075180 -0.902989
C20   C     C_3   0.194830 0.577588 0.123896 -0.892493
C21   C     C_3   0.805171 0.422407 0.876102 -0.892491
C22   C     C_1   0.672879 0.987027 0.407419 0.176661
C23   C     C_2   0.560027 0.951731 0.480703 -0.223379
C24   C     C_1   0.327121 0.012973 0.592581 0.176661
C25   C     C_3   0.014687 0.307191 0.447929 -0.441597
C26   C     C_3   0.985313 0.692809 0.552071 -0.441597
C27   C     C_2   0.439973 0.048269 0.519297 -0.223379
C28   C     C_R   0.478849 0.500595 0.653680 0.881476
C29   C     C_R   0.521151 0.499404 0.346320 0.881475
C30   C     C_R   0.478910 0.510412 0.740235 -0.223595
C31   C     C_R   0.521090 0.489586 0.259765 -0.223596
C32   C     C_R   0.615341 0.441883 0.770207 -0.042810
H1    H     H_    0.445395 0.327904 0.980598 0.161224
H2    H     H_    0.207945 0.706387 0.120145 0.239569
H3    H     H_    0.172300 0.523822 0.065091 0.250613
H4    H     H_    0.922256 0.451202 0.833284 0.250628
H5    H     H_    0.827704 0.476174 0.934907 0.250613
H6    H     H_    0.792054 0.293608 0.879854 0.239568
H7    H     H_    0.921637 0.252439 0.410964 0.200174
H8    H     H_    0.139033 0.317958 0.407995 0.209695
H9    H     H_    0.018640 0.230158 0.497645 0.194798
H10   H     H_    0.078362 0.747560 0.589036 0.200174
H11   H     H_    0.981360 0.769842 0.502355 0.194798
H12   H     H_    0.554610 0.672093 0.019401 0.161224
H13   H     H_    0.860967 0.682041 0.592005 0.209695
H14   H     H_    0.307169 0.778869 0.982837 0.241091
H15   H     H_    0.252282 0.856088 0.895999 0.246481
H16   H     H_    0.134979 0.684994 0.936101 0.244949
H17   H     H_    0.692837 0.221130 0.017164 0.241090
H18   H     H_    0.865026 0.315008 0.063899 0.244949
H19   H     H_    0.747726 0.143913 0.104001 0.246481
H20   H     H_    0.077745 0.548791 0.166714 0.250628
N1    N     N_2   0.953500 0.457650 0.478520 -0.014417
N2    N     N_2   0.046500 0.542350 0.521480 -0.014417
N3    N     N_1   0.803638 0.230192 0.685391 -0.193872
N4    N     N_1   0.196356 0.769801 0.314608 -0.193871
N5    N     N_1   0.910019 0.288813 0.255610 -0.204203
N6    N     N_1   0.089983 0.711189 0.744391 -0.204202
N7    N     N_1   0.761851 0.012111 0.348462 -0.200664
N8    N     N_1   0.238149 0.987889 0.651537 -0.200664
O1    O     O_R   0.388470 0.738640 0.505270 -0.613261
O2    O     O_R   0.611530 0.261360 0.494730 -0.613261
O3    O     O_R   0.679650 0.711510 0.491500 -0.638565
O4    O     O_R   0.320350 0.288490 0.508500 -0.638565
O5    O     O_R   0.337210 0.515200 0.623500 -0.601315
O6    O     O_R   0.662790 0.484800 0.376500 -0.601315
O7    O     O_R   0.628380 0.488060 0.609730 -0.625245
O8    O     O_R   0.371620 0.511940 0.390270 -0.625245
Zn1   Zn    Zn3+2 0.305580 0.518120 0.509190 0.971099
Zn2   Zn    Zn3+2 0.694420 0.481880 0.490810 0.971099

loop_
_geom_bond_atom_site_label_1
_geom_bond_atom_site_label_2
_ccdc_geom_bond_type
C26   N2    S    
C2    C4    A    
O3    Zn2   S    
C5    C11   S    
C18   H16   S    
C23   C27   D    
C30   C32   A    
C29   O8    A    
C12   O2    A    
C19   H17   S    
C24   C27   S    
C17   N6    T    
C24   N8    T    
O7    Zn2   S    
C20   H2    S    
C18   H15   S    
C7    C18   S    
C1    C23   S    
C28   C30   S    
C14   N3    T    
C9    C17   S    
C11   H12   S    
C20   H20   S    
C21   H4    S    
C10   C16   S    
O4    Zn1   S    
C15   N4    T    
C6    C13   S    
C13   H1    S    
C2    C15   S    
C11   C13   D    
C19   H18   S    
O2    Zn2   S    
O6    Zn2   S    
N2    Zn1   S    
C9    C30   A    
C29   C31   S    
O5    Zn1   S    
N1    Zn2   S    
C18   H14   S    
C4    C6    A    
C25   N1    S    
C26   H11   S    
C28   O5    A    
C5    C7    A    
C16   N5    T    
C2    C31   A    
C25   H8    S    
C3    C32   A    
C12   O4    A    
C3    C21   S    
C8    C19   S    
C12   C27   S    
O1    Zn1   S    
C29   O6    A    
C4    C20   S    
C19   H19   S    
C28   O7    A    
C21   H5    S    
C26   H10   S    
C8    C10   A    
C25   H9    S    
C22   N7    T    
C7    C9    A    
C22   C23   S    
C1    O3    A    
C6    C8    A    
C26   H13   S    
N1    N2    D    
C20   H3    S    
C10   C31   A    
C25   H7    S    
C21   H6    S    
C14   C32   S    
O8    Zn1   S    
C3    C5    A    
C1    O1    A    
