data_mof_unit_4438.cif
_audit_creation_date              2013-03-05T16:04:39-0500
_audit_creation_method            fapswitch 2.2
_symmetry_space_group_name_H-M    P1
_symmetry_Int_Tables_number       1
_space_group_crystal_system       triclinic
_cell_length_a                    9.60643
_cell_length_b                    10.825087
_cell_length_c                    15.588186
_cell_angle_alpha                 89.780711
_cell_angle_beta                  72.428091
_cell_angle_gamma                 89.99284
_cell_volume                      1545.37125911

loop_
_atom_site_label
_atom_site_type_symbol
_atom_site_description
_atom_site_fract_x
_atom_site_fract_y
_atom_site_fract_z
_atom_type_partial_charge
O1    O     O_R   0.118740 0.319660 0.500000 -0.591653
O2    O     O_R   0.881260 0.680340 0.500000 -0.602982
O3    O     O_R   0.881170 0.319630 0.500010 -0.594629
O4    O     O_R   0.118830 0.680370 0.499990 -0.595689
C1    C     C_R   0.000064 0.262354 0.499789 0.846958
C2    C     C_R   0.000100 0.737663 0.499850 0.775964
O5    O     O_R   0.055570 0.500030 0.629830 -0.517018
O6    O     O_R   0.944430 0.499970 0.370170 -0.518117
O7    O     O_R   0.818000 0.500000 0.629840 -0.563650
O8    O     O_R   0.182000 0.500000 0.370160 -0.588921
C3    C     C_R   0.915866 0.498795 0.672139 0.875381
C4    C     C_R   0.083772 0.498881 0.327645 0.870311
Cu1   Cu    Cu3+1 0.140660 0.500020 0.500000 1.020118
Cu2   Cu    Cu3+1 0.859340 0.499980 0.500000 1.026558
C5    C     C_R   0.863170 0.501885 0.770989 -0.180297
C6    C     C_R   0.131179 0.509926 0.228661 -0.194188
C7    C     C_R   0.876396 0.451033 0.919457 -0.236749
C8    C     C_R   0.077516 0.522145 0.087620 -0.209087
C9    C     C_R   0.931054 0.437056 0.826225 0.423858
C10   C     C_R   0.036779 0.484146 0.177239 0.440365
C11   C     C_R   0.732390 0.565408 0.810921 -0.193251
C12   C     C_R   0.272728 0.552978 0.184855 -0.208632
C13   C     C_R   0.664844 0.560951 0.904106 0.102912
C14   C     C_R   0.318983 0.579958 0.091645 0.118270
C15   C     C_R   0.750178 0.520604 0.958043 0.012543
C16   C     C_R   0.216671 0.567415 0.044120 0.018159
C17   C     C_R   0.514306 0.587675 0.946853 -0.087517
C18   C     C_R   0.467729 0.601092 0.042683 -0.045360
C19   C     C_R   0.575477 0.612631 0.086915 0.321115
C20   C     C_R   0.405851 0.584706 0.901244 0.352620
C21   C     C_R   0.708616 0.554194 0.048676 -0.182048
C22   C     C_R   0.258763 0.582377 0.950980 -0.178250
H1    H     H_    0.781190 0.542906 0.088476 0.209585
H2    H     H_    0.178243 0.573016 0.915297 0.184278
H3    H     H_    0.347647 0.557740 0.224004 0.208126
H4    H     H_    0.685488 0.619600 0.768358 0.197954
H5    H     H_    0.927269 0.400982 0.961654 0.207276
H6    H     H_    0.006526 0.505324 0.048514 0.138368
C23   C     C_R   0.874657 0.063954 0.497663 -0.147196
C24   C     C_R   0.125857 0.936122 0.501231 -0.142482
H7    H     H_    0.776478 0.111989 0.496165 0.145746
H8    H     H_    0.224084 0.888115 0.502661 0.157808
C25   C     C_R   0.874644 0.936147 0.497711 -0.152039
C26   C     C_R   0.125860 0.063915 0.501188 -0.158049
H9    H     H_    0.776446 0.888148 0.496262 0.155433
H10   H     H_    0.224053 0.111915 0.502647 0.145285
C27   C     C_R   0.000196 0.871676 0.499596 -0.015749
C28   C     C_R   0.000204 0.128376 0.499524 0.002890
C29   C     C_R   0.553832 0.407647 0.541331 0.048630
C30   C     C_R   0.446415 0.592012 0.458199 0.021092
H11   H     H_    0.592306 0.333501 0.574970 0.138208
H12   H     H_    0.408115 0.665804 0.424148 0.145983
C31   C     C_R   0.406034 0.407282 0.540780 0.073453
C32   C     C_R   0.594538 0.591977 0.458224 0.075447
H13   H     H_    0.335251 0.332245 0.573261 0.144414
H14   H     H_    0.666251 0.665701 0.424143 0.141624
N1    N     N_R   0.352080 0.500030 0.499980 -0.181463
N2    N     N_R   0.647920 0.499970 0.500020 -0.176871
S1    S     S_3+6 0.881606 0.386581 0.216971 0.017458
O9    O     O_2   0.751725 0.462221 0.267241 -0.280689
O10   O     O_2   0.849013 0.323504 0.139454 -0.281625
O11   O     O_3   0.913912 0.277890 0.286063 -0.526203
H15   H     H_    0.817053 0.241621 0.317186 0.372040
S2    S     S_3+6 0.079414 0.335361 0.782461 0.020599
O12   O     O_2   0.214627 0.410329 0.741424 -0.246827
O13   O     O_2   0.102468 0.254995 0.855873 -0.251859
O14   O     O_3   0.045913 0.245383 0.703233 -0.555786
H16   H     H_    0.133314 0.192159 0.681624 0.361569
N3    N     N_R   0.554032 0.688577 0.165667 0.112210
O15   O     O_R   0.457437 0.776716 0.182205 -0.341346
O16   O     O_R   0.644540 0.683073 0.213055 -0.339489
N4    N     N_R   0.438910 0.561225 0.806938 0.113765
O17   O     O_R   0.393105 0.637490 0.756659 -0.346098
O18   O     O_R   0.484165 0.452104 0.776024 -0.312563

loop_
_geom_bond_atom_site_label_1
_geom_bond_atom_site_label_2
_geom_bond_distance
_ccdc_geom_bond_type
C15   C21   1.396766 A    
C24   C27   1.401249 A    
C16   C22   1.393361 A    
C8    C16   1.391855 A    
O5    Cu1   1.940391 S    
C23   H7    1.083295 S    
C11   H4    1.079263 S    
O5    C3    1.304517 A    
C12   H3    1.076334 S    
C30   C32   1.423053 A    
O1    C1    1.298854 A    
C18   C19   1.412097 A    
C14   C16   1.404890 A    
Cu1   N1    2.030896 S    
O4    Cu1   1.963514 S    
N3    O16   1.301005 A    
C3    C5    1.470072 S    
C4    C6    1.475389 S    
C29   H11   1.081444 S    
C30   H12   1.081572 S    
C21   H1    1.070731 S    
C13   C17   1.427770 A    
C6    C10   1.408365 A    
C24   H8    1.083257 S    
S1    O9    1.501856 D    
Cu1   Cu2   2.702482 S    
C17   C20   1.428092 A    
O2    C2    1.298820 A    
C26   H10   1.083259 S    
C19   N3    1.442322 S    
C31   H13   1.080569 S    
Cu2   N2    2.030897 S    
C1    C28   1.450339 S    
C32   H14   1.081498 S    
S1    O10   1.503058 D    
C2    C27   1.450689 S    
O14   H16   0.990434 S    
S2    O14   1.681324 S    
O4    C2    1.298798 A    
C31   N1    1.369377 A    
C23   C25   1.383516 A    
O6    Cu2   1.940392 S    
C29   N2    1.369048 A    
C22   H2    1.085455 S    
C5    C9    1.411889 A    
O7    Cu2   1.941351 S    
O11   H15   0.990632 S    
O7    C3    1.301164 A    
C5    C11   1.403408 A    
C9    S2    1.768274 S    
O6    C4    1.302163 A    
C7    H5    1.075334 S    
C10   S1    1.777366 S    
C25   H9    1.083258 S    
O3    Cu2   1.963514 S    
O8    C4    1.306697 A    
N4    O18   1.301650 A    
C11   C13   1.401325 A    
C12   C14   1.414499 A    
O1    Cu1   1.963762 S    
C32   N2    1.369701 A    
S1    O11   1.683053 S    
C6    C12   1.403415 A    
C30   N1    1.369583 A    
C14   C18   1.420182 A    
N4    O17   1.301022 A    
O3    C1    1.298611 A    
O8    Cu1   1.941353 S    
C20   N4    1.430900 S    
C7    C15   1.400720 A    
S2    O12   1.499851 D    
C8    H6    1.059111 S    
C19   C21   1.390560 A    
C20   C22   1.391634 A    
C29   C31   1.422432 A    
C7    C9    1.397015 A    
C8    C10   1.392647 A    
C13   C15   1.408157 A    
N3    O15   1.301954 A    
O2    Cu2   1.963762 S    
C24   C26   1.383367 A    
C17   C18   1.432072 A    
C25   C27   1.401303 A    
C26   C28   1.401158 A    
S2    O13   1.503587 D    
C23   C28   1.401167 A    
