data_mof_unit_3254.cif
_audit_creation_date              2012-12-10T20:48:17-0500
_audit_creation_method            fapswitch 2.2
_symmetry_space_group_name_H-M    P1
_symmetry_Int_Tables_number       1
_space_group_crystal_system       triclinic
_cell_length_a                    10.817063
_cell_length_b                    8.999973
_cell_length_c                    8.138779
_cell_angle_alpha                 89.053511
_cell_angle_beta                  90.408341
_cell_angle_gamma                 89.664355
_cell_volume                      792.194412879

loop_
_atom_site_label
_atom_site_type_symbol
_atom_type_description
_atom_site_fract_x
_atom_site_fract_y
_atom_site_fract_z
_atom_type_partial_charge
C1    C     C_R   0.499973 0.217987 0.500841 0.982062
C2    C     C_R   0.257485 0.491308 0.499567 0.903312
C3    C     C_R   0.742392 0.489455 0.500352 0.949222
C4    C     C_R   0.500430 0.781979 0.499153 0.921515
C5    C     C_1   0.500189 0.065041 0.501175 -0.110226
C6    C     C_3   0.075110 0.372267 0.639011 0.202952
C7    C     C_3   0.070318 0.442316 0.317710 0.219040
C8    C     C_3   0.930755 0.396975 0.660754 0.199987
C9    C     C_3   0.927159 0.407933 0.332518 0.217190
C10   C     C_1   0.500355 0.934932 0.498787 -0.155195
C11   C     C_3   0.071504 0.657184 0.533724 0.141052
C12   C     C_3   0.924331 0.658758 0.504860 0.168458
C13   C     C_3   0.121159 0.489558 0.498756 -0.148067
C14   C     C_3   0.878504 0.487609 0.499574 -0.152164
N1    N     N_1   0.500000 0.500030 0.073640 -0.033760
N2    N     N_1   0.500000 0.500030 0.926360 -0.036274
O1    O     O_R   0.500000 0.285340 0.636850 -0.604878
O2    O     O_R   0.500000 0.285340 0.363150 -0.596457
O3    O     O_R   0.314790 0.499970 0.636880 -0.656593
O4    O     O_R   0.314790 0.499970 0.363120 -0.616500
O5    O     O_R   0.685210 0.499970 0.636880 -0.614531
O6    O     O_R   0.685210 0.499970 0.363120 -0.647307
O7    O     O_R   0.500000 0.714650 0.636900 -0.609520
O8    O     O_R   0.500000 0.714650 0.363100 -0.618364
Zn1   Zn    Zn3+2 0.500000 0.499990 0.682780 0.997519
Zn2   Zn    Zn3+2 0.500000 0.499990 0.317220 1.002973
N3    N     N_3   0.137694 0.386730 0.801344 -0.416427
H1    H     H_    0.222331 0.330743 0.813088 0.256352
H2    H     H_    0.150410 0.493367 0.842795 0.218738
N4    N     N_3   0.085697 0.568629 0.200233 -0.407436
H3    H     H_    0.177728 0.596964 0.182808 0.233578
H4    H     H_    0.058923 0.539181 0.082657 0.201510
N5    N     N_3   0.914332 0.484332 0.810267 -0.463428
H5    H     H_    0.822293 0.503100 0.838835 0.223913
H6    H     H_    0.942187 0.417415 0.909135 0.243122
N6    N     N_3   0.864843 0.457080 0.177204 -0.459758
H7    H     H_    0.785721 0.398677 0.142861 0.245002
H8    H     H_    0.851134 0.568858 0.151481 0.221048
I1    I     I_    0.131022 0.143361 0.593004 -0.385967
I2    I     I_    0.172705 0.263250 0.191489 -0.296266
I3    I     I_    0.827210 0.194267 0.733145 -0.325172
I4    I     I_    0.877687 0.170882 0.320125 -0.343075
N7    N     N_3   0.101969 0.705088 0.701707 -0.475375
H9    H     H_    0.197654 0.711641 0.716908 0.205930
H10   H     H_    0.073539 0.815133 0.717120 0.219308
N8    N     N_3   0.132357 0.764055 0.420438 -0.424334
H11   H     H_    0.100482 0.870916 0.442111 0.235967
H12   H     H_    0.227268 0.768682 0.443985 0.182193
N9    N     N_3   0.856004 0.744622 0.630795 -0.452037
H13   H     H_    0.864586 0.858630 0.607075 0.221407
H14   H     H_    0.885733 0.731313 0.751581 0.230768
N10   N     N_3   0.893621 0.733247 0.346843 -0.431132
H15   H     H_    0.920597 0.843979 0.344599 0.235141
H16   H     H_    0.797480 0.741002 0.334559 0.200983

loop_
_geom_bond_atom_site_label_1
_geom_bond_atom_site_label_2
_ccdc_geom_bond_type
C9    N6    S    
C6    C8    S    
C9    C14   S    
C11   N7    S    
N2    Zn1   S    
N3    H2    S    
N7    H10   S    
C3    O6    A    
C1    O1    A    
C6    N3    S    
O2    Zn2   S    
C7    I2    S    
O1    Zn1   S    
N10   H16   S    
N9    H14   S    
N6    H8    S    
C12   N9    S    
C9    I4    S    
C5    C10   T    
C7    N4    S    
C8    I3    S    
C6    C13   S    
N4    H4    S    
C11   C13   S    
C1    O2    A    
C3    C14   S    
O4    Zn2   S    
O3    Zn1   S    
C1    C5    S    
N6    H7    S    
N5    H6    S    
C12   C14   S    
N5    H5    S    
C8    N5    S    
O7    Zn1   S    
N7    H9    S    
N4    H3    S    
C4    O8    A    
N8    H12   S    
C3    O5    A    
C4    C10   S    
N1    N2    T    
C7    C13   S    
N10   H15   S    
N9    H13   S    
O6    Zn2   S    
N3    H1    S    
C7    C9    S    
C2    C13   S    
O5    Zn1   S    
N8    H11   S    
C11   N8    S    
C8    C14   S    
C12   N10   S    
C4    O7    A    
C6    I1    S    
C2    O4    A    
C11   C12   S    
O8    Zn2   S    
C2    O3    A    
N1    Zn2   S    
