data_mof_unit_1744.cif
_audit_creation_date              2012-12-10T17:30:19-0500
_audit_creation_method            fapswitch 2.2
_symmetry_space_group_name_H-M    P1
_symmetry_Int_Tables_number       1
_space_group_crystal_system       triclinic
_cell_length_a                    11.979365
_cell_length_b                    12.854601
_cell_length_c                    14.998076
_cell_angle_alpha                 90.244013
_cell_angle_beta                  86.036062
_cell_angle_gamma                 93.580364
_cell_volume                      2299.53104035

loop_
_atom_site_label
_atom_site_type_symbol
_atom_type_description
_atom_site_fract_x
_atom_site_fract_y
_atom_site_fract_z
_atom_type_partial_charge
C1    C     C_R   0.522284 0.700055 0.497301 0.914755
C2    C     C_R   0.389280 0.142905 0.443542 -0.237850
C3    C     C_R   0.462589 0.869054 0.453490 0.149846
C4    C     C_R   0.537733 0.130151 0.545981 0.131317
C5    C     C_R   0.462123 0.976201 0.469666 0.080546
C6    C     C_R   0.537580 0.023123 0.529776 0.091417
C7    C     C_R   0.955689 0.417939 0.403451 -0.115247
C8    C     C_R   0.044274 0.581812 0.596763 -0.119005
C9    C     C_R   0.839164 0.426330 0.414226 -0.047973
C10   C     C_R   0.160831 0.573531 0.585866 -0.033361
C11   C     C_R   0.856231 0.529781 0.544084 -0.033453
C12   C     C_R   0.477922 0.299865 0.503133 0.921992
C13   C     C_R   0.143709 0.470011 0.456057 -0.021465
C14   C     C_R   0.974692 0.528723 0.535773 -0.007579
C15   C     C_R   0.025245 0.471004 0.464452 -0.009255
C16   C     C_R   0.500122 0.500381 0.673374 0.896884
C17   C     C_R   0.499948 0.500328 0.326635 0.894918
C18   C     C_R   0.601237 0.516474 0.179655 -0.224243
C19   C     C_R   0.398814 0.488676 0.820490 -0.220739
C20   C     C_R   0.499795 0.502050 0.230862 -0.096162
C21   C     C_R   0.500354 0.501370 0.769181 -0.093223
C22   C     C_R   0.398023 0.489542 0.190862 -0.240868
C23   C     C_R   0.296124 0.477760 0.963888 -0.281648
C24   C     C_R   0.602057 0.515391 0.809130 -0.238048
C25   C     C_R   0.396205 0.491608 0.098448 0.088107
C26   C     C_R   0.603760 0.515312 0.901617 0.088716
C27   C     C_R   0.499458 0.504253 0.046476 0.013139
C28   C     C_R   0.500474 0.503218 0.953618 0.011831
C29   C     C_R   0.601916 0.517247 0.087497 0.100632
C30   C     C_R   0.398034 0.489793 0.912629 0.099257
C31   C     C_R   0.294019 0.479494 0.056896 0.201776
C32   C     C_R   0.705886 0.528062 0.943202 0.202357
C33   C     C_2   0.999082 0.352521 0.328569 0.877543
C34   C     C_R   0.703771 0.529902 0.036228 -0.282145
C35   C     C_2   0.000992 0.647366 0.671631 0.879803
C36   C     C_3   0.144009 0.564941 0.136751 -0.775549
C37   C     C_3   0.856635 0.442177 0.864847 -0.777872
C38   C     C_3   0.723741 0.205324 0.578648 -0.693714
C39   C     C_3   0.433492 0.803828 0.304502 -0.764653
C40   C     C_R   0.464779 0.188867 0.500689 -0.089715
C41   C     C_R   0.536408 0.810972 0.498335 -0.085728
C42   C     C_R   0.613065 0.962662 0.570649 -0.198574
C43   C     C_R   0.388360 0.037345 0.427424 -0.206803
C44   C     C_R   0.613089 0.857340 0.554200 -0.245812
H1    H     H_    0.679833 0.526810 0.211438 0.171609
H2    H     H_    0.331621 0.005671 0.379839 0.161891
H3    H     H_    0.186648 0.430434 0.401570 0.170619
H4    H     H_    0.813227 0.569242 0.598594 0.172924
H5    H     H_    0.215301 0.612363 0.631982 0.169150
H6    H     H_    0.784720 0.387457 0.368114 0.170387
H7    H     H_    0.985480 0.305728 0.200954 0.345309
H8    H     H_    0.015607 0.695220 0.798860 0.345323
H9    H     H_    0.130390 0.419122 0.078587 0.234569
H10   H     H_    0.123226 0.610462 0.077926 0.239769
H11   H     H_    0.204993 0.611991 0.175314 0.241946
H12   H     H_    0.320212 0.477671 0.788795 0.171227
H13   H     H_    0.066397 0.548662 0.180591 0.260316
H14   H     H_    0.869138 0.589061 0.921089 0.234092
H15   H     H_    0.877489 0.397923 0.924366 0.240356
H16   H     H_    0.934317 0.458079 0.821020 0.260150
H17   H     H_    0.796074 0.394052 0.826729 0.244328
H18   H     H_    0.597291 0.148780 0.673000 0.215460
H19   H     H_    0.780067 0.153227 0.610301 0.210399
H20   H     H_    0.747141 0.286712 0.598257 0.252848
H21   H     H_    0.737290 0.198663 0.504756 0.248020
H22   H     H_    0.305923 0.838647 0.400620 0.227063
H23   H     H_    0.320503 0.476941 0.232078 0.196118
H24   H     H_    0.450580 0.880821 0.271291 0.237524
H25   H     H_    0.372498 0.756143 0.266487 0.239553
H26   H     H_    0.512296 0.762484 0.303904 0.239005
H27   H     H_    0.679600 0.527124 0.767802 0.194407
H28   H     H_    0.217811 0.467991 0.931682 0.157937
H29   H     H_    0.782093 0.539591 0.068430 0.157918
H30   H     H_    0.334762 0.189724 0.407824 0.186931
H31   H     H_    0.668837 0.810957 0.589082 0.188635
H32   H     H_    0.671334 0.995192 0.616668 0.168078
N1    N     N_R   0.207800 0.519350 0.516680 -0.118627
N2    N     N_R   0.792200 0.480650 0.483320 -0.122125
N3    N     N_2   0.189224 0.467602 0.107954 -0.305434
N4    N     N_2   0.810700 0.539718 0.892165 -0.305231
N5    N     N_2   0.607772 0.179400 0.609309 -0.316941
N6    N     N_2   0.387589 0.817303 0.395213 -0.296549
O1    O     O_R   0.421700 0.658830 0.504450 -0.597881
O2    O     O_R   0.950059 0.354226 0.246666 -0.823597
O3    O     O_2   0.925826 0.705367 0.661327 -0.643232
O4    O     O_R   0.050921 0.646615 0.753186 -0.825704
O5    O     O_R   0.578300 0.341170 0.495550 -0.602338
O6    O     O_R   0.609310 0.646410 0.493750 -0.621624
O7    O     O_R   0.390690 0.353590 0.506250 -0.623073
O8    O     O_R   0.406180 0.506230 0.637500 -0.632093
O9    O     O_R   0.593820 0.493770 0.362500 -0.630451
O10   O     O_R   0.593800 0.493820 0.626800 -0.635117
O11   O     O_R   0.406200 0.506180 0.373200 -0.628510
O12   O     O_2   0.073644 0.293926 0.339109 -0.644241
Zn1   Zn    Zn3+2 0.374730 0.508290 0.507150 0.963417
Zn2   Zn    Zn3+2 0.625270 0.491710 0.492850 0.951342

loop_
_geom_bond_atom_site_label_1
_geom_bond_atom_site_label_2
_ccdc_geom_bond_type
C19   H12   S    
C25   C31   A    
O6    Zn2   S    
C26   C32   A    
C16   C21   S    
C27   C29   A    
C39   H24   S    
C17   O9    A    
C33   O12   D    
O8    Zn1   S    
C16   O8    A    
C19   C30   A    
H9    N3    S    
C24   C26   A    
C5    C6    A    
C11   C14   A    
C32   N4    S    
O10   Zn2   S    
C17   C20   S    
C12   C40   S    
O9    Zn2   S    
C4    N5    S    
C4    C40   A    
N2    Zn2   S    
C22   C25   A    
C2    H30   S    
H14   N4    S    
C1    O6    A    
C7    C15   A    
C5    C43   A    
O11   Zn1   S    
C7    C33   S    
C11   H4    S    
C42   C44   A    
C43   H2    S    
C10   N1    A    
C38   H20   S    
C37   N4    S    
C13   N1    A    
C23   C30   A    
C12   O7    A    
C4    C6    A    
C36   H13   S    
C13   H3    S    
C29   C34   A    
N1    Zn1   S    
C8    C35   S    
C32   C34   A    
O7    Zn1   S    
C44   H31   S    
C11   N2    A    
H22   N6    S    
C38   H21   S    
C2    C43   A    
O1    Zn1   S    
O5    Zn2   S    
C3    N6    S    
C39   H25   S    
C18   C29   A    
C37   H15   S    
C1    C41   S    
H18   N5    S    
C20   C22   A    
C16   O10   A    
C13   C15   A    
C38   N5    S    
C25   C27   A    
C41   C44   A    
C17   O11   A    
C18   H1    S    
C38   H19   S    
C7    C9    A    
C3    C41   A    
C8    C14   A    
C12   O5    A    
C19   C21   A    
C42   H32   S    
C23   H28   S    
C9    H6    S    
C39   N6    S    
C3    C5    A    
C36   N3    S    
C37   H17   S    
C31   N3    S    
C1    O1    A    
C26   C28   A    
H8    O4    S    
C36   H11   S    
C35   O3    D    
C28   C30   A    
C35   O4    S    
C39   H26   S    
C18   C20   A    
C9    N2    A    
C33   O2    S    
C22   H23   S    
C37   H16   S    
C36   H10   S    
C34   H29   S    
C2    C40   A    
C8    C10   A    
C6    C42   A    
C21   C24   A    
C27   C28   A    
C14   C15   A    
C10   H5    S    
H7    O2    S    
C24   H27   S    
C23   C31   A    
