data_mof_unit_2924.cif
_audit_creation_date              2012-12-10T17:14:12-0500
_audit_creation_method            fapswitch 2.2
_symmetry_space_group_name_H-M    P1
_symmetry_Int_Tables_number       1
_space_group_crystal_system       triclinic
_cell_length_a                    15.882079
_cell_length_b                    13.066881
_cell_length_c                    11.674951
_cell_angle_alpha                 99.128746
_cell_angle_beta                  93.768536
_cell_angle_gamma                 90.42762
_cell_volume                      2386.63983642

loop_
_atom_site_label
_atom_site_type_symbol
_atom_type_description
_atom_site_fract_x
_atom_site_fract_y
_atom_site_fract_z
_atom_type_partial_charge
C1    C     C_R   0.499795 0.299742 0.479401 0.809558
C2    C     C_3   0.954000 0.440244 0.588564 0.011445
C3    C     C_3   0.916801 0.504106 0.494510 0.192761
C4    C     C_3   0.954063 0.617033 0.530325 0.078782
C5    C     C_3   0.051517 0.615195 0.518937 -0.455178
C6    C     C_1   0.824612 0.502621 0.496636 0.000165
C7    C     C_1   0.175034 0.501131 0.499604 -0.061571
C8    C     C_1   0.250582 0.500541 0.500540 -0.196513
C9    C     C_R   0.503884 0.814366 0.529972 -0.174060
C10   C     C_R   0.504854 0.187911 0.468515 -0.042418
C11   C     C_R   0.537181 0.024519 0.355649 -0.180671
C12   C     C_R   0.340167 0.500004 0.500297 0.840890
C13   C     C_R   0.529729 0.130692 0.365462 -0.223079
C14   C     C_R   0.488233 0.138750 0.562695 -0.238412
C15   C     C_R   0.495363 0.031179 0.554551 0.041723
C16   C     C_R   0.517981 0.972980 0.448091 0.104325
C17   C     C_R   0.521498 0.864676 0.435063 0.187008
C18   C     C_R   0.484350 0.872992 0.635949 -0.278484
C19   C     C_R   0.479675 0.981239 0.649972 0.255505
C20   C     C_R   0.420024 0.404013 0.022154 -0.390974
C21   C     C_R   0.426189 0.413824 0.144547 0.473974
C22   C     C_R   0.537279 0.538351 0.155893 -0.048906
C23   C     C_R   0.502836 0.700889 0.520197 0.816958
C24   C     C_R   0.531031 0.532953 0.033383 0.067374
C25   C     C_R   0.471490 0.464791 0.966015 0.031518
C26   C     C_R   0.465030 0.458874 0.843669 0.041792
C27   C     C_R   0.573513 0.586017 0.854669 0.087327
C28   C     C_R   0.582558 0.593788 0.976497 -0.339973
C29   C     C_R   0.659787 0.500066 0.499606 0.819728
C30   C     C_3   0.052189 0.443597 0.593223 -0.445027
C31   C     C_3   0.044151 0.447227 0.378296 -0.443160
C32   C     C_3   0.946141 0.454331 0.371889 0.126258
C33   C     C_1   0.749234 0.501123 0.498561 -0.195636
C34   C     C_3   0.082829 0.501937 0.497799 0.230022
Cu1   Cu    Cu3+1 0.506190 0.507730 0.615930 0.936579
Cu2   Cu    Cu3+1 0.493810 0.492270 0.384070 0.946723
H1    H     H_    0.077220 0.483636 0.680262 0.157084
H2    H     H_    0.934285 0.478738 0.674731 0.139698
H3    H     H_    0.472329 0.833296 0.707879 0.185273
H4    H     H_    0.544647 0.168180 0.292710 0.154297
H5    H     H_    0.468642 0.185031 0.641461 0.160781
H6    H     H_    0.078004 0.363908 0.582159 0.184307
H7    H     H_    0.613403 0.633276 0.811604 0.122490
H8    H     H_    0.629185 0.647155 0.025654 0.135854
H9    H     H_    0.584146 0.588938 0.208126 0.135070
H10   H     H_    0.071132 0.482131 0.307382 0.176001
H11   H     H_    0.083731 0.658435 0.600032 0.157895
H12   H     H_    0.070056 0.654514 0.446379 0.164963
H13   H     H_    0.944693 0.642339 0.624476 0.123515
N1    N     N_R   0.515490 0.519350 0.790130 -0.180640
N2    N     N_R   0.484510 0.480650 0.209890 -0.193894
O1    O     O_R   0.504390 0.354460 0.582000 -0.593283
O2    O     O_R   0.493940 0.341410 0.386200 -0.572770
O3    O     O_R   0.384660 0.506540 0.597940 -0.585269
O4    O     O_R   0.374210 0.493480 0.402140 -0.547377
O5    O     O_R   0.506060 0.658590 0.613800 -0.594635
O6    O     O_R   0.495610 0.645540 0.418000 -0.582988
O7    O     O_R   0.625790 0.506520 0.597860 -0.580315
O8    O     O_R   0.615340 0.493460 0.402060 -0.588488
N3    N     N_2   0.921635 0.333564 0.567277 -0.415017
H14   H     H_    0.945893 0.286439 0.498300 0.250707
C35   C     C_3   0.917484 0.283600 0.668909 -0.696731
H15   H     H_    0.888698 0.204940 0.643051 0.226336
H16   H     H_    0.877527 0.328691 0.732769 0.234240
H17   H     H_    0.981828 0.276335 0.709926 0.220810
N4    N     N_2   0.912324 0.690422 0.463718 -0.405953
H18   H     H_    0.949626 0.727927 0.413794 0.251154
C36   C     C_3   0.852295 0.758948 0.523300 -0.726939
H19   H     H_    0.816550 0.799775 0.459709 0.229777
H20   H     H_    0.886088 0.817352 0.590470 0.221302
H21   H     H_    0.806569 0.714703 0.565217 0.231107
N5    N     N_2   0.545697 0.808786 0.327401 -0.441795
H22   H     H_    0.588321 0.750434 0.332597 0.254867
C37   C     C_3   0.478795 0.787480 0.235701 -0.673004
H23   H     H_    0.433927 0.727876 0.254600 0.252089
H24   H     H_    0.506564 0.759179 0.152021 0.217662
H25   H     H_    0.443181 0.858674 0.225670 0.220999
H26   H     H_    0.558027 0.983563 0.274778 0.172613
N6    N     N_2   0.461487 0.041262 0.759077 -0.432681
H27   H     H_    0.506534 0.097145 0.792768 0.246030
C38   C     C_3   0.422564 0.992326 0.845732 -0.711024
H28   H     H_    0.401435 0.053032 0.915065 0.224452
H29   H     H_    0.468782 0.943028 0.886119 0.220045
H30   H     H_    0.366349 0.945412 0.806107 0.237985
H31   H     H_    0.419709 0.406002 0.791072 0.117941
H32   H     H_    0.374863 0.349533 0.971486 0.146475
N7    N     N_2   0.373719 0.350987 0.199874 -0.374669
H33   H     H_    0.386600 0.273201 0.179809 0.227557
C39   C     C_3   0.284256 0.370514 0.186213 -0.697979
H34   H     H_    0.250130 0.328531 0.245168 0.224256
H35   H     H_    0.259342 0.342738 0.095359 0.200057
H36   H     H_    0.271951 0.454657 0.209139 0.241279
H37   H     H_    0.062337 0.364258 0.364738 0.146686
H38   H     H_    0.920046 0.373919 0.349262 0.128829
N8    N     N_2   0.918389 0.510349 0.277817 -0.418656
H39   H     H_    0.948130 0.579797 0.273506 0.263815
C40   C     C_3   0.831281 0.500293 0.231961 -0.660741
H40   H     H_    0.827635 0.512530 0.139860 0.215651
H41   H     H_    0.792760 0.560195 0.281491 0.242759
H42   H     H_    0.805013 0.421855 0.235218 0.223787

loop_
_geom_bond_atom_site_label_1
_geom_bond_atom_site_label_2
_ccdc_geom_bond_type
N4    C36   S    
N7    H33   S    
C21   N7    S    
N8    H39   S    
C32   H38   S    
Cu1   Cu2   S    
Cu2   O8    S    
C38   H30   S    
C40   H40   S    
C7    C8    T    
C15   C19   A    
C5    H11   S    
C32   N8    S    
C37   H24   S    
Cu1   O7    S    
C26   N1    A    
C2    N3    S    
C20   C25   A    
C15   C16   A    
C29   C33   S    
N3    C35   S    
C18   C19   A    
C1    O2    A    
C13   H4    S    
C35   H16   S    
Cu2   O2    S    
C38   H29   S    
C36   H19   S    
C29   O8    A    
C16   C17   A    
C31   H10   S    
C20   H32   S    
C39   H35   S    
C27   N1    A    
C3    C6    S    
N4    H18   S    
Cu1   O3    S    
C40   H41   S    
C38   H28   S    
C5    H12   S    
C37   H23   S    
C30   C34   S    
C23   O5    A    
C24   C25   A    
N5    C37   S    
Cu2   O6    S    
C10   C14   A    
N6    C38   S    
C9    C23   S    
C25   C26   A    
C31   H37   S    
C28   H8    S    
C30   H1    S    
N3    H14   S    
C18   H3    S    
C35   H15   S    
C11   H26   S    
C11   C16   A    
C2    H2    S    
C31   C32   S    
C8    C12   S    
C5    C34   S    
C37   H25   S    
Cu1   N1    S    
C31   C34   S    
C20   C21   A    
C39   H36   S    
C19   N6    S    
Cu2   N2    S    
C14   H5    S    
C9    C17   A    
N7    C39   S    
C7    C34   S    
C22   C24   A    
C3    C4    S    
C21   N2    A    
C40   H42   S    
C23   O6    A    
C35   H17   S    
Cu1   O5    S    
C1    C10   S    
C24   C28   A    
N5    H22   S    
C10   C13   A    
N8    C40   S    
C36   H21   S    
C6    C33   T    
C4    H13   S    
C2    C30   S    
C2    C3    S    
Cu2   O4    S    
C4    N4    S    
C11   C13   A    
C26   H31   S    
C3    C32   S    
C1    O1    A    
C12   O4    A    
N6    H27   S    
C27   H7    S    
C9    C18   A    
C4    C5    S    
C22   H9    S    
C29   O7    A    
C17   N5    S    
C36   H20   S    
Cu1   O1    S    
C14   C15   A    
C30   H6    S    
C39   H34   S    
C12   O3    A    
C22   N2    A    
C27   C28   A    
