data_mof_unit_1208.cif
_audit_creation_date              2012-12-11T15:50:31-0500
_audit_creation_method            fapswitch 2.2
_symmetry_space_group_name_H-M    P1
_symmetry_Int_Tables_number       1
_space_group_crystal_system       triclinic
_cell_length_a                    19.027592
_cell_length_b                    11.049604
_cell_length_c                    18.747609
_cell_angle_alpha                 89.999966
_cell_angle_beta                  91.178607
_cell_angle_gamma                 89.900727
_cell_volume                      3940.79539935

loop_
_atom_site_label
_atom_site_type_symbol
_atom_type_description
_atom_site_fract_x
_atom_site_fract_y
_atom_site_fract_z
_atom_type_partial_charge
C1    C     C_R   0.284827 0.011302 0.861055 0.572610
C2    C     C_R   0.714757 0.010179 0.138823 0.572002
C3    C     C_R   0.784827 0.511303 0.861055 0.572611
C4    C     C_R   0.214757 0.510178 0.138823 0.572001
C5    C     C_3   0.527889 0.728295 0.970809 -0.126430
C6    C     C_3   0.471641 0.728824 0.029419 -0.125412
C7    C     C_3   0.027888 0.228295 0.970810 -0.126429
C8    C     C_3   0.971640 0.228824 0.029419 -0.125413
C9    C     C_R   0.230225 0.546127 0.066457 0.089379
C10   C     C_R   0.769359 0.547445 0.933364 0.086366
C11   C     C_R   0.730225 0.046129 0.066458 0.089379
C12   C     C_R   0.269360 0.047443 0.933364 0.086366
C13   C     C_R   0.297608 0.544614 0.038237 0.064417
C14   C     C_R   0.702098 0.545241 0.961815 0.060181
C15   C     C_R   0.797609 0.044615 0.038237 0.064416
C16   C     C_R   0.202098 0.045240 0.961815 0.060184
C17   C     C_R   0.307611 0.563801 0.966236 0.036904
C18   C     C_R   0.692271 0.564363 0.033849 0.066356
C19   C     C_R   0.807611 0.063801 0.966236 0.036901
C20   C     C_R   0.192272 0.064363 0.033849 0.066359
C21   C     C_R   0.182958 0.582911 0.947544 -0.065218
C22   C     C_R   0.816904 0.584002 0.052137 -0.068530
C23   C     C_R   0.682958 0.082912 0.947544 -0.065215
C24   C     C_R   0.316904 0.084002 0.052137 -0.068532
C25   C     C_R   0.173412 0.574829 0.020764 -0.059221
C26   C     C_R   0.826224 0.576381 0.978892 -0.043097
C27   C     C_R   0.673412 0.074831 0.020765 -0.059216
C28   C     C_R   0.326224 0.076379 0.978893 -0.043099
C29   C     C_3   0.356952 0.456923 0.044189 0.158730
C30   C     C_3   0.643277 0.456782 0.956264 0.121584
C31   C     C_3   0.856953 0.956923 0.044189 0.158730
C32   C     C_3   0.143276 0.956782 0.956265 0.121582
C33   C     C_3   0.368031 0.476874 0.964592 0.126886
C34   C     C_3   0.632244 0.477366 0.035894 0.126267
C35   C     C_3   0.868031 0.976873 0.964592 0.126885
C36   C     C_3   0.132243 0.977367 0.035894 0.126260
C37   C     C_R   0.250123 0.578561 0.919309 0.070129
C38   C     C_R   0.749863 0.579212 0.080575 0.089731
C39   C     C_R   0.750124 0.078561 0.919309 0.070128
C40   C     C_R   0.249863 0.079212 0.080575 0.089731
C41   C     C_R   0.540563 0.826838 0.435539 0.019475
C42   C     C_R   0.508648 0.832739 0.581317 0.018664
C43   C     C_R   0.040563 0.326838 0.435539 0.019475
C44   C     C_R   0.008648 0.332739 0.581317 0.018664
C45   C     C_R   0.468985 0.821381 0.855780 0.534860
C46   C     C_R   0.530903 0.821501 0.144271 0.541656
C47   C     C_R   0.968985 0.321381 0.855780 0.534861
C48   C     C_R   0.030903 0.321501 0.144271 0.541656
C49   C     C_R   0.553852 0.726727 0.478997 0.021424
C50   C     C_R   0.538897 0.729549 0.550866 0.024717
C51   C     C_R   0.053852 0.226726 0.478997 0.021424
C52   C     C_R   0.038897 0.229549 0.550866 0.024717
C53   C     C_R   0.501271 0.937487 0.539345 -0.168448
C54   C     C_R   0.515559 0.933785 0.466607 -0.166345
C55   C     C_R   0.001271 0.437487 0.539345 -0.168448
C56   C     C_R   0.015559 0.433785 0.466607 -0.166345
C57   C     C_3   0.524901 0.601685 0.470415 -0.265350
C58   C     C_3   0.511964 0.602350 0.549312 -0.266859
C59   C     C_3   0.024901 0.101685 0.470415 -0.265350
C60   C     C_3   0.011964 0.102350 0.549312 -0.266859
C61   C     C_R   0.252470 0.603246 0.418818 0.024071
C62   C     C_R   0.764279 0.557186 0.567866 0.020886
C63   C     C_R   0.752471 0.103246 0.418818 0.024071
C64   C     C_R   0.264279 0.057186 0.567866 0.020886
C65   C     C_R   0.206969 0.681713 0.454389 0.030422
C66   C     C_R   0.822212 0.598604 0.530934 0.036651
C67   C     C_R   0.706969 0.181713 0.454389 0.030422
C68   C     C_R   0.322212 0.098604 0.530934 0.036651
C69   C     C_R   0.208553 0.685253 0.527219 0.046566
C70   C     C_R   0.820619 0.606201 0.458287 0.028051
C71   C     C_R   0.708553 0.185253 0.527219 0.046566
C72   C     C_R   0.320619 0.106201 0.458287 0.028051
C73   C     C_R   0.310132 0.555562 0.531439 -0.169829
C74   C     C_R   0.708646 0.504739 0.454768 -0.154734
C75   C     C_R   0.810132 0.055561 0.531439 -0.169829
C76   C     C_R   0.208646 0.004739 0.454768 -0.154734
C77   C     C_R   0.309676 0.552823 0.457007 -0.167956
C78   C     C_R   0.709623 0.500372 0.529217 -0.152048
C79   C     C_R   0.809676 0.052823 0.457007 -0.167956
C80   C     C_R   0.209623 0.000372 0.529217 -0.152048
C81   C     C_3   0.128058 0.693171 0.453141 -0.269908
C82   C     C_3   0.862781 0.712650 0.541150 -0.277616
C83   C     C_3   0.628058 0.193171 0.453141 -0.269908
C84   C     C_3   0.362781 0.212650 0.541150 -0.277616
C85   C     C_3   0.130820 0.693900 0.533496 -0.278520
C86   C     C_3   0.861722 0.722452 0.460946 -0.268961
C87   C     C_3   0.630820 0.193900 0.533496 -0.278520
C88   C     C_3   0.361722 0.222452 0.460946 -0.268961
C89   C     C_R   0.260492 0.633554 0.850136 0.541478
C90   C     C_R   0.739530 0.633696 0.149861 0.552875
C91   C     C_R   0.760492 0.133554 0.850136 0.541478
C92   C     C_R   0.239530 0.133696 0.149861 0.552876
C93   C     C_R   0.255911 0.615291 0.566981 0.023480
C94   C     C_R   0.759618 0.572508 0.420063 0.024171
C95   C     C_R   0.755911 0.115291 0.566981 0.023480
C96   C     C_R   0.259619 0.072509 0.420063 0.024171
C97   C     C_R   0.273562 0.039902 0.643455 0.553072
C98   C     C_R   0.729318 0.048208 0.352698 0.552589
C99   C     C_R   0.773562 0.539902 0.643455 0.553072
C100  C     C_R   0.229318 0.548208 0.352698 0.552589
C101  C     C_R   0.470701 0.823371 0.647762 0.553822
C102  C     C_R   0.558403 0.819706 0.360646 0.564486
C103  C     C_R   0.970701 0.323371 0.647762 0.553822
C104  C     C_R   0.058403 0.319706 0.360646 0.564486
C105  C     C_R   0.260890 0.640662 0.642083 0.546652
C106  C     C_R   0.741678 0.634024 0.354466 0.546078
C107  C     C_R   0.760890 0.140662 0.642083 0.546652
C108  C     C_R   0.241678 0.134024 0.354466 0.546078
C109  C     C_3   0.471914 0.928552 0.029625 -0.119552
C110  C     C_3   0.528032 0.928024 0.970241 -0.119321
C111  C     C_3   0.971914 0.428553 0.029625 -0.119552
C112  C     C_3   0.028032 0.428023 0.970241 -0.119321
C113  C     C_3   0.431640 0.828458 0.989324 0.225013
C114  C     C_3   0.568106 0.827664 0.010707 0.224065
C115  C     C_3   0.931639 0.328459 0.989324 0.225012
C116  C     C_3   0.068106 0.327663 0.010707 0.224065
C117  C     C_3   0.487093 0.828121 0.931166 0.015698
C118  C     C_3   0.512666 0.828344 0.068892 0.013489
C119  C     C_3   0.987093 0.328120 0.931166 0.015698
C120  C     C_3   0.012665 0.328345 0.068893 0.013489
Cr1   Cr    Cr6+3 0.229640 0.835880 0.747370 1.027956
Cr2   Cr    Cr6+3 0.770360 0.835880 0.252630 1.020538
Cr3   Cr    Cr6+3 0.729640 0.335880 0.747370 1.027953
Cr4   Cr    Cr6+3 0.270360 0.335880 0.252630 1.020539
Cr5   Cr    Cr6+3 0.387390 0.989720 0.750850 1.014110
Cr6   Cr    Cr6+3 0.612610 0.989720 0.249150 1.010752
Cr7   Cr    Cr6+3 0.887390 0.489720 0.750850 1.014111
Cr8   Cr    Cr6+3 0.112610 0.489720 0.249150 1.010752
Cr9   Cr    Cr6+3 0.385770 0.677220 0.749340 0.997042
Cr10  Cr    Cr6+3 0.614230 0.677220 0.250660 1.020119
Cr11  Cr    Cr6+3 0.885770 0.177220 0.749340 0.997043
Cr12  Cr    Cr6+3 0.114230 0.177220 0.250660 1.020119
H1    H     H_    0.477949 0.018439 0.560841 0.133328
H2    H     H_    0.502228 0.011624 0.434075 0.128018
H3    H     H_    0.977949 0.518439 0.560841 0.133328
H4    H     H_    0.002228 0.511624 0.434075 0.128018
H5    H     H_    0.064055 0.033756 0.454951 0.127779
H6    H     H_    0.955499 0.095302 0.561084 0.162972
H7    H     H_    0.564055 0.533756 0.454951 0.127779
H8    H     H_    0.455499 0.595302 0.561084 0.162972
H9    H     H_    0.475482 0.599581 0.437677 0.152590
H10   H     H_    0.546692 0.539338 0.579998 0.127479
H11   H     H_    0.975482 0.099581 0.437677 0.152590
H12   H     H_    0.046692 0.039338 0.579998 0.127479
H13   H     H_    0.350685 0.507380 0.561000 0.117679
H14   H     H_    0.665198 0.466562 0.424758 0.120774
H15   H     H_    0.850685 0.007380 0.561000 0.117679
H16   H     H_    0.165198 0.966562 0.424758 0.120774
H17   H     H_    0.349340 0.500650 0.430187 0.119715
H18   H     H_    0.667024 0.457341 0.556399 0.125238
H19   H     H_    0.849340 0.000650 0.430187 0.119715
H20   H     H_    0.167024 0.957341 0.556399 0.125238
H21   H     H_    0.100902 0.612628 0.432029 0.168279
H22   H     H_    0.916196 0.697648 0.564359 0.135274
H23   H     H_    0.600902 0.112628 0.432029 0.168279
H24   H     H_    0.416196 0.197648 0.564359 0.135274
H25   H     H_    0.109331 0.779926 0.429688 0.122436
H26   H     H_    0.831671 0.784343 0.567701 0.137327
H27   H     H_    0.609331 0.279926 0.429688 0.122435
H28   H     H_    0.331671 0.284343 0.567701 0.137327
H29   H     H_    0.112597 0.780087 0.556995 0.132219
H30   H     H_    0.830830 0.801728 0.442452 0.168880
H31   H     H_    0.612598 0.280087 0.556995 0.132219
H32   H     H_    0.330830 0.301728 0.442452 0.168880
H33   H     H_    0.108089 0.611471 0.557808 0.141861
H34   H     H_    0.914629 0.712933 0.437449 0.128699
H35   H     H_    0.608089 0.111471 0.557808 0.141861
H36   H     H_    0.414629 0.212933 0.437449 0.128699
H37   H     H_    0.455486 0.011444 0.057135 0.093576
H38   H     H_    0.544643 0.010440 0.942466 0.094792
H39   H     H_    0.955487 0.511446 0.057135 0.093575
H40   H     H_    0.044643 0.510438 0.942465 0.094792
H41   H     H_    0.549983 0.650720 0.942745 0.101563
H42   H     H_    0.449240 0.651855 0.057659 0.103248
H43   H     H_    0.049981 0.150718 0.942746 0.101561
H44   H     H_    0.949238 0.151857 0.057659 0.103249
H45   H     H_    0.138473 0.599729 0.912390 0.102005
H46   H     H_    0.861451 0.600623 0.087181 0.102668
H47   H     H_    0.638473 0.099729 0.912390 0.102002
H48   H     H_    0.361451 0.100623 0.087182 0.102669
H49   H     H_    0.120705 0.581994 0.041041 0.120846
H50   H     H_    0.878874 0.583770 0.958515 0.140196
H51   H     H_    0.620705 0.081995 0.041041 0.120847
H52   H     H_    0.378874 0.083769 0.958515 0.140196
H53   H     H_    0.399785 0.487676 0.080806 0.054350
H54   H     H_    0.600139 0.486656 0.919676 0.061641
H55   H     H_    0.899786 0.987676 0.080806 0.054349
H56   H     H_    0.100140 0.986656 0.919675 0.061648
H57   H     H_    0.419173 0.519877 0.952101 0.075559
H58   H     H_    0.581563 0.521447 0.049211 0.080219
H59   H     H_    0.919173 0.019876 0.952101 0.075560
H60   H     H_    0.081563 0.021449 0.049211 0.080221
O1    O     O_R   0.214300 0.709080 0.827500 -0.495259
O2    O     O_R   0.785700 0.709080 0.172500 -0.503128
O3    O     O_R   0.714300 0.209080 0.827500 -0.495265
O4    O     O_R   0.285700 0.209080 0.172500 -0.503128
O5    O     O_R   0.445900 0.919370 0.676500 -0.507938
O6    O     O_R   0.554100 0.919370 0.323500 -0.510521
O7    O     O_R   0.945900 0.419370 0.676500 -0.507938
O8    O     O_R   0.054100 0.419370 0.323500 -0.510521
O9    O     O_R   0.456660 0.717710 0.669820 -0.522257
O10   O     O_R   0.543340 0.717710 0.330180 -0.513036
O11   O     O_R   0.956660 0.217710 0.669820 -0.522256
O12   O     O_R   0.043340 0.217710 0.330180 -0.513036
O13   O     O_R   0.320590 0.625770 0.672930 -0.509273
O14   O     O_R   0.679410 0.625770 0.327070 -0.516990
O15   O     O_R   0.820590 0.125770 0.672930 -0.509273
O16   O     O_R   0.179410 0.125770 0.327070 -0.516990
O17   O     O_3   0.334270 0.834280 0.749190 -0.272372
O18   O     O_3   0.665730 0.834280 0.250810 -0.292857
O19   O     O_3   0.834270 0.334280 0.749190 -0.272370
O20   O     O_3   0.165730 0.334280 0.250810 -0.292858
O21   O     O_R   0.236190 0.958390 0.823150 -0.473851
O22   O     O_R   0.763810 0.958390 0.176850 -0.474214
O23   O     O_R   0.736190 0.458390 0.823150 -0.473853
O24   O     O_R   0.263810 0.458390 0.176850 -0.474214
O25   O     O_R   0.332090 0.075280 0.831290 -0.516113
O26   O     O_R   0.667910 0.075280 0.168710 -0.514564
O27   O     O_R   0.832090 0.575280 0.831290 -0.516113
O28   O     O_R   0.167910 0.575280 0.168710 -0.514563
O29   O     O_R   0.446280 0.918040 0.826620 -0.517474
O30   O     O_R   0.553720 0.918040 0.173380 -0.515120
O31   O     O_R   0.946280 0.418040 0.826620 -0.517473
O32   O     O_R   0.053720 0.418040 0.173380 -0.515121
O33   O     O_R   0.457080 0.716270 0.831760 -0.531733
O34   O     O_R   0.542920 0.716270 0.168240 -0.523428
O35   O     O_R   0.957080 0.216270 0.831760 -0.531733
O36   O     O_R   0.042920 0.216270 0.168240 -0.523428
O37   O     O_R   0.320980 0.624440 0.823040 -0.526943
O38   O     O_R   0.679020 0.624440 0.176960 -0.498059
O39   O     O_R   0.820980 0.124440 0.823040 -0.526942
O40   O     O_R   0.179020 0.124440 0.176960 -0.498059
O41   O     O_R   0.213880 0.710510 0.665560 -0.523379
O42   O     O_R   0.786120 0.710510 0.334440 -0.529506
O43   O     O_R   0.713880 0.210510 0.665560 -0.523379
O44   O     O_R   0.286120 0.210510 0.334440 -0.529506
O45   O     O_R   0.235800 0.959720 0.673040 -0.508717
O46   O     O_R   0.764200 0.959720 0.326960 -0.511886
O47   O     O_R   0.735800 0.459720 0.673040 -0.508717
O48   O     O_R   0.264200 0.459720 0.326960 -0.511886
O49   O     O_R   0.331670 0.076720 0.669350 -0.516903
O50   O     O_R   0.668330 0.076720 0.330650 -0.527965
O51   O     O_R   0.831670 0.576720 0.669350 -0.516903
O52   O     O_R   0.168330 0.576720 0.330650 -0.527965
O53   O     O_3   0.358659 0.825545 0.979543 -0.691870
H61   H     H_    0.349745 0.798405 0.929924 0.326589
O54   O     O_3   0.641095 0.824068 0.020376 -0.694645
H62   H     H_    0.650060 0.799245 0.070416 0.323083
O55   O     O_3   0.858658 0.325546 0.979543 -0.691868
H63   H     H_    0.849745 0.298405 0.929924 0.326590
O56   O     O_3   0.141095 0.324067 0.020376 -0.694645
H64   H     H_    0.150060 0.299245 0.070416 0.323082
O57   O     O_3   0.834158 0.840620 0.059503 -0.616959
H65   H     H_    0.878125 0.795911 0.071034 0.311497
O58   O     O_3   0.166821 0.840633 0.941338 -0.628628
H66   H     H_    0.123129 0.795347 0.929921 0.305964
O59   O     O_3   0.334158 0.340620 0.059503 -0.616959
H67   H     H_    0.378125 0.295911 0.071034 0.311497
O60   O     O_3   0.666822 0.340633 0.941337 -0.628629
H68   H     H_    0.623132 0.295350 0.929912 0.305966
O61   O     O_3   0.352431 0.373962 0.923348 -0.650102
H69   H     H_    0.364549 0.395011 0.873666 0.325243
O62   O     O_3   0.648639 0.376007 0.078177 -0.637131
H70   H     H_    0.605940 0.324602 0.076887 0.316120
O63   O     O_3   0.852431 0.873961 0.923348 -0.650106
H71   H     H_    0.864546 0.895010 0.873666 0.325247
O64   O     O_3   0.148638 0.876008 0.078178 -0.637134
H72   H     H_    0.105938 0.824605 0.076888 0.316118

loop_
_geom_bond_atom_site_label_1
_geom_bond_atom_site_label_2
_ccdc_geom_bond_type
Cr8   O20   S    
C73   C77   A    
C83   C87   S    
C55   C56   A    
C108  O44   A    
C67   C83   S    
C4    O24   A    
Cr3   O23   S    
C5    C114  S    
C85   H29   S    
C5    C117  S    
C14   C18   A    
C87   H31   S    
C111  C112  S    
C86   H34   S    
C73   C93   A    
C108  O16   A    
C98   O50   A    
Cr11  O15   S    
C76   C96   A    
Cr8   O32   S    
C84   H28   S    
Cr7   O27   S    
C7    C8    S    
C48   C120  S    
C63   C79   A    
C53   C54   A    
C15   C19   A    
Cr12  O20   S    
C46   C118  S    
O55   H63   S    
C75   C79   A    
C34   O62   S    
C12   C28   A    
C97   O45   A    
C5    C6    S    
C32   C36   S    
C13   C29   S    
C16   C20   A    
C70   C94   A    
C75   C95   A    
C28   H52   S    
C63   C98   S    
C69   C93   A    
Cr12  O36   S    
C42   C53   A    
C71   C87   S    
O61   H69   S    
Cr4   O48   S    
C72   C96   A    
C23   C39   A    
C67   C71   A    
C71   C95   A    
C92   O40   A    
C45   C117  S    
C22   C38   A    
Cr9   O37   S    
Cr5   O17   S    
C49   C57   S    
C41   C102  S    
C57   H7    S    
C21   C37   A    
C33   H57   S    
O59   H67   S    
Cr1   O1    S    
C49   C50   A    
C9    C13   A    
C43   C104  S    
C21   C25   A    
C83   H27   S    
C52   C60   S    
C8    C115  S    
C93   C105  S    
C115  O55   S    
C11   C15   A    
C41   C49   A    
C87   H35   S    
C12   C16   A    
C29   C33   S    
C61   C77   A    
C11   C27   A    
C88   H36   S    
C7    H43   S    
Cr6   O50   S    
Cr6   O26   S    
C76   C80   A    
Cr2   O18   S    
Cr5   O49   S    
O57   H65   S    
C86   H30   S    
Cr1   O17   S    
C103  O11   A    
Cr11  O11   S    
O63   H71   S    
Cr8   O28   S    
C107  O15   A    
Cr10  O10   S    
C3    O27   A    
C109  C113  S    
C104  O8    A    
C99   O47   A    
C81   C85   S    
Cr6   O6    S    
C21   H45   S    
C96   C108  S    
C59   H11   S    
C59   C60   S    
C74   H14   S    
O53   H61   S    
C64   C80   A    
Cr3   O3    S    
C112  H40   S    
C1    C12   S    
C17   C33   S    
Cr2   O2    S    
C2    C11   S    
Cr12  O40   S    
C110  C117  S    
C39   C91   S    
C72   C88   S    
C44   C103  S    
C109  H37   S    
C109  C118  S    
C1    O21   A    
C55   H3    S    
C41   C54   A    
C63   C67   A    
Cr12  O12   S    
C81   H25   S    
C32   H56   S    
C9    C25   A    
C30   O60   S    
C68   C84   S    
C7    C119  S    
O62   H70   S    
C62   C66   A    
C53   H1    S    
O56   H64   S    
Cr6   O18   S    
C77   H17   S    
C37   C89   S    
C101  O9    A    
C30   C34   S    
C45   O33   A    
C6    H42   S    
C4    O28   A    
C82   C86   S    
C97   O49   A    
C29   O59   S    
Cr2   O22   S    
Cr10  O34   S    
Cr3   O19   S    
C111  C120  S    
C82   H22   S    
C7    C116  S    
C76   H16   S    
C23   H47   S    
Cr8   O8    S    
C6    C113  S    
C73   H13   S    
Cr10  O14   S    
Cr4   O44   S    
Cr11  O35   S    
Cr1   O41   S    
C66   C82   S    
C47   O35   A    
Cr9   O13   S    
C100  O52   A    
C58   H10   S    
Cr4   O20   S    
C65   C81   S    
C114  O54   S    
C90   O2    A    
C20   C40   A    
C34   H58   S    
C68   C72   A    
C33   O61   S    
C89   O1    A    
Cr4   O4    S    
Cr6   O30   S    
C46   O34   A    
C50   C58   S    
Cr7   O51   S    
C78   H18   S    
C103  O7    A    
C40   C92   S    
C15   C31   S    
C18   C34   S    
Cr9   O33   S    
C75   H15   S    
C114  C118  S    
C22   C26   A    
C95   C107  S    
C42   C50   A    
Cr3   O47   S    
C113  C117  S    
C110  H38   S    
C104  O12   A    
Cr7   O19   S    
C64   C97   S    
Cr2   O42   S    
C56   H4    S    
C19   C35   S    
C2    O22   A    
C23   C27   A    
C10   C14   A    
Cr8   O52   S    
C36   O64   S    
Cr3   O43   S    
Cr10  O18   S    
C61   C100  S    
C51   C59   S    
C17   C37   A    
C31   H55   S    
O58   H66   S    
C70   C86   S    
C42   C101  S    
C64   C68   A    
C110  C114  S    
C112  C116  S    
C69   C85   S    
C81   H21   S    
C8    C120  S    
Cr12  O16   S    
C79   H19   S    
Cr4   O24   S    
C35   O63   S    
Cr11  O39   S    
C22   H46   S    
C80   H20   S    
C48   O36   A    
C107  O43   A    
C94   C106  S    
C35   H59   S    
C106  O42   A    
C36   H60   S    
C105  O41   A    
C5    H41   S    
C62   C78   A    
Cr1   O45   S    
C24   C28   A    
C92   O4    A    
Cr7   O7    S    
C44   C52   A    
C106  O14   A    
C112  C119  S    
C111  C115  S    
O54   H62   S    
C8    H44   S    
C105  O13   A    
C98   O46   A    
C116  O56   S    
Cr7   O31   S    
C16   C32   S    
C48   O32   A    
C91   O3    A    
C38   C90   S    
C115  C119  S    
C2    O26   A    
C46   O30   A    
C57   H9    S    
C32   O58   S    
O64   H72   S    
C85   H33   S    
Cr9   O17   S    
C102  O6    A    
C60   H6    S    
C18   C38   A    
C82   H26   S    
C51   C52   A    
C3    C10   S    
C88   H32   S    
C109  C110  S    
C60   H12   S    
Cr5   O29   S    
Cr11  O19   S    
C62   C99   S    
C84   H24   S    
Cr9   O9    S    
C10   C26   A    
C57   C58   S    
Cr2   O46   S    
C84   C88   S    
C58   H8    S    
C43   C51   A    
C65   C69   A    
C24   H48   S    
C31   C35   S    
C47   C119  S    
C26   H50   S    
C29   H53   S    
C100  O48   A    
C44   C55   A    
C101  O5    A    
C99   O51   A    
C116  C120  S    
C27   H51   S    
C45   O29   A    
C24   C40   A    
C25   H49   S    
Cr5   O25   S    
Cr5   O5    S    
C13   C17   A    
C20   C36   S    
C61   C65   A    
C43   C56   A    
C83   H23   S    
C66   C70   A    
C47   O31   A    
C102  O10   A    
C19   C39   A    
C113  O53   S    
C74   C78   A    
C91   O39   A    
C74   C94   A    
C30   H54   S    
Cr10  O38   S    
C90   O38   A    
C31   O57   S    
C1    O25   A    
C89   O37   A    
C4    C9    S    
C3    O23   A    
C6    C118  S    
C59   H5    S    
C14   C30   S    
O60   H68   S    
Cr1   O21   S    
C111  H39   S    
C54   H2    S    
