data_mof_unit_2493.cif
_audit_creation_date              2012-12-10T18:59:16-0500
_audit_creation_method            fapswitch 2.2
_symmetry_space_group_name_H-M    P1
_symmetry_Int_Tables_number       1
_space_group_crystal_system       triclinic
_cell_length_a                    10.886844
_cell_length_b                    10.859463
_cell_length_c                    9.535838
_cell_angle_alpha                 91.063375
_cell_angle_beta                  91.358001
_cell_angle_gamma                 91.069234
_cell_volume                      1126.66060526

loop_
_atom_site_label
_atom_site_type_symbol
_atom_type_description
_atom_site_fract_x
_atom_site_fract_y
_atom_site_fract_z
_atom_type_partial_charge
C1    C     C_R   0.495857 0.262477 0.498654 0.813160
C2    C     C_R   0.067717 0.553974 0.621487 0.098043
C3    C     C_R   0.129585 0.519966 0.498552 -0.137885
C4    C     C_R   0.063505 0.475749 0.380626 -0.236250
C5    C     C_R   0.937189 0.460315 0.383129 -0.035659
C6    C     C_R   0.873784 0.486076 0.508128 -0.178225
C7    C     C_R   0.462779 0.067116 0.619878 0.128950
C8    C     C_R   0.479913 0.129818 0.495702 -0.097866
C9    C     C_R   0.477268 0.062113 0.368807 -0.190379
C10   C     C_R   0.477612 0.933549 0.370755 -0.211187
C11   C     C_R   0.481885 0.871427 0.499427 -0.099889
C12   C     C_R   0.263073 0.509883 0.499138 0.809643
C13   C     C_R   0.463341 0.940314 0.622275 0.118889
C14   C     C_3   0.528925 0.942853 0.761706 -0.493797
C15   C     C_3   0.527942 0.082060 0.758167 -0.441024
C16   C     C_R   0.596654 0.550490 0.077449 0.292128
C17   C     C_R   0.415782 0.431651 0.069731 0.027885
C18   C     C_R   0.414662 0.433848 0.920825 -0.114003
C19   C     C_R   0.596934 0.549902 0.930122 0.239676
C20   C     C_3   0.641443 0.679803 0.929275 -0.532228
C21   C     C_3   0.643656 0.679669 0.088168 -0.494415
C22   C     C_R   0.496692 0.738069 0.500714 0.792140
C23   C     C_R   0.738186 0.492831 0.502239 0.801216
C24   C     C_R   0.127619 0.618622 0.734860 -0.150678
C25   C     C_R   0.073589 0.626722 0.865311 -0.145254
C26   C     C_R   0.960135 0.570266 0.884717 -0.160347
C27   C     C_R   0.895308 0.516686 0.770557 -0.155857
C28   C     C_R   0.943025 0.519169 0.633262 0.089933
Cu1   Cu    Cu3+1 0.499990 0.499980 0.640670 0.936707
Cu2   Cu    Cu3+1 0.500010 0.500020 0.359330 0.965224
H1    H     H_    0.110840 0.450345 0.286095 0.182985
H2    H     H_    0.623188 0.905554 0.756522 0.206923
H3    H     H_    0.468919 0.124112 0.838972 0.197921
H4    H     H_    0.621154 0.124691 0.750177 0.205082
H5    H     H_    0.345320 0.381631 0.860617 0.154992
H6    H     H_    0.737985 0.685990 0.135295 0.197843
H7    H     H_    0.576668 0.743574 0.133783 0.209056
H8    H     H_    0.216339 0.663436 0.723844 0.150832
H9    H     H_    0.121797 0.672864 0.952512 0.138061
H10   H     H_    0.921359 0.569309 0.988177 0.149242
H11   H     H_    0.812062 0.467718 0.795149 0.173772
H12   H     H_    0.481930 0.107711 0.268956 0.172876
H13   H     H_    0.480729 0.884020 0.271728 0.156664
H14   H     H_    0.469435 0.907014 0.845412 0.193462
N1    N     N_R   0.500790 0.500930 0.147930 -0.213211
N2    N     N_R   0.500790 0.500890 0.852020 -0.194503
O1    O     O_R   0.500000 0.319640 0.618810 -0.585440
O2    O     O_R   0.500010 0.319680 0.381230 -0.576740
O3    O     O_R   0.319640 0.499980 0.618820 -0.591820
O4    O     O_R   0.319650 0.500020 0.381230 -0.578979
O5    O     O_R   0.499990 0.680320 0.618770 -0.583387
O6    O     O_R   0.500000 0.680360 0.381190 -0.590619
O7    O     O_R   0.680350 0.499980 0.618770 -0.593743
O8    O     O_R   0.680360 0.500020 0.381180 -0.567783
C29   C     C_1   0.330268 0.350172 0.135938 0.277292
N3    N     N_1   0.261975 0.283058 0.187846 -0.313236
H15   H     H_    0.733355 0.691417 0.883164 0.208957
H16   H     H_    0.569273 0.738013 0.885755 0.218810
C30   C     C_1   0.877516 0.408419 0.257644 0.265597
N4    N     N_1   0.830271 0.366499 0.157258 -0.309556

loop_
_geom_bond_atom_site_label_1
_geom_bond_atom_site_label_2
_ccdc_geom_bond_type
C16   N1    A    
C8    C9    A    
C12   O4    A    
C29   N3    T    
C1    O2    A    
C23   O7    A    
Cu1   Cu2   S    
C1    C8    S    
C11   C13   A    
C9    C10   A    
C27   H11   S    
C15   H4    S    
C24   H8    S    
C19   C20   S    
C9    H12   S    
Cu1   N2    S    
C20   C21   S    
C7    C15   S    
C12   O3    A    
C10   H13   S    
C19   N2    A    
C7    C8    A    
C21   H6    S    
Cu1   O3    S    
C13   C14   S    
C25   H9    S    
Cu2   N1    S    
Cu2   O8    S    
C26   H10   S    
C26   C27   A    
C16   C21   S    
C30   N4    T    
Cu1   O7    S    
Cu1   O1    S    
C16   C19   A    
C6    C23   S    
C18   N2    A    
C22   O6    A    
C25   C26   A    
C17   N1    A    
C17   C18   A    
C2    C3    A    
C2    C24   A    
C5    C6    A    
Cu2   O4    S    
C4    H1    S    
C2    C28   A    
C10   C11   A    
C5    C30   S    
Cu1   O5    S    
C20   H16   S    
C3    C4    A    
C7    C13   A    
C21   H7    S    
C24   C25   A    
C23   O8    A    
C14   H14   S    
C18   H5    S    
Cu2   O2    S    
C27   C28   A    
C17   C29   S    
C14   C15   S    
C4    C5    A    
Cu2   O6    S    
C3    C12   S    
C11   C22   S    
C20   H15   S    
C14   H2    S    
C15   H3    S    
C6    C28   A    
C1    O1    A    
C22   O5    A    
