data_mof_unit_3665.cif
_audit_creation_date              2012-12-11T16:45:23-0500
_audit_creation_method            fapswitch 2.2
_symmetry_space_group_name_H-M    P1
_symmetry_Int_Tables_number       1
_space_group_crystal_system       triclinic
_cell_length_a                    20.066281
_cell_length_b                    17.220008
_cell_length_c                    15.621434
_cell_angle_alpha                 89.823689
_cell_angle_beta                  52.592441
_cell_angle_gamma                 90.223164
_cell_volume                      4287.5683982

loop_
_atom_site_label
_atom_site_type_symbol
_atom_type_description
_atom_site_fract_x
_atom_site_fract_y
_atom_site_fract_z
_atom_type_partial_charge
C1    C     C_R   0.860639 0.687401 0.013454 -0.044825
C2    C     C_R   0.156964 0.675945 0.957513 -0.109226
C3    C     C_R   0.360640 0.187401 0.013454 -0.044825
C4    C     C_R   0.656964 0.175945 0.957513 -0.109226
C5    C     C_R   0.820704 0.349200 0.322535 0.066355
C6    C     C_R   0.119102 0.319755 0.693913 0.109604
C7    C     C_R   0.320704 0.849200 0.322535 0.066355
C8    C     C_R   0.619102 0.819755 0.693913 0.109605
C9    C     C_R   0.852190 0.311565 0.926956 0.076145
C10   C     C_R   0.167710 0.320052 0.046251 0.057780
C11   C     C_R   0.352190 0.811565 0.926956 0.076145
C12   C     C_R   0.667710 0.820052 0.046251 0.057780
C13   C     C_R   0.813188 0.643485 0.320346 0.081990
C14   C     C_R   0.107335 0.684112 0.698982 0.082744
C15   C     C_R   0.313188 0.143485 0.320346 0.081989
C16   C     C_R   0.607335 0.184112 0.698982 0.082743
C17   C     C_R   0.737227 0.656575 0.513229 0.052793
C18   C     C_R   0.159133 0.703782 0.512809 0.165887
C19   C     C_R   0.237227 0.156575 0.513229 0.052792
C20   C     C_R   0.659133 0.203782 0.512809 0.165888
C21   C     C_R   0.742558 0.674699 0.422399 0.009133
C22   C     C_R   0.128816 0.736768 0.612147 -0.005161
C23   C     C_R   0.242558 0.174699 0.422399 0.009133
C24   C     C_R   0.628816 0.236768 0.612147 -0.005162
C25   C     C_R   0.184273 0.229179 0.434507 -0.078362
C26   C     C_R   0.638382 0.318134 0.615308 -0.107739
C27   C     C_R   0.684273 0.729179 0.434507 -0.078362
C28   C     C_R   0.138382 0.818133 0.615308 -0.107740
C29   C     C_R   0.138791 0.275093 0.528499 -0.211781
C30   C     C_R   0.699995 0.357063 0.517826 -0.229554
C31   C     C_R   0.638791 0.775094 0.528498 -0.211781
C32   C     C_R   0.199995 0.857063 0.517826 -0.229554
C33   C     C_R   0.146583 0.262658 0.611309 0.087980
C34   C     C_R   0.746662 0.315951 0.420141 0.077291
C35   C     C_R   0.646583 0.762658 0.611309 0.087980
C36   C     C_R   0.246663 0.815951 0.420141 0.077291
C37   C     C_R   0.687702 0.695968 0.606796 0.102139
C38   C     C_R   0.219534 0.741672 0.419351 0.075783
C39   C     C_R   0.187702 0.195968 0.606796 0.102138
C40   C     C_R   0.719534 0.241672 0.419351 0.075782
C41   C     C_3   0.734201 0.665214 0.648245 -0.412139
C42   C     C_3   0.261526 0.668353 0.357294 -0.376885
C43   C     C_3   0.234201 0.165214 0.648245 -0.412139
C44   C     C_3   0.761526 0.168353 0.357294 -0.376885
C45   C     C_R   0.853684 0.326338 0.219338 -0.011437
C46   C     C_R   0.103548 0.304022 0.790817 -0.124711
C47   C     C_R   0.353684 0.826338 0.219338 -0.011438
C48   C     C_R   0.603548 0.804022 0.790817 -0.124711
C49   C     C_3   0.794772 0.627424 0.537262 -0.470022
C50   C     C_3   0.195835 0.625405 0.462781 -0.471615
C51   C     C_3   0.294772 0.127424 0.537262 -0.470022
C52   C     C_3   0.695835 0.125405 0.462781 -0.471616
C53   C     C_2   0.768640 0.196899 0.978522 -0.068583
C54   C     C_2   0.267441 0.219988 0.968861 -0.122007
C55   C     C_2   0.268640 0.696899 0.978522 -0.068583
C56   C     C_2   0.767441 0.719988 0.968861 -0.122007
C57   C     C_2   0.306959 0.756303 0.909456 -0.131413
C58   C     C_2   0.721335 0.769128 0.050289 -0.178157
C59   C     C_2   0.806959 0.256303 0.909456 -0.131412
C60   C     C_2   0.221335 0.269128 0.050289 -0.178157
C61   C     C_R   0.866497 0.388539 0.897045 -0.125282
C62   C     C_R   0.141521 0.391450 0.092527 -0.083730
C63   C     C_R   0.366498 0.888539 0.897045 -0.125282
C64   C     C_R   0.641521 0.891449 0.092527 -0.083729
C65   C     C_R   0.859564 0.581224 0.312228 -0.111982
C66   C     C_R   0.087189 0.607658 0.702400 -0.115932
C67   C     C_R   0.359564 0.081224 0.312228 -0.111981
C68   C     C_R   0.587189 0.107658 0.702400 -0.115931
C69   C     C_R   0.884005 0.297799 0.982732 -0.149112
C70   C     C_R   0.131239 0.302366 0.997902 -0.114694
C71   C     C_R   0.384005 0.797799 0.982732 -0.149112
C72   C     C_R   0.631239 0.802366 0.997902 -0.114694
C73   C     C_R   0.855436 0.675963 0.218866 -0.035391
C74   C     C_R   0.102620 0.697646 0.790260 -0.086846
C75   C     C_R   0.355436 0.175963 0.218866 -0.035391
C76   C     C_R   0.602620 0.197646 0.790260 -0.086846
C77   C     C_R   0.871608 0.407342 0.315692 -0.098683
C78   C     C_R   0.099116 0.396545 0.694026 -0.077119
C79   C     C_R   0.371608 0.907342 0.315692 -0.098682
C80   C     C_R   0.599116 0.896545 0.694026 -0.077119
C81   C     C_R   0.850325 0.597065 0.918850 -0.100795
C82   C     C_R   0.165160 0.586612 0.055983 -0.064584
C83   C     C_R   0.350325 0.097065 0.918850 -0.100795
C84   C     C_R   0.665160 0.086613 0.055983 -0.064584
C85   C     C_R   0.820674 0.667759 0.970686 0.097841
C86   C     C_R   0.204848 0.650741 0.987952 0.040597
C87   C     C_R   0.320674 0.167759 0.970686 0.097841
C88   C     C_R   0.704848 0.150741 0.987952 0.040596
H1    H     H_    0.296341 0.769598 0.850667 0.126907
H2    H     H_    0.725217 0.773489 0.116388 0.162331
H3    H     H_    0.796341 0.269598 0.850667 0.126907
H4    H     H_    0.225217 0.273489 0.116388 0.162331
H5    H     H_    0.827519 0.285575 0.195487 0.101861
H6    H     H_    0.098310 0.247599 0.823049 0.156218
H7    H     H_    0.327519 0.785575 0.195487 0.101861
H8    H     H_    0.598310 0.747599 0.823049 0.156218
H9    H     H_    0.870223 0.429452 0.381323 0.121786
H10   H     H_    0.094039 0.425305 0.636609 0.121435
H11   H     H_    0.370224 0.929452 0.381323 0.121786
H12   H     H_    0.594039 0.925305 0.636609 0.121436
N1    N     N_R   0.908660 0.628630 0.995840 -0.059712
N2    N     N_R   0.091340 0.628630 0.004160 -0.055938
N3    N     N_R   0.408660 0.128630 0.995840 -0.059711
N4    N     N_R   0.591340 0.128630 0.004160 -0.055938
N5    N     N_R   0.922310 0.368460 0.151950 -0.042520
N6    N     N_R   0.077690 0.368460 0.848050 -0.058201
N7    N     N_R   0.422310 0.868460 0.151950 -0.042520
N8    N     N_R   0.577690 0.868460 0.848050 -0.058201
N9    N     N_R   0.903470 0.421430 0.936420 -0.053416
N10   N     N_R   0.096530 0.421430 0.063580 -0.057988
N11   N     N_R   0.403470 0.921430 0.936420 -0.053416
N12   N     N_R   0.596530 0.921430 0.063580 -0.057988
N13   N     N_R   0.927500 0.575670 0.211370 -0.040343
N14   N     N_R   0.072500 0.575670 0.788630 -0.045947
N15   N     N_R   0.427500 0.075670 0.211370 -0.040343
N16   N     N_R   0.572500 0.075670 0.788630 -0.045947
N17   N     N_R   0.908660 0.365680 0.995820 -0.072055
N18   N     N_R   0.091340 0.365680 0.004180 -0.072876
N19   N     N_R   0.408660 0.865680 0.995820 -0.072055
N20   N     N_R   0.591340 0.865680 0.004180 -0.072876
N21   N     N_R   0.922310 0.631420 0.151980 -0.058845
N22   N     N_R   0.077690 0.631420 0.848020 -0.051114
N23   N     N_R   0.422310 0.131420 0.151980 -0.058845
N24   N     N_R   0.577690 0.131420 0.848020 -0.051114
N25   N     N_R   0.927500 0.426330 0.211360 -0.051354
N26   N     N_R   0.072500 0.426330 0.788640 -0.049217
N27   N     N_R   0.427500 0.926330 0.211360 -0.051354
N28   N     N_R   0.572500 0.926330 0.788640 -0.049217
N29   N     N_R   0.903470 0.570760 0.936440 -0.070616
N30   N     N_R   0.096530 0.570760 0.063560 -0.062831
N31   N     N_R   0.403470 0.070760 0.936440 -0.070616
N32   N     N_R   0.596530 0.070760 0.063560 -0.062831
Ni1   Ni    Ni4+2 0.000000 0.630300 0.000000 0.233699
Ni2   Ni    Ni4+2 0.500000 0.130300 0.000000 0.233699
Ni3   Ni    Ni4+2 1.000000 0.369700 0.000000 0.271678
Ni4   Ni    Ni4+2 0.500000 0.869700 0.000000 0.271678
Ni5   Ni    Ni4+2 0.988090 0.497570 0.863760 0.245563
Ni6   Ni    Ni4+2 0.011910 0.497570 0.136240 0.276418
Ni7   Ni    Ni4+2 0.488090 0.997570 0.863760 0.245563
Ni8   Ni    Ni4+2 0.511910 0.997570 0.136240 0.276418
H13   H     H_    0.863188 0.743792 0.041502 0.105288
H14   H     H_    0.165044 0.727876 0.913051 0.105600
H15   H     H_    0.363189 0.243792 0.041502 0.105288
H16   H     H_    0.665044 0.227876 0.913051 0.105600
H17   H     H_    0.099397 0.321450 0.535739 0.167760
H18   H     H_    0.713408 0.417983 0.518542 0.158648
H19   H     H_    0.599397 0.821450 0.535739 0.167760
H20   H     H_    0.213408 0.917983 0.518542 0.158648
C89   C     C_2   0.776576 0.722965 0.674865 1.064700
O1    O     O_2   0.810528 0.699339 0.713443 -0.613849
O2    O     O_R   0.783785 0.801396 0.646833 -0.762753
H21   H     H_    0.814961 0.832983 0.667156 0.336189
C90   C     C_2   0.251116 0.658197 0.269740 1.003790
O3    O     O_2   0.299502 0.617535 0.191773 -0.559859
O4    O     O_R   0.184619 0.695391 0.280056 -0.788950
H22   H     H_    0.182468 0.685309 0.218216 0.309236
C91   C     C_2   0.276576 0.222965 0.674865 1.064700
O5    O     O_2   0.310528 0.199339 0.713442 -0.613849
O6    O     O_R   0.283785 0.301396 0.646833 -0.762753
H23   H     H_    0.314961 0.332983 0.667156 0.336188
C92   C     C_2   0.751116 0.158197 0.269740 1.003789
O7    O     O_2   0.799502 0.117535 0.191773 -0.559859
O8    O     O_R   0.684619 0.195391 0.280057 -0.788950
H24   H     H_    0.682467 0.185309 0.218216 0.309236
C93   C     C_2   0.683412 0.602592 0.733259 1.206198
O9    O     O_2   0.606797 0.603693 0.791597 -0.616029
O10   O     O_R   0.724601 0.540291 0.739623 -0.739551
H25   H     H_    0.684295 0.501269 0.797596 0.361421
C94   C     C_2   0.349178 0.653927 0.323336 1.116261
O11   O     O_2   0.383424 0.592175 0.281360 -0.567639
O12   O     O_R   0.388523 0.707843 0.346333 -0.796772
H26   H     H_    0.445080 0.689519 0.323589 0.354092
C95   C     C_2   0.183412 0.102592 0.733259 1.206198
O13   O     O_2   0.106797 0.103693 0.791597 -0.616029
O14   O     O_R   0.224601 0.040291 0.739622 -0.739551
H27   H     H_    0.184296 0.001269 0.797596 0.361421
C96   C     C_2   0.849178 0.153927 0.323336 1.116260
O15   O     O_2   0.883424 0.092175 0.281360 -0.567639
O16   O     O_R   0.888523 0.207843 0.346333 -0.796772
H28   H     H_    0.945080 0.189519 0.323589 0.354092
C97   C     C_2   0.882519 0.662317 0.464201 1.123963
O17   O     O_2   0.893389 0.729911 0.433622 -0.595902
O18   O     O_R   0.951235 0.615844 0.430525 -0.737206
H29   H     H_    0.006432 0.644965 0.381501 0.375132
C98   C     C_2   0.137702 0.571258 0.459642 1.080604
O19   O     O_2   0.068930 0.593179 0.488751 -0.574203
O20   O     O_R   0.162747 0.494772 0.426070 -0.778329
H30   H     H_    0.117613 0.462438 0.432368 0.336763
C99   C     C_2   0.382519 0.162318 0.464201 1.123963
O21   O     O_2   0.393389 0.229912 0.433622 -0.595903
O22   O     O_R   0.451235 0.115844 0.430525 -0.737206
H31   H     H_    0.506432 0.144966 0.381500 0.375132
C100  C     C_2   0.637702 0.071258 0.459642 1.080605
O23   O     O_2   0.568929 0.093179 0.488751 -0.574203
O24   O     O_R   0.662746 0.994773 0.426071 -0.778329
H32   H     H_    0.617613 0.962439 0.432369 0.336763
H33   H     H_    0.795523 0.562961 0.541330 0.172009
H34   H     H_    0.222631 0.596493 0.499489 0.154226
H35   H     H_    0.295524 0.062961 0.541330 0.172009
H36   H     H_    0.722631 0.096493 0.499488 0.154226
H37   H     H_    0.776734 0.186629 0.039771 0.132081
H38   H     H_    0.266206 0.218267 0.900699 0.198007
H39   H     H_    0.276734 0.686629 0.039771 0.132081
H40   H     H_    0.766206 0.718267 0.900699 0.198008
H41   H     H_    0.859538 0.414504 0.840216 0.134520
H42   H     H_    0.145225 0.412371 0.154134 0.142106
H43   H     H_    0.359538 0.914504 0.840216 0.134520
H44   H     H_    0.645224 0.912371 0.154134 0.142106
H45   H     H_    0.844909 0.544740 0.376159 0.094675
H46   H     H_    0.068622 0.580372 0.658194 0.151741
H47   H     H_    0.344909 0.044740 0.376159 0.094675
H48   H     H_    0.568622 0.080372 0.658194 0.151740
C101  C     C_2   0.920151 0.223101 0.983283 0.999562
O25   O     O_2   0.942826 0.215231 0.039444 -0.642936
O26   O     O_R   0.930900 0.162121 0.917126 -0.745250
H49   H     H_    0.949206 0.112431 0.932037 0.394068
C102  C     C_2   0.100746 0.223353 0.004336 1.079928
O27   O     O_2   0.134255 0.184088 0.923588 -0.654432
O28   O     O_R   0.040369 0.190330 0.105308 -0.752796
H50   H     H_    0.028717 0.133901 0.100092 0.375490
C103  C     C_2   0.420151 0.723101 0.983283 0.999563
O29   O     O_2   0.442826 0.715231 0.039444 -0.642936
O30   O     O_R   0.430900 0.662121 0.917126 -0.745250
H51   H     H_    0.449206 0.612431 0.932037 0.394068
C104  C     C_2   0.600746 0.723353 0.004336 1.079927
O31   O     O_2   0.634255 0.684088 0.923588 -0.654432
O32   O     O_R   0.540369 0.690330 0.105308 -0.752796
H52   H     H_    0.528717 0.633901 0.100092 0.375490
H53   H     H_    0.840259 0.728776 0.197209 0.100102
H54   H     H_    0.106504 0.753063 0.819162 0.104141
H55   H     H_    0.340259 0.228776 0.197209 0.100102
H56   H     H_    0.606504 0.253063 0.819162 0.104141
C105  C     C_2   0.839882 0.565470 0.841056 1.039367
O33   O     O_2   0.769930 0.562874 0.864204 -0.583198
O34   O     O_R   0.909598 0.539755 0.740851 -0.807782
H57   H     H_    0.894248 0.520356 0.693611 0.361084
C106  C     C_2   0.184322 0.552843 0.124578 0.928982
O35   O     O_2   0.256359 0.534641 0.085520 -0.573152
O36   O     O_R   0.119724 0.540823 0.234058 -0.791264
H58   H     H_    0.140567 0.516672 0.272894 0.352040
C107  C     C_2   0.339882 0.065470 0.841056 1.039367
O37   O     O_2   0.269930 0.062874 0.864204 -0.583198
O38   O     O_R   0.409598 0.039755 0.740851 -0.807782
H59   H     H_    0.394248 0.020356 0.693611 0.361085
C108  C     C_2   0.684322 0.052843 0.124577 0.928982
O39   O     O_2   0.756359 0.034641 0.085520 -0.573152
O40   O     O_R   0.619724 0.040823 0.234058 -0.791265
H60   H     H_    0.640567 0.016671 0.272893 0.352040
C109  C     C_2   0.168099 0.239138 0.354194 0.995691
O41   O     O_2   0.181769 0.185998 0.293804 -0.651204
O42   O     O_R   0.132478 0.308021 0.351851 -0.802802
H61   H     H_    0.119374 0.306427 0.298649 0.320911
C110  C     C_2   0.584913 0.362766 0.716666 1.018717
O43   O     O_2   0.608335 0.426057 0.724799 -0.638525
O44   O     O_R   0.505798 0.333927 0.801577 -0.799625
H62   H     H_    0.474888 0.369802 0.866018 0.337702
C111  C     C_2   0.668099 0.739138 0.354194 0.995691
O45   O     O_2   0.681769 0.685998 0.293804 -0.651204
O46   O     O_R   0.632478 0.808021 0.351851 -0.802802
H63   H     H_    0.619374 0.806427 0.298649 0.320912
C112  C     C_2   0.084913 0.862766 0.716666 1.018717
O47   O     O_2   0.108335 0.926057 0.724799 -0.638525
O48   O     O_R   0.005798 0.833927 0.801577 -0.799625
H64   H     H_    0.974888 0.869802 0.866018 0.337702

loop_
_geom_bond_atom_site_label_1
_geom_bond_atom_site_label_2
_ccdc_geom_bond_type
C82   N30   A    
C15   C75   A    
O12   H26   S    
N26   Ni5   S    
C91   O5    D    
C71   C103  S    
C94   O11   D    
N12   Ni8   S    
C83   C87   A    
O36   H58   S    
C81   C105  S    
C74   H54   S    
C61   N9    A    
C91   O6    S    
N10   N18   A    
C73   H53   S    
C92   O7    D    
C50   H34   S    
N11   Ni7   S    
O48   H64   S    
C54   C60   D    
C97   O17   D    
N12   N20   A    
C83   N31   A    
C100  O23   D    
C64   H44   S    
C109  O41   D    
C93   O9    D    
N4    Ni2   S    
C37   C41   S    
C75   N23   A    
C14   C74   A    
C79   H11   S    
C35   C37   A    
N28   Ni7   S    
C24   C26   A    
C107  O37   D    
C11   C63   A    
C89   O2    S    
O6    H23   S    
C29   H17   S    
C110  O43   D    
C12   C64   A    
C11   C71   A    
C98   O20   S    
C41   C89   S    
C2    N2    A    
C28   C112  S    
C82   C106  S    
C29   C33   A    
C107  O38   S    
C25   C29   A    
N9    Ni5   S    
C111  O45   D    
C7    C36   S    
N14   Ni5   S    
C11   C57   S    
C99   O22   S    
C67   N15   A    
O38   H59   S    
C48   H8    S    
O8    H24   S    
C25   C109  S    
C1    H13   S    
N32   Ni8   S    
O30   H51   S    
C100  O24   S    
C41   C93   S    
N27   Ni8   S    
C78   H10   S    
O34   H57   S    
C77   H9    S    
C13   C73   A    
C52   H36   S    
C90   O4    S    
C6    C46   A    
C105  O33   D    
C60   H4    S    
C65   H45   S    
C51   C99   S    
N5    Ni3   S    
N16   Ni7   S    
C12   C58   S    
C67   H47   S    
C44   C52   S    
C15   C23   S    
C62   H42   S    
C21   C27   A    
C15   C67   A    
C16   C24   S    
C22   C28   A    
C108  O39   D    
C80   H12   S    
C63   N11   A    
C94   O12   S    
C93   O10   S    
N1    Ni1   S    
C66   N14   A    
C41   C49   S    
C92   O8    S    
C45   N5    A    
C30   H18   S    
C97   O18   S    
C53   C59   D    
C27   C111  S    
C109  O42   S    
C70   C102  S    
N15   N23   A    
C30   C34   A    
N23   Ni2   S    
C3    C87   A    
O22   H31   S    
C76   N24   A    
C84   C88   A    
C28   C32   A    
C42   C90   S    
C3    H15   S    
O42   H61   S    
C17   C49   S    
O28   H50   S    
C112  O48   S    
N31   Ni7   S    
N20   Ni4   S    
C13   C65   A    
C80   N28   A    
C96   O16   S    
C102  O27   D    
C95   O13   D    
C27   C31   A    
C84   N32   A    
C53   H37   S    
C51   H35   S    
C84   C108  S    
C9    C59   S    
C8    C35   S    
C7    C47   A    
N9    N17   A    
C19   C23   A    
O26   H49   S    
C8    C48   A    
N22   Ni1   S    
C76   H56   S    
C103  O29   D    
C9    C61   A    
C42   C94   S    
C105  O34   S    
C110  O44   S    
O32   H52   S    
C46   H6    S    
C20   C40   A    
N10   Ni6   S    
O2    H21   S    
C55   H39   S    
C5    C34   S    
C72   N20   A    
C104  O31   D    
C14   C66   A    
C69   C101  S    
C33   C39   A    
C49   H33   S    
C75   H55   S    
C58   H2    S    
N8    Ni4   S    
C48   N8    A    
C95   O14   S    
C57   H1    S    
C42   C50   S    
C54   C87   S    
C49   C97   S    
C10   C70   A    
N11   N19   A    
N6    Ni3   S    
C74   N22   A    
C68   N16   A    
C45   H5    S    
C26   C30   A    
C73   N21   A    
C72   C104  S    
C106  O36   S    
N30   Ni6   S    
N1    N29   A    
C81   N29   A    
C2    H14   S    
C34   C40   A    
C10   C62   A    
C1    C85   A    
C66   H46   S    
C44   C92   S    
C17   C37   A    
C5    C77   A    
O46   H63   S    
C68   H48   S    
C1    N1    A    
O10   H25   S    
C77   N25   A    
C18   C50   S    
C7    C79   A    
C59   H3    S    
C3    N3    A    
N24   Ni2   S    
C79   N27   A    
C10   C60   S    
N16   N24   A    
C18   C22   A    
C65   N13   A    
N3    Ni2   S    
C52   C100  S    
N2    N30   A    
C9    C69   A    
C43   C91   S    
C26   C110  S    
C44   C96   S    
C4    H16   S    
C56   C85   S    
C39   C43   S    
O40   H60   S    
C32   C36   A    
N17   Ni3   S    
C38   C42   S    
C2    C86   A    
C32   H20   S    
N5    N25   A    
N25   Ni6   S    
C102  O28   S    
N13   N21   A    
N6    N26   A    
C47   N7    A    
N19   Ni4   S    
C6    C33   S    
C71   N19   A    
C103  O30   S    
C16   C68   A    
N21   Ni1   S    
C14   C22   S    
C55   C86   S    
C55   C57   D    
C18   C38   A    
C101  O26   S    
C31   H19   S    
O20   H30   S    
C20   C52   S    
O14   H27   S    
C82   C86   A    
C89   O1    D    
C13   C21   S    
C36   C38   A    
C43   C95   S    
C16   C76   A    
C43   C51   S    
C98   O19   D    
C112  O47   D    
C5    C45   A    
C62   N10   A    
C70   N18   A    
C101  O25   D    
C46   N6    A    
C69   N17   A    
C104  O32   S    
C108  O40   S    
C56   C58   D    
C4    N4    A    
C53   C88   S    
C31   C35   A    
C23   C25   A    
C12   C72   A    
C99   O21   D    
O18   H29   S    
C17   C21   A    
N2    Ni1   S    
C64   N12   A    
C6    C78   A    
C56   H40   S    
N7    N27   A    
O24   H32   S    
N14   N22   A    
C19   C51   S    
C40   C44   S    
N29   Ni5   S    
N15   Ni8   S    
C19   C39   A    
C96   O15   D    
N4    N32   A    
C61   H41   S    
O4    H22   S    
C8    C80   A    
O16   H28   S    
C47   H7    S    
N13   Ni6   S    
C63   H43   S    
N8    N28   A    
C111  O46   S    
C83   C107  S    
C106  O35   D    
C50   C98   S    
N3    N31   A    
C20   C24   A    
C4    C88   A    
C81   C85   A    
N18   Ni3   S    
O44   H62   S    
C54   H38   S    
C90   O3    D    
N7    Ni4   S    
C78   N26   A    
