data_mof_unit_3141.cif
_audit_creation_date              2012-12-11T17:05:33-0500
_audit_creation_method            fapswitch 2.2
_symmetry_space_group_name_H-M    P1
_symmetry_Int_Tables_number       1
_space_group_crystal_system       triclinic
_cell_length_a                    6.975193
_cell_length_b                    14.562329
_cell_length_c                    16.01825
_cell_angle_alpha                 90.158351
_cell_angle_beta                  89.824603
_cell_angle_gamma                 90.086032
_cell_volume                      1627.03897831

loop_
_atom_site_label
_atom_site_type_symbol
_atom_type_description
_atom_site_fract_x
_atom_site_fract_y
_atom_site_fract_z
_atom_type_partial_charge
O1    O     O_R   0.494380 0.415640 0.412830 -0.544760
O2    O     O_R   0.823960 0.405540 0.586560 -0.543476
O3    O     O_R   0.994270 0.584360 0.587170 -0.533974
C1    C     C_R   0.654763 0.383180 0.614907 0.711737
O4    O     O_R   0.824090 0.404620 0.413450 -0.520340
O5    O     O_R   0.994400 0.583430 0.412820 -0.498585
C2    C     C_R   0.655358 0.383127 0.384064 0.830828
O6    O     O_R   0.494250 0.416570 0.587180 -0.542714
O7    O     O_3   0.660800 0.558670 0.500000 -0.349581
V1    V     V_3+5 0.935650 0.489120 0.500000 1.634658
O8    O     O_R   0.324110 0.594460 0.413440 -0.527161
C3    C     C_R   0.155499 0.616438 0.384563 0.861571
O9    O     O_R   0.323980 0.595380 0.586550 -0.548610
C4    C     C_R   0.155004 0.617016 0.615793 0.803427
V2    V     V_3+5 0.435660 0.510880 0.500000 1.610168
O10   O     O_3   0.160640 0.441330 0.500000 -0.384685
C5    C     C_3   0.939821 0.689451 0.725383 -0.345599
H1    H     H_    0.830755 0.707919 0.677767 0.225488
H2    H     H_    0.902718 0.619457 0.748152 0.156601
C6    C     C_3   0.928464 0.757695 0.799052 0.498862
H3    H     H_    0.896295 0.718741 0.856990 0.142553
C7    C     C_3   0.190062 0.786648 0.652090 0.081749
C8    C     C_3   0.289639 0.666103 0.755275 -0.403240
C9    C     C_3   0.143200 0.688551 0.685255 -0.167579
H4    H     H_    0.437807 0.665094 0.729275 0.174371
H5    H     H_    0.261236 0.596380 0.779815 0.251529
C10   C     C_3   0.121916 0.811471 0.809480 -0.240235
C11   C     C_3   0.172047 0.860648 0.724060 0.420506
C12   C     C_3   0.279898 0.737720 0.827146 0.001968
H6    H     H_    0.422016 0.771619 0.832155 0.229590
H7    H     H_    0.341099 0.784878 0.629686 0.159079
C13   C     C_R   0.271813 0.748398 0.184819 0.102202
C14   C     C_R   0.118869 0.810827 0.179380 -0.182502
C15   C     C_R   0.981156 0.810030 0.243910 -0.206399
H8    H     H_    0.867565 0.860623 0.244741 0.158796
C16   C     C_R   0.998578 0.749182 0.311771 0.723453
C17   C     C_R   0.143918 0.683223 0.314510 -0.205517
C18   C     C_R   0.285613 0.688042 0.252935 -0.040480
C19   C     C_3   0.488201 0.714940 0.268031 0.394896
C20   C     C_3   0.479664 0.772602 0.189100 0.048134
H9    H     H_    0.505128 0.847076 0.199931 0.095159
C21   C     C_R   0.489704 0.313985 0.739879 0.048886
C22   C     C_R   0.645721 0.316407 0.684494 -0.081138
C23   C     C_R   0.796877 0.254507 0.698855 -0.068596
H10   H     H_    0.919162 0.253062 0.657316 0.161249
C24   C     C_R   0.787118 0.190291 0.764209 -0.091362
H11   H     H_    0.902328 0.141939 0.771845 0.213304
C25   C     C_R   0.624288 0.184199 0.815781 -0.062036
C26   C     C_R   0.478389 0.248300 0.803116 -0.002105
C27   C     C_3   0.271717 0.230788 0.786905 0.440424
C28   C     C_3   0.282081 0.304156 0.719998 -0.021026
H12   H     H_    0.177905 0.246749 0.841225 0.103949
H13   H     H_    0.256520 0.278523 0.655522 0.169444
C29   C     C_R   0.475924 0.271788 0.292897 -0.015963
C30   C     C_R   0.644927 0.319729 0.311223 -0.229397
C31   C     C_R   0.797075 0.311693 0.253103 0.594233
C32   C     C_R   0.785897 0.249549 0.184924 0.167883
C33   C     C_R   0.622473 0.191558 0.174906 -0.208026
C34   C     C_R   0.465742 0.209276 0.227392 0.039477
C35   C     C_3   0.339659 0.145316 0.275368 -0.397973
C36   C     C_3   0.350168 0.213934 0.347126 0.536405
H14   H     H_    0.410499 0.078587 0.288728 0.201067
H15   H     H_    0.193940 0.139766 0.247973 0.161470
H16   H     H_    0.211073 0.247157 0.362761 0.097682
O11   O     O_R   0.771490 0.080820 0.910070 -0.543952
O12   O     O_R   0.441590 0.092730 0.083780 -0.540582
O13   O     O_R   0.271350 0.913900 0.084390 -0.548751
C37   C     C_R   0.611127 0.117255 0.110775 0.734489
O14   O     O_R   0.441780 0.091820 0.910670 -0.523088
O15   O     O_R   0.271540 0.912980 0.910040 -0.524288
C38   C     C_R   0.610997 0.113688 0.881986 0.780934
O16   O     O_R   0.771300 0.081740 0.084420 -0.537890
O17   O     O_3   0.604960 0.938700 0.997240 -0.352763
V3    V     V_3+5 0.330090 0.008230 0.997220 1.605731
O18   O     O_R   0.941820 0.901930 0.910640 -0.500641
C39   C     C_R   0.110681 0.880374 0.881340 0.830918
O19   O     O_R   0.941630 0.902840 0.083750 -0.536838
C40   C     C_R   0.110292 0.880561 0.112199 0.751166
V4    V     V_3+5 0.830090 0.986410 0.997190 1.628988
O20   O     O_3   0.105080 0.055990 0.997200 -0.369036
Br1   Br    Br    0.414987 0.928210 0.729597 -0.315897
F1    F     F_    0.887939 0.760595 0.379927 -0.599954
Br2   Br    Br    0.650593 0.606193 0.268736 -0.391250
Br3   Br    Br    0.501787 0.792980 0.367992 -0.387096
Br4   Br    Br    0.617373 0.725357 0.092234 -0.362051
F2    F     F_    0.244218 0.144171 0.753170 -0.645487
Br5   Br    Br    0.140827 0.413780 0.750309 -0.593446
F3    F     F_    0.956812 0.364212 0.262068 -0.647310
Br6   Br    Br    0.995800 0.250276 0.106700 -0.437033
F4    F     F_    0.447602 0.179503 0.415413 -0.643457
F5    F     F_    0.774509 0.815869 0.787169 -0.641013
Br7   Br    Br    0.046619 0.815090 0.550391 -0.292576
Br8   Br    Br    0.985010 0.957972 0.700588 -0.256665
Br9   Br    Br    0.243906 0.675845 0.934445 -0.430897

loop_
_geom_bond_atom_site_label_1
_geom_bond_atom_site_label_2
_ccdc_geom_bond_type
O12   C37   A    
C30   C31   A    
O11   V4    S    
C10   C12   S    
O17   V3    S    
C2    C30   S    
C1    O6    A    
O19   C40   A    
C23   H10   S    
C17   C18   A    
C32   Br6   S    
C35   H15   S    
C8    C12   S    
C16   C17   A    
C19   Br3   S    
O16   V4    S    
O5    C3    A    
C12   Br9   S    
C14   C40   S    
C31   F3    S    
V2    O10   S    
O12   V3    S    
C5    C6    S    
C31   C32   A    
C35   H14   S    
C15   H8    S    
C8    H5    S    
C4    C9    S    
C3    C17   S    
O14   C38   A    
C29   C30   A    
O8    V2    S    
C16   F1    S    
O15   V3    S    
C27   H12   S    
C8    C9    S    
O1    V2    S    
C13   C18   A    
O7    V1    S    
C21   C28   S    
C13   C20   S    
C34   C35   S    
V3    O20   S    
O9    C4    A    
O13   C40   A    
C23   C24   A    
C27   C28   S    
C29   C34   A    
O19   V4    S    
C6    F5    S    
C24   C25   A    
C5    C9    S    
C7    H7    S    
C28   Br5   S    
C19   C20   S    
O4    C2    A    
C33   C34   A    
O11   C38   A    
C11   Br8   S    
C28   H13   S    
C20   Br4   S    
C36   H16   S    
O2    C1    A    
O18   C39   A    
C12   H6    S    
C37   O16   A    
C5    H1    S    
O17   V4    S    
O14   V3    S    
O13   V3    S    
O3    C4    A    
C33   C37   S    
C20   H9    S    
C29   C36   S    
O6    V2    S    
O9    V2    S    
C22   C23   A    
O15   C39   A    
C7    C9    S    
C21   C22   A    
C25   C38   S    
C10   C39   S    
O2    V1    S    
C36   F4    S    
C24   H11   S    
C25   C26   A    
C11   Br1   S    
O1    C2    A    
O5    V1    S    
O8    C3    A    
C6    C10   S    
C13   C14   A    
O7    V2    S    
C19   Br2   S    
O4    V1    S    
O3    V1    S    
V1    O10   S    
C32   C33   A    
C18   C19   S    
C5    H2    S    
C1    C22   S    
C14   C15   A    
C15   C16   A    
C8    H4    S    
C27   F2    S    
C21   C26   A    
V4    O20   S    
C6    H3    S    
C26   C27   S    
C10   C11   S    
C7    Br7   S    
C35   C36   S    
C7    C11   S    
O18   V4    S    
