data_mof_unit_566.cif
_audit_creation_date              2013-03-05T16:44:37-0500
_audit_creation_method            fapswitch 2.2
_symmetry_space_group_name_H-M    P1
_symmetry_Int_Tables_number       1
_space_group_crystal_system       triclinic
_cell_length_a                    27.064658
_cell_length_b                    10.687174
_cell_length_c                    9.84321
_cell_angle_alpha                 90.292779
_cell_angle_beta                  90.467178
_cell_angle_gamma                 90.350037
_cell_volume                      2846.91074057

loop_
_atom_site_label
_atom_site_type_symbol
_atom_site_description
_atom_site_fract_x
_atom_site_fract_y
_atom_site_fract_z
_atom_type_partial_charge
O1    O     O_R   0.500010 0.316790 0.614690 -0.607123
O2    O     O_R   0.500000 0.316760 0.385350 -0.610755
C1    C     C_R   0.497593 0.259889 0.499493 0.901761
O3    O     O_R   0.428760 0.500040 0.614660 -0.618681
O4    O     O_R   0.428750 0.500000 0.385310 -0.603721
C2    C     C_R   0.405619 0.502374 0.499633 0.902616
Zn1   Zn    Zn3+2 0.500000 0.500020 0.653130 0.951034
Zn2   Zn    Zn3+2 0.500000 0.499980 0.346870 0.968120
O5    O     O_R   0.500000 0.683240 0.614650 -0.616732
O6    O     O_R   0.499990 0.683210 0.385310 -0.610684
O7    O     O_R   0.571250 0.500000 0.614690 -0.622390
O8    O     O_R   0.571240 0.499960 0.385340 -0.620564
C3    C     C_R   0.497154 0.739689 0.500266 0.881692
C4    C     C_R   0.594576 0.502468 0.500768 0.868655
C5    C     C_R   0.185971 0.656368 0.643458 0.532691
O9    O     O_2   0.212524 0.615078 0.750788 -0.537095
N1    N     N_R   0.208359 0.674465 0.521543 -0.353502
C6    C     C_R   0.183714 0.723155 0.412497 0.521170
C7    C     C_R   0.296822 0.706820 0.552846 -0.076817
C8    C     C_R   0.344746 0.662059 0.550145 -0.239810
C9    C     C_R   0.315739 0.465322 0.450806 0.065000
C10   C     C_R   0.267130 0.510885 0.453789 -0.004867
C11   C     C_R   0.257958 0.631745 0.505713 0.234084
C12   C     C_R   0.107821 0.715276 0.541899 -0.059377
C13   C     C_R   0.135287 0.675712 0.655889 -0.038519
C14   C     C_R   0.111559 0.654137 0.779216 -0.156901
C15   C     C_R   0.132387 0.746603 0.420101 -0.066457
C16   C     C_R   0.354376 0.541772 0.500110 -0.082390
H1    H     H_    0.132924 0.635027 0.870453 0.202777
C17   C     C_R   0.648149 0.521420 0.504387 -0.044202
C18   C     C_R   0.980810 0.640424 0.655602 0.040832
C19   C     C_R   0.975351 0.758008 0.441719 0.053134
C20   C     C_R   0.952543 0.687617 0.545698 0.078001
C21   C     C_R   0.958431 0.553528 0.743761 -0.197399
C22   C     C_R   0.908688 0.522989 0.731553 -0.136223
C23   C     C_R   0.879679 0.576889 0.629690 -0.020450
C24   C     C_R   0.901403 0.659949 0.536843 -0.055260
C25   C     C_R   0.872260 0.712660 0.433111 -0.020942
C26   C     C_R   0.821690 0.683526 0.426195 0.508563
N2    N     N_R   0.801445 0.601172 0.516531 -0.354010
C27   C     C_R   0.829521 0.546662 0.615991 0.507157
C28   C     C_R   0.720263 0.601370 0.623928 -0.097898
C29   C     C_R   0.670120 0.573844 0.621322 -0.218562
C30   C     C_R   0.677238 0.495460 0.390428 -0.225931
C31   C     C_R   0.727871 0.520896 0.394224 -0.089459
C32   C     C_R   0.749482 0.574604 0.510934 0.300311
O10   O     O_2   0.808945 0.462722 0.700939 -0.560903
C33   C     C_R   0.031648 0.671815 0.666055 -0.009336
C34   C     C_R   0.055633 0.718289 0.548723 0.064798
C35   C     C_R   0.027725 0.762689 0.436725 0.042600
C36   C     C_R   0.060252 0.654811 0.786293 -0.022763
H2    H     H_    0.648348 0.596741 0.709784 0.151963
H3    H     H_    0.736522 0.643934 0.713970 0.152197
H4    H     H_    0.893250 0.455462 0.801377 0.193169
H5    H     H_    0.979477 0.501546 0.817682 0.163983
O11   O     O_2   0.208804 0.744901 0.297133 -0.530859
C37   C     C_R   0.104338 0.794710 0.310268 0.003624
H6    H     H_    0.374582 0.721466 0.587360 0.152573
H7    H     H_    0.289651 0.799114 0.593819 0.160609
C38   C     C_R   0.944915 0.814762 0.342510 -0.204218
C39   C     C_R   0.894168 0.793158 0.339206 -0.129404
O12   O     O_2   0.792943 0.737707 0.330807 -0.564128
C40   C     C_R   0.053087 0.803827 0.320442 -0.232435
H8    H     H_    0.959264 0.877690 0.266956 0.148517
H9    H     H_    0.660890 0.455569 0.299079 0.158484
H10   H     H_    0.872358 0.837523 0.260462 0.191374
H11   H     H_    0.750270 0.499179 0.306660 0.155411
H12   H     H_    0.033515 0.836784 0.231793 0.151421
C41   C     C_R   0.500407 0.064044 0.618586 0.135445
C42   C     C_R   0.488700 0.128155 0.500277 -0.175465
C43   C     C_R   0.465872 0.063423 0.390205 -0.072384
C44   C     C_R   0.464309 0.932376 0.393041 -0.085992
C45   C     C_R   0.487466 0.870441 0.502683 -0.180499
C46   C     C_R   0.500055 0.936935 0.619540 0.135825
C47   C     C_3   0.545035 0.930056 0.708267 -0.473246
C48   C     C_3   0.545456 0.071961 0.707368 -0.462646
H13   H     H_    0.536708 0.890069 0.809653 0.212487
H14   H     H_    0.577194 0.887985 0.655664 0.199682
H15   H     H_    0.537384 0.114016 0.808262 0.214170
H16   H     H_    0.577894 0.112683 0.654368 0.201936
C49   C     C_R   0.462555 0.442984 0.070083 0.229196
N3    N     N_R   0.499670 0.499140 0.142800 -0.109076
C50   C     C_R   0.538936 0.547064 0.073136 -0.122156
H17   H     H_    0.569791 0.587956 0.128354 0.153857
C51   C     C_R   0.538923 0.547148 0.929089 -0.128087
H18   H     H_    0.569737 0.588183 0.875669 0.143467
N4    N     N_R   0.499670 0.499180 0.857150 -0.108491
C52   C     C_R   0.462595 0.442808 0.927374 0.206841
C53   C     C_3   0.409279 0.476691 0.920355 -0.469116
C54   C     C_3   0.409190 0.476869 0.074365 -0.457565
H19   H     H_    0.403122 0.570903 0.876023 0.226352
H20   H     H_    0.386318 0.400436 0.874943 0.223040
H21   H     H_    0.402862 0.570861 0.119232 0.234843
H22   H     H_    0.385960 0.401098 0.117448 0.239497
I1    I     I_    0.330208 0.279648 0.382381 -0.355535
C55   C     C_1   0.126111 0.834055 0.183572 0.288659
N5    N     N_1   0.143289 0.865600 0.081919 -0.153885
C56   C     C_1   0.446545 0.127636 0.271962 0.264044
N6    N     N_1   0.431153 0.177237 0.176563 -0.198891
C57   C     C_1   0.440430 0.863730 0.282781 0.235571
N7    N     N_1   0.421300 0.809606 0.194674 -0.196830
C58   C     C_1   0.226364 0.433303 0.407701 0.254050
N8    N     N_1   0.193624 0.371409 0.370855 -0.162860
C59   C     C_1   0.038871 0.650710 0.920398 0.153083
N9    N     N_1   0.021850 0.647476 0.027824 -0.206877

loop_
_geom_bond_atom_site_label_1
_geom_bond_atom_site_label_2
_geom_bond_distance
_ccdc_geom_bond_type
N4    C52   1.362278 A    
C45   C46   1.387953 A    
C7    C8    1.385602 A    
C48   H15   1.111851 S    
C49   N3    1.363095 A    
C23   C27   1.398761 A    
C51   H18   1.081366 S    
Zn1   O7    1.968154 S    
N1    C11   1.429981 S    
Zn2   N3    2.008625 S    
C23   C24   1.406975 A    
C28   H3    1.083135 S    
O4    C2    1.292383 A    
O7    C4    1.291630 A    
C29   H2    1.083180 S    
C5    C13   1.394742 A    
C5    O9    1.350405 S    
C56   N6    1.156607 T    
C41   C48   1.496001 S    
C5    N1    1.362878 A    
C21   C22   1.387451 A    
C28   C32   1.399319 A    
O5    C3    1.282047 A    
C39   H10   1.083383 S    
C33   C36   1.421994 A    
Zn1   N4    2.008370 S    
C22   C23   1.397194 A    
C37   C55   1.446939 S    
C31   H11   1.082804 S    
C18   C20   1.416603 A    
C54   H22   1.110180 S    
C42   C43   1.417882 A    
C53   H19   1.112336 S    
C6    O11   1.348309 S    
C25   C39   1.398890 A    
C21   H5    1.078770 S    
C9    C10   1.406098 A    
C22   H4    1.083434 S    
C35   C40   1.410262 A    
C17   C30   1.403181 A    
C30   H9    1.083197 S    
C41   C42   1.389528 A    
C4    C17   1.462908 S    
O3    Zn1   1.961888 S    
C59   N9    1.157433 T    
C37   C40   1.395476 A    
C51   N4    1.367564 A    
C43   C56   1.449762 S    
C2    C16   1.451882 S    
C46   C47   1.494849 S    
C1    C42   1.426913 S    
C12   C13   1.409054 A    
O3    C2    1.289867 A    
C15   C37   1.416508 A    
C26   N2    1.369520 A    
C8    C16   1.401001 A    
C7    H7    1.082954 S    
C36   C59   1.446378 S    
C31   C32   1.403392 A    
C20   C24   1.415428 A    
C38   C39   1.391419 A    
O1    C1    1.284944 A    
C7    C11   1.394007 A    
C47   C48   1.516605 S    
C24   C25   1.407202 A    
C50   H17   1.081426 S    
Zn2   O8    1.961888 S    
C12   C15   1.416284 A    
C55   N5    1.157630 T    
N1    C6    1.366044 A    
C27   O10   1.350260 S    
C18   C21   1.411458 A    
C41   C46   1.358494 A    
C53   H20   1.111620 S    
C47   H13   1.111846 S    
C19   C35   1.419304 A    
C49   C54   1.492048 S    
N2    C27   1.369072 A    
C50   C51   1.417887 A    
C9    C16   1.404908 A    
C3    C45   1.423454 S    
N3    C50   1.367737 A    
C18   C33   1.417043 A    
C17   C29   1.403762 A    
C28   C29   1.386861 A    
N2    C32   1.433583 S    
C8    H6    1.084384 S    
C30   C31   1.395602 A    
C54   H21   1.110050 S    
C44   C57   1.452048 S    
C12   C34   1.415154 A    
Zn1   O5    1.996299 S    
C26   O12   1.349558 S    
C40   H12   1.078866 S    
C33   C34   1.419874 A    
O1    Zn1   1.992535 S    
O2    Zn2   1.996300 S    
C6    C15   1.415569 A    
C48   H16   1.112390 S    
O8    C4    1.295493 A    
C44   C45   1.413156 A    
O6    C3    1.282804 A    
O4    Zn2   1.968156 S    
C9    I1    2.131823 S    
C10   C58   1.444767 S    
C38   H8    1.078345 S    
C19   C20   1.416697 A    
O2    C1    1.282059 A    
C13   C14   1.397490 A    
C43   C44   1.401333 A    
C14   C36   1.390965 A    
C25   C26   1.402803 A    
C57   N7    1.156999 T    
C58   N8    1.157328 T    
C47   H14   1.112453 S    
C49   C52   1.404719 A    
C52   C53   1.491010 S    
C14   H1    1.085105 S    
Zn2   O6    1.992534 S    
C34   C35   1.416734 A    
C19   C38   1.413906 A    
C10   C11   1.410835 A    
C53   C54   1.515970 S    
