data_mof_unit_3667.cif
_audit_creation_date              2012-12-10T19:05:49-0500
_audit_creation_method            fapswitch 2.2
_symmetry_space_group_name_H-M    P1
_symmetry_Int_Tables_number       1
_space_group_crystal_system       triclinic
_cell_length_a                    19.33101
_cell_length_b                    10.819693
_cell_length_c                    9.536447
_cell_angle_alpha                 90.163948
_cell_angle_beta                  89.532879
_cell_angle_gamma                 90.472708
_cell_volume                      1994.4592765

loop_
_atom_site_label
_atom_site_type_symbol
_atom_type_description
_atom_site_fract_x
_atom_site_fract_y
_atom_site_fract_z
_atom_type_partial_charge
C1    C     C_R   0.498278 0.262291 0.499810 0.819801
C2    C     C_R   0.290940 0.506532 0.502329 -0.044837
C3    C     C_R   0.929272 0.476376 0.488737 0.419095
C4    C     C_R   0.069321 0.490711 0.492495 0.415006
C5    C     C_R   0.818816 0.549831 0.584512 -0.185151
C6    C     C_R   0.747319 0.555398 0.588874 -0.288249
C7    C     C_R   0.707902 0.485662 0.495631 -0.101139
C8    C     C_R   0.740079 0.405746 0.398351 0.376514
C9    C     C_R   0.813766 0.397694 0.394318 0.080058
C10   C     C_R   0.852916 0.473391 0.487693 -0.014653
C11   C     C_R   0.487300 0.064006 0.625253 0.182973
C12   C     C_R   0.367327 0.503189 0.500960 0.778426
C13   C     C_R   0.490557 0.129204 0.499280 -0.165724
C14   C     C_R   0.483604 0.063904 0.372404 -0.198558
C15   C     C_R   0.483816 0.935045 0.372536 -0.209003
C16   C     C_R   0.491119 0.870746 0.499499 -0.105508
C17   C     C_R   0.487913 0.936686 0.625247 0.061054
C18   C     C_3   0.534015 0.931642 0.749882 -0.510374
C19   C     C_3   0.532947 0.072097 0.750587 0.197733
C20   C     C_R   0.541658 0.580122 0.073652 0.167097
C21   C     C_R   0.454959 0.428104 0.074907 -0.058231
C22   C     C_R   0.455025 0.427959 0.925989 -0.049000
C23   C     C_R   0.498695 0.737758 0.500010 0.802097
C24   C     C_R   0.541228 0.581186 0.925907 0.191235
C25   C     C_3   0.618686 0.588141 0.921010 0.181926
C26   C     C_3   0.618610 0.586290 0.080355 -0.532204
C27   C     C_R   0.632346 0.496746 0.499140 0.866298
C28   C     C_R   0.251585 0.556250 0.616063 0.150882
C29   C     C_R   0.179120 0.548949 0.610934 -0.187220
C30   C     C_R   0.145319 0.497673 0.494885 0.029299
C31   C     C_R   0.184364 0.453456 0.381580 -0.161690
C32   C     C_R   0.256224 0.457296 0.385621 -0.226269
Cu1   Cu    Cu3+1 0.500000 0.499980 0.640670 0.964518
Cu2   Cu    Cu3+1 0.500000 0.500020 0.359330 0.963083
H1    H     H_    0.481945 0.886638 0.273043 0.168534
H2    H     H_    0.507861 0.888403 0.841981 0.214796
H3    H     H_    0.585759 0.893988 0.722931 0.192835
H4    H     H_    0.583786 0.117938 0.729440 0.106151
H5    H     H_    0.419540 0.367897 0.131212 0.135147
H6    H     H_    0.419669 0.367680 0.870409 0.163234
H7    H     H_    0.643418 0.505763 0.872843 0.161931
H8    H     H_    0.641561 0.500451 0.122688 0.223661
H9    H     H_    0.148646 0.586014 0.696911 0.148815
H10   H     H_    0.637328 0.673069 0.130511 0.200207
H11   H     H_    0.159381 0.413466 0.290682 0.156900
H12   H     H_    0.284817 0.419465 0.297462 0.153576
H13   H     H_    0.847866 0.607722 0.656301 0.176711
H14   H     H_    0.722708 0.617084 0.663050 0.221248
H15   H     H_    0.481679 0.111676 0.272857 0.174718
N1    N     N_R   0.035160 0.480317 0.369280 -0.241187
N2    N     N_R   0.966427 0.474244 0.367513 -0.234578
N3    N     N_R   0.963453 0.488032 0.611861 -0.237605
N4    N     N_R   0.032149 0.494960 0.613713 -0.240676
N5    N     N_R   0.500440 0.500930 0.147930 -0.173600
N6    N     N_R   0.500440 0.500890 0.852020 -0.205310
O1    O     O_R   0.500000 0.319640 0.618810 -0.566078
O2    O     O_R   0.500010 0.319680 0.381230 -0.573094
O3    O     O_R   0.400140 0.499970 0.618830 -0.586926
O4    O     O_R   0.400150 0.500010 0.381250 -0.589404
O5    O     O_R   0.499990 0.680320 0.618770 -0.563359
O6    O     O_R   0.500000 0.680360 0.381190 -0.588184
O7    O     O_R   0.599850 0.499990 0.618750 -0.586515
O8    O     O_R   0.599860 0.500030 0.381170 -0.540074
C33   C     C_3   0.283497 0.621286 0.741656 -0.409068
C34   C     C_3   0.316033 0.745436 0.700886 -0.765532
H16   H     H_    0.339738 0.789167 0.794596 0.240521
H17   H     H_    0.356802 0.734013 0.619718 0.243808
H18   H     H_    0.275760 0.808023 0.659739 0.244471
H19   H     H_    0.243474 0.640366 0.823113 0.193042
H20   H     H_    0.321451 0.561519 0.794573 0.220407
O9    O     O_3   0.497053 0.119981 0.866513 -0.715133
H21   H     H_    0.530731 0.121926 0.944444 0.322627
O10   O     O_3   0.643540 0.699930 0.863978 -0.733812
H22   H     H_    0.621704 0.769546 0.915449 0.322672
O11   O     O_3   0.697250 0.333187 0.315720 -0.753495
H23   H     H_    0.723104 0.296936 0.236545 0.327717
C35   C     C_3   0.849331 0.302292 0.301391 -0.419491
C36   C     C_3   0.859428 0.349211 0.151206 -0.775481
H24   H     H_    0.809226 0.368698 0.100764 0.232991
H25   H     H_    0.890859 0.435386 0.149664 0.276761
H26   H     H_    0.886666 0.278063 0.087945 0.245418
H27   H     H_    0.900173 0.275573 0.344351 0.220671
H28   H     H_    0.819619 0.214032 0.300951 0.199746

loop_
_geom_bond_atom_site_label_1
_geom_bond_atom_site_label_2
_ccdc_geom_bond_type
Cu1   N6    S    
Cu1   O3    S    
C4    N4    A    
O10   H22   S    
C19   O9    S    
C2    C12   S    
C26   H10   S    
C7    C8    A    
C35   C36   S    
C24   N6    A    
C5    H13   S    
C11   C19   S    
C6    H14   S    
C28   C29   A    
C19   H4    S    
C18   H3    S    
C21   N5    A    
C36   H25   S    
C14   H15   S    
C16   C17   A    
C35   H28   S    
C15   C16   A    
C7    C27   S    
C2    C32   A    
C18   C19   S    
C12   O4    A    
C20   C24   A    
C8    C9    A    
C34   H17   S    
Cu2   O2    S    
C33   H20   S    
C9    C10   A    
C12   O3    A    
Cu1   O1    S    
C21   C22   A    
C29   H9    S    
C15   H1    S    
Cu1   Cu2   S    
C23   O5    A    
C24   C25   S    
C20   N5    A    
C25   H7    S    
C3    N2    A    
C36   H24   S    
Cu1   O7    S    
N1    N2    A    
C25   C26   S    
Cu2   O6    S    
C4    N1    A    
O11   H23   S    
C29   C30   A    
C27   O7    A    
C1    O2    A    
C31   C32   A    
C21   H5    S    
C30   C31   A    
C34   H18   S    
C22   H6    S    
C17   C18   S    
C9    C35   S    
C33   H19   S    
C6    C7    A    
C27   O8    A    
C28   C33   S    
Cu2   N5    S    
C16   C23   S    
Cu2   O4    S    
C1    C13   S    
N3    N4    A    
C26   H8    S    
C11   C17   A    
C32   H12   S    
C1    O1    A    
C3    N3    A    
C22   N6    A    
Cu1   O5    S    
C33   C34   S    
C5    C10   A    
C3    C10   S    
C11   C13   A    
C36   H26   S    
C5    C6    A    
C20   C26   S    
C35   H27   S    
Cu2   O8    S    
C25   O10   S    
C8    O11   S    
C23   O6    A    
O9    H21   S    
C34   H16   S    
C31   H11   S    
C14   C15   A    
C2    C28   A    
C13   C14   A    
C18   H2    S    
C4    C30   S    
