data_mof_unit_1490.cif
_audit_creation_date              2013-03-05T16:05:02-0500
_audit_creation_method            fapswitch 2.2
_symmetry_space_group_name_H-M    P1
_symmetry_Int_Tables_number       1
_space_group_crystal_system       triclinic
_cell_length_a                    9.650365
_cell_length_b                    10.89058
_cell_length_c                    13.831922
_cell_angle_alpha                 91.22935
_cell_angle_beta                  83.260941
_cell_angle_gamma                 88.23129
_cell_volume                      1442.51614198

loop_
_atom_site_label
_atom_site_type_symbol
_atom_site_description
_atom_site_fract_x
_atom_site_fract_y
_atom_site_fract_z
_atom_type_partial_charge
O1    O     O_R   0.381260 0.680340 0.500000 -0.552874
O2    O     O_R   0.618740 0.319660 0.500000 -0.552944
O3    O     O_R   0.618830 0.680370 0.500010 -0.598008
O4    O     O_R   0.381170 0.319630 0.499990 -0.597966
C1    C     C_R   0.499809 0.737347 0.491649 0.838378
C2    C     C_R   0.500192 0.262652 0.508342 0.838319
O5    O     O_R   0.364420 0.499960 0.637840 -0.568743
O6    O     O_R   0.635580 0.500040 0.362160 -0.568759
O7    O     O_R   0.601990 0.499990 0.637850 -0.577989
O8    O     O_R   0.398010 0.500010 0.362150 -0.577965
C3    C     C_R   0.475867 0.499745 0.682982 0.823295
C4    C     C_R   0.524133 0.500256 0.317018 0.823287
Cu1   Cu    Cu3+1 0.359340 0.499980 0.500000 0.965388
Cu2   Cu    Cu3+1 0.640660 0.500020 0.500000 0.965334
C5    C     C_R   0.909508 0.547205 0.577086 -0.116508
C6    C     C_R   0.090491 0.452791 0.422915 -0.116475
C7    C     C_R   0.056491 0.547414 0.578275 0.083786
C8    C     C_R   0.943509 0.452592 0.421722 0.083723
C9    C     C_1   0.540050 0.501299 0.213189 -0.138675
C10   C     C_1   0.459949 0.498706 0.786811 -0.138695
C11   C     C_2   0.558206 0.501846 0.021628 -0.167195
C12   C     C_2   0.441790 0.498166 0.978373 -0.167193
H1    H     H_    0.841349 0.585959 0.638598 0.150990
H2    H     H_    0.158650 0.414044 0.361400 0.150982
C13   C     C_1   0.450083 0.498176 0.874189 0.005719
C14   C     C_1   0.549914 0.501833 0.125812 0.005731
H3    H     H_    0.339850 0.495419 0.020888 0.149824
H4    H     H_    0.660147 0.504593 0.979112 0.149821
C15   C     C_R   0.626543 0.933563 0.476235 -0.120986
C16   C     C_R   0.373458 0.066437 0.523721 -0.121024
C17   C     C_R   0.627136 0.057928 0.504084 0.280527
C18   C     C_R   0.372865 0.942073 0.495860 0.280472
C19   C     C_R   0.500676 0.127303 0.516342 -0.238308
C20   C     C_R   0.499326 0.872694 0.483622 -0.238285
N1    N     N_R   0.147930 0.499970 0.499980 -0.181992
N2    N     N_R   0.852070 0.500030 0.500020 -0.182021
C21   C     C_R   0.103162 0.597251 0.668875 0.132088
C22   C     C_R   0.161965 0.713005 0.671693 -0.086913
C23   C     C_R   0.197742 0.762674 0.759109 -0.159808
C24   C     C_R   0.170691 0.698749 0.845348 -0.113145
C25   C     C_R   0.107086 0.585404 0.844218 -0.134571
C26   C     C_R   0.072515 0.535410 0.756607 -0.155180
H5    H     H_    0.177625 0.765408 0.606953 0.187329
H6    H     H_    0.244958 0.851248 0.760257 0.132144
H7    H     H_    0.197833 0.737456 0.913079 0.128758
H8    H     H_    0.083955 0.536563 0.911227 0.117568
H9    H     H_    0.019690 0.449731 0.757476 0.115376
C27   C     C_R   0.896844 0.402806 0.331103 0.132110
C28   C     C_R   0.838036 0.287056 0.328242 -0.086934
C29   C     C_R   0.802288 0.237432 0.240803 -0.159827
C30   C     C_R   0.829353 0.301409 0.154587 -0.113140
C31   C     C_R   0.892941 0.414762 0.155763 -0.134573
C32   C     C_R   0.927498 0.464703 0.243395 -0.155165
H10   H     H_    0.822346 0.234622 0.392965 0.187342
H11   H     H_    0.755080 0.148855 0.239620 0.132111
H12   H     H_    0.802228 0.262741 0.086839 0.128753
H13   H     H_    0.916072 0.463651 0.088771 0.117561
H14   H     H_    0.980315 0.550389 0.242558 0.115378
C33   C     C_R   0.746837 0.881063 0.410629 0.169917
C34   C     C_R   0.751101 0.899277 0.310119 -0.179744
C35   C     C_R   0.865239 0.854934 0.246174 -0.153744
C36   C     C_R   0.974021 0.789506 0.281991 -0.098707
C37   C     C_R   0.967106 0.766152 0.381364 -0.039795
C38   C     C_R   0.855911 0.814468 0.446104 0.048851
H15   H     H_    0.666382 0.948877 0.281610 0.129866
H16   H     H_    0.869195 0.871080 0.168969 0.135610
H17   H     H_    0.062891 0.755525 0.232581 0.138645
H18   H     H_    0.049419 0.712576 0.408651 0.175382
H19   H     H_    0.854275 0.799824 0.523419 0.136987
C39   C     C_R   0.253161 0.118952 0.589319 0.169893
C40   C     C_R   0.144059 0.185488 0.553826 0.048937
C41   C     C_R   0.032880 0.233850 0.618561 -0.039716
C42   C     C_R   0.026027 0.210619 0.717953 -0.098779
C43   C     C_R   0.134858 0.145281 0.753791 -0.153768
C44   C     C_R   0.248970 0.100884 0.689845 -0.179864
H20   H     H_    0.145663 0.200055 0.476502 0.137027
H21   H     H_    0.950533 0.287367 0.591257 0.175405
H22   H     H_    0.937171 0.244627 0.767363 0.138630
H23   H     H_    0.130958 0.129248 0.831011 0.135624
H24   H     H_    0.333729 0.051361 0.718369 0.129954
N3    N     N_R   0.748152 0.105641 0.540913 0.108768
O9    O     O_R   0.873071 0.070329 0.503181 -0.378005
O10   O     O_R   0.732573 0.163641 0.624973 -0.394225
N4    N     N_R   0.251857 0.894362 0.459020 0.108774
O11   O     O_R   0.267452 0.836150 0.375067 -0.394245
O12   O     O_R   0.126951 0.929762 0.496659 -0.377914

loop_
_geom_bond_atom_site_label_1
_geom_bond_atom_site_label_2
_geom_bond_distance
_ccdc_geom_bond_type
C11   C14   1.433881 S    
C25   C26   1.397884 A    
N3    O9    1.299476 A    
O5    C3    1.305414 A    
C33   C38   1.401469 A    
C41   H21   1.079415 S    
C36   H17   1.082381 S    
O1    C1    1.312831 A    
C21   C22   1.399987 A    
N4    O12   1.299250 A    
Cu1   N1    2.040220 S    
C6    N1    1.356559 A    
Cu2   N2    2.040220 S    
C22   C23   1.398312 A    
C10   C13   1.201309 T    
C28   H10   1.070477 S    
C21   C26   1.405965 A    
C30   H12   1.082330 S    
C42   C43   1.395082 A    
O4    Cu1   1.968900 S    
C9    C14   1.201309 T    
N3    O10   1.301966 A    
C35   H16   1.082437 S    
C15   C33   1.479034 S    
C12   C13   1.433882 S    
C25   H8    1.082472 S    
C17   C19   1.406394 A    
C39   C40   1.401470 A    
C44   H24   1.083165 S    
C5    H1    1.082038 S    
C33   C34   1.404542 A    
C6    H2    1.082039 S    
Cu1   Cu2   2.714853 S    
O2    C2    1.312827 A    
C16   C39   1.479052 S    
C27   C32   1.406014 A    
C18   N4    1.434955 S    
C3    C10   1.426638 S    
C43   C44   1.396057 A    
C30   C31   1.396069 A    
N4    O11   1.301745 A    
O4    C2    1.306873 A    
C23   C24   1.396232 A    
C42   H22   1.082378 S    
C15   C20   1.407411 A    
C34   C35   1.396042 A    
C18   C20   1.406419 A    
O7    Cu2   1.899453 S    
C36   C37   1.397483 A    
O5    Cu1   1.912969 S    
O6    C4    1.305415 A    
C1    C20   1.480470 S    
C29   C30   1.396277 A    
C7    C21   1.478601 S    
C38   H19   1.082974 S    
O7    C3    1.301177 A    
O3    Cu2   1.968902 S    
O8    C4    1.301177 A    
C24   C25   1.396043 A    
C11   H4    1.086879 S    
C34   H15   1.083168 S    
C12   H3    1.086878 S    
O1    Cu1   1.982064 S    
C5    N2    1.356554 A    
C31   C32   1.397875 A    
C5    C7    1.420531 A    
C37   H18   1.079389 S    
C27   C28   1.400006 A    
O6    Cu2   1.912969 S    
C16   C19   1.407404 A    
C41   C42   1.397518 A    
O3    C1    1.306878 A    
O8    Cu1   1.899453 S    
C8    C27   1.478600 S    
C32   H14   1.076655 S    
C23   H6    1.080066 S    
C29   H11   1.080083 S    
C17   N3    1.434949 S    
C2    C19   1.480451 S    
C43   H23   1.082469 S    
C40   C41   1.396317 A    
C15   C17   1.400522 A    
C16   C18   1.400546 A    
C40   H20   1.082994 S    
C4    C9    1.426637 S    
C26   H9    1.076608 S    
C35   C36   1.395087 A    
O2    Cu2   1.982064 S    
C31   H13   1.082539 S    
C37   C38   1.396302 A    
C22   H5    1.070473 S    
C24   H7    1.082333 S    
C6    C8    1.420529 A    
C28   C29   1.398304 A    
C39   C44   1.404565 A    
C7    N1    1.393561 A    
C11   C12   1.334627 D    
C8    N2    1.393567 A    
