data_mof_unit_213.cif
_audit_creation_date              2012-12-11T15:07:07-0500
_audit_creation_method            fapswitch 2.2
_symmetry_space_group_name_H-M    P1
_symmetry_Int_Tables_number       1
_space_group_crystal_system       monoclinic
_cell_length_a                    19.719716
_cell_length_b                    11.356507
_cell_length_c                    18.732849
_cell_angle_alpha                 90.0
_cell_angle_beta                  90.098525
_cell_angle_gamma                 90.0
_cell_volume                      4195.16087076

loop_
_atom_site_label
_atom_site_type_symbol
_atom_type_description
_atom_site_fract_x
_atom_site_fract_y
_atom_site_fract_z
_atom_type_partial_charge
C1    C     C_R   0.762118 0.519116 0.637824 0.537010
C2    C     C_R   0.237882 0.519116 0.362176 0.537010
C3    C     C_R   0.262118 0.019116 0.637824 0.537010
C4    C     C_R   0.737882 0.019116 0.362176 0.537010
C5    C     C_3   0.815875 0.113451 0.451509 -0.126420
C6    C     C_3   0.184125 0.113451 0.548490 -0.126420
C7    C     C_3   0.315875 0.613451 0.451509 -0.126420
C8    C     C_3   0.684125 0.613451 0.548490 -0.126420
C9    C     C_3   0.747882 0.049895 0.438582 0.056510
C10   C     C_3   0.252118 0.049895 0.561418 0.056510
C11   C     C_3   0.247882 0.549895 0.438582 0.056510
C12   C     C_3   0.752118 0.549895 0.561418 0.056510
C13   C     C_3   0.759248 0.086720 0.575882 0.052144
C14   C     C_3   0.240752 0.086720 0.424118 0.052144
C15   C     C_3   0.259248 0.586720 0.575882 0.052144
C16   C     C_3   0.740752 0.586720 0.424118 0.052144
C17   C     C_3   0.750475 0.954706 0.565435 -0.267171
C18   C     C_3   0.249525 0.954706 0.434565 -0.267171
C19   C     C_3   0.250475 0.454706 0.565435 -0.267171
C20   C     C_3   0.749525 0.454706 0.434565 -0.267171
C21   C     C_3   0.823559 0.124842 0.532877 -0.214116
C22   C     C_3   0.176441 0.124842 0.467123 -0.214116
C23   C     C_3   0.323559 0.624842 0.532877 -0.214116
C24   C     C_3   0.676441 0.624842 0.467123 -0.214116
C25   C     C_3   0.007631 0.214784 0.460043 -0.233513
C26   C     C_3   0.992369 0.214784 0.539957 -0.233513
C27   C     C_3   0.507631 0.714784 0.460043 -0.233514
C28   C     C_3   0.492369 0.714784 0.539957 -0.233514
C29   C     C_3   0.064930 0.413005 0.474938 -0.215178
C30   C     C_3   0.935070 0.413005 0.525061 -0.215178
C31   C     C_3   0.564930 0.913005 0.474938 -0.215178
C32   C     C_3   0.435070 0.913005 0.525061 -0.215178
C33   C     C_3   0.942692 0.396396 0.444057 -0.259337
C34   C     C_3   0.057308 0.396396 0.555943 -0.259337
C35   C     C_3   0.442692 0.896396 0.444057 -0.259337
C36   C     C_3   0.557308 0.896396 0.555943 -0.259337
C37   C     C_3   0.012050 0.339854 0.431395 0.049519
C38   C     C_3   0.987950 0.339854 0.568604 0.049519
C39   C     C_3   0.512050 0.839854 0.431395 0.049519
C40   C     C_3   0.487950 0.839854 0.568604 0.049519
C41   C     C_3   0.818985 0.025966 0.046560 -0.233649
C42   C     C_3   0.181015 0.025966 0.953440 -0.233648
C43   C     C_3   0.318985 0.525966 0.046560 -0.233649
C44   C     C_3   0.681015 0.525966 0.953440 -0.233648
C45   C     C_R   0.773549 0.119622 0.650468 0.534526
C46   C     C_R   0.226451 0.119622 0.349532 0.534526
C47   C     C_R   0.273549 0.619622 0.650468 0.534526
C48   C     C_R   0.726451 0.619622 0.349532 0.534526
C49   C     C_3   0.818296 0.022274 0.965897 -0.235173
C50   C     C_3   0.181704 0.022274 0.034103 -0.235174
C51   C     C_3   0.318296 0.522274 0.965897 -0.235173
C52   C     C_3   0.681704 0.522274 0.034103 -0.235174
C53   C     C_3   0.691105 0.015945 0.031494 -0.224651
C54   C     C_3   0.308895 0.015945 0.968506 -0.224651
C55   C     C_3   0.191105 0.515945 0.031494 -0.224651
C56   C     C_3   0.808895 0.515945 0.968506 -0.224651
C57   C     C_3   0.744730 0.202191 0.061034 -0.253749
C58   C     C_3   0.255269 0.202191 0.938965 -0.253749
C59   C     C_3   0.244730 0.702191 0.061034 -0.253749
C60   C     C_3   0.755269 0.702191 0.938965 -0.253749
C61   C     C_3   0.749003 0.071163 0.075381 0.061410
C62   C     C_3   0.250997 0.071163 0.924619 0.061410
C63   C     C_3   0.249003 0.571163 0.075381 0.061410
C64   C     C_3   0.750997 0.571163 0.924619 0.061410
C65   C     C_3   0.760809 0.103797 0.936151 0.060904
C66   C     C_3   0.239191 0.103797 0.063849 0.060904
C67   C     C_3   0.260809 0.603797 0.936151 0.060904
C68   C     C_3   0.739191 0.603797 0.063849 0.060904
C69   C     C_3   0.693820 0.042471 0.950363 -0.252026
C70   C     C_3   0.306180 0.042471 0.049637 -0.252026
C71   C     C_3   0.193820 0.542471 0.950363 -0.252026
C72   C     C_3   0.806180 0.542471 0.049637 -0.252026
C73   C     C_3   0.758526 0.219172 0.980289 -0.231102
C74   C     C_3   0.241474 0.219172 0.019711 -0.231101
C75   C     C_3   0.258526 0.719172 0.980289 -0.231102
C76   C     C_3   0.741474 0.719172 0.019711 -0.231101
C77   C     C_3   0.998729 0.480171 0.040625 -0.235604
C78   C     C_3   0.001271 0.480171 0.959375 -0.235604
C79   C     C_3   0.498729 0.980171 0.040625 -0.235604
C80   C     C_3   0.501271 0.980171 0.959375 -0.235604
C81   C     C_3   0.067319 0.292482 0.026070 -0.228455
C82   C     C_3   0.932681 0.292482 0.973930 -0.228456
C83   C     C_3   0.567319 0.792482 0.026070 -0.228455
C84   C     C_3   0.432681 0.792482 0.973930 -0.228456
C85   C     C_3   0.947039 0.281264 0.054627 -0.254983
C86   C     C_3   0.052961 0.281264 0.945372 -0.254983
C87   C     C_3   0.447039 0.781264 0.054627 -0.254983
C88   C     C_3   0.552961 0.781264 0.945372 -0.254983
C89   C     C_R   0.967916 0.343473 0.644573 0.536799
C90   C     C_R   0.032084 0.343473 0.355427 0.536800
C91   C     C_R   0.467916 0.843472 0.644573 0.536799
C92   C     C_R   0.532084 0.843472 0.355427 0.536800
C93   C     C_3   0.010424 0.352324 0.069457 0.062761
C94   C     C_3   0.989576 0.352324 0.930543 0.062762
C95   C     C_3   0.510424 0.852324 0.069457 0.062761
C96   C     C_3   0.489576 0.852324 0.930543 0.062762
C97   C     C_R   0.760061 0.534788 0.848274 0.534046
C98   C     C_R   0.239939 0.534788 0.151726 0.534046
C99   C     C_R   0.260061 0.034788 0.848274 0.534046
C100  C     C_R   0.739939 0.034788 0.151726 0.534046
C101  C     C_R   0.774418 0.132811 0.858945 0.531626
C102  C     C_R   0.225582 0.132811 0.141055 0.531626
C103  C     C_R   0.274418 0.632811 0.858945 0.531626
C104  C     C_R   0.725582 0.632811 0.141055 0.531626
C105  C     C_R   0.968230 0.353488 0.854021 0.535969
C106  C     C_R   0.031770 0.353488 0.145979 0.535969
C107  C     C_R   0.468230 0.853488 0.854021 0.535969
C108  C     C_R   0.531770 0.853488 0.145979 0.535969
C109  C     C_3   0.691175 0.133305 0.465437 -0.249271
C110  C     C_3   0.308825 0.133305 0.534563 -0.249272
C111  C     C_3   0.191175 0.633306 0.465437 -0.249271
C112  C     C_3   0.808825 0.633306 0.534563 -0.249272
C113  C     C_3   0.693237 0.142853 0.546663 -0.234321
C114  C     C_3   0.306763 0.142853 0.453337 -0.234321
C115  C     C_3   0.193237 0.642853 0.546663 -0.234321
C116  C     C_3   0.806763 0.642853 0.453337 -0.234321
C117  C     C_3   0.751657 0.933000 0.484349 -0.223064
C118  C     C_3   0.248342 0.933000 0.515651 -0.223064
C119  C     C_3   0.251657 0.433000 0.484349 -0.223064
C120  C     C_3   0.748342 0.433000 0.515651 -0.223064
Cr1   Cr    Cr6+3 0.885690 0.492860 0.745310 0.999240
Cr2   Cr    Cr6+3 0.114310 0.492860 0.254690 0.999240
Cr3   Cr    Cr6+3 0.385690 0.992860 0.745310 0.999240
Cr4   Cr    Cr6+3 0.614310 0.992860 0.254690 0.999240
Cr5   Cr    Cr6+3 0.729880 0.332270 0.748190 1.016411
Cr6   Cr    Cr6+3 0.270120 0.332270 0.251810 1.016411
Cr7   Cr    Cr6+3 0.229880 0.832270 0.748190 1.016411
Cr8   Cr    Cr6+3 0.770120 0.832270 0.251810 1.016411
Cr9   Cr    Cr6+3 0.888120 0.178590 0.753010 1.009781
Cr10  Cr    Cr6+3 0.111880 0.178590 0.246990 1.009781
Cr11  Cr    Cr6+3 0.388120 0.678590 0.753010 1.009781
Cr12  Cr    Cr6+3 0.611880 0.678590 0.246990 1.009781
H1    H     H_    0.640756 0.105784 0.447880 0.138950
H2    H     H_    0.359244 0.105784 0.552120 0.138950
H3    H     H_    0.140756 0.605784 0.447880 0.138950
H4    H     H_    0.859244 0.605784 0.552120 0.138950
H5    H     H_    0.863459 0.061922 0.550442 0.147001
H6    H     H_    0.136541 0.061922 0.449558 0.147001
H7    H     H_    0.363459 0.561922 0.550442 0.147001
H8    H     H_    0.636541 0.561922 0.449558 0.147001
H9    H     H_    0.801584 0.894113 0.475459 0.140550
H10   H     H_    0.198416 0.894113 0.524541 0.140550
H11   H     H_    0.301584 0.394113 0.475459 0.140550
H12   H     H_    0.698416 0.394113 0.524541 0.140550
H13   H     H_    0.792397 0.906736 0.592496 0.125282
H14   H     H_    0.207603 0.906736 0.407504 0.125282
H15   H     H_    0.292397 0.406736 0.592496 0.125282
H16   H     H_    0.707603 0.406736 0.407504 0.125282
H17   H     H_    0.052163 0.163859 0.448408 0.136536
H18   H     H_    0.947837 0.163859 0.551592 0.136536
H19   H     H_    0.552163 0.663859 0.448408 0.136536
H20   H     H_    0.447837 0.663859 0.551592 0.136536
H21   H     H_    0.967726 0.172615 0.430240 0.157024
H22   H     H_    0.032274 0.172615 0.569760 0.157024
H23   H     H_    0.467726 0.672615 0.430240 0.157024
H24   H     H_    0.532274 0.672615 0.569760 0.157024
H25   H     H_    0.616001 0.893859 0.457003 0.114268
H26   H     H_    0.383999 0.893859 0.542997 0.114268
H27   H     H_    0.116001 0.393859 0.457003 0.114268
H28   H     H_    0.883999 0.393859 0.542997 0.114268
H29   H     H_    0.598393 0.839966 0.577370 0.102206
H30   H     H_    0.401607 0.839966 0.422629 0.102206
H31   H     H_    0.098393 0.339966 0.577370 0.102206
H32   H     H_    0.901607 0.339966 0.422629 0.102206
H33   H     H_    0.939735 0.482782 0.416575 0.130074
H34   H     H_    0.060265 0.482782 0.583424 0.130075
H35   H     H_    0.439735 0.982782 0.416575 0.130074
H36   H     H_    0.560265 0.982781 0.583424 0.130075
H37   H     H_    0.945598 0.507065 0.536097 0.136745
H38   H     H_    0.054402 0.507065 0.463902 0.136745
H39   H     H_    0.445598 0.007065 0.536097 0.136745
H40   H     H_    0.554402 0.007065 0.463902 0.136745
H41   H     H_    0.834288 0.937331 0.064876 0.139988
H42   H     H_    0.165712 0.937331 0.935124 0.139988
H43   H     H_    0.334288 0.437331 0.064876 0.139988
H44   H     H_    0.665712 0.437331 0.935124 0.139988
H45   H     H_    0.698012 0.221381 0.441611 0.108750
H46   H     H_    0.301988 0.221381 0.558389 0.108750
H47   H     H_    0.198012 0.721381 0.441611 0.108750
H48   H     H_    0.801988 0.721381 0.558389 0.108750
H49   H     H_    0.859527 0.085555 0.065665 0.116883
H50   H     H_    0.140473 0.085555 0.934335 0.116883
H51   H     H_    0.359527 0.585555 0.065665 0.116883
H52   H     H_    0.640473 0.585555 0.934335 0.116883
H53   H     H_    0.870059 0.043398 0.947783 0.135370
H54   H     H_    0.129941 0.043398 0.052217 0.135370
H55   H     H_    0.370059 0.543398 0.947783 0.135370
H56   H     H_    0.629941 0.543398 0.052217 0.135370
H57   H     H_    0.809385 0.931045 0.947282 0.117877
H58   H     H_    0.190615 0.931045 0.052718 0.117877
H59   H     H_    0.309385 0.431045 0.947282 0.117877
H60   H     H_    0.690615 0.431045 0.052718 0.117877
H61   H     H_    0.699776 0.924413 0.039875 0.107747
H62   H     H_    0.300224 0.924413 0.960125 0.107747
H63   H     H_    0.199776 0.424413 0.039875 0.107747
H64   H     H_    0.800224 0.424413 0.960125 0.107747
H65   H     H_    0.689464 0.960014 0.918797 0.101670
H66   H     H_    0.310536 0.960014 0.081203 0.101670
H67   H     H_    0.189464 0.460014 0.918797 0.101670
H68   H     H_    0.810536 0.460014 0.081203 0.101670
H69   H     H_    0.693396 0.235267 0.075126 0.121517
H70   H     H_    0.306604 0.235267 0.924874 0.121517
H71   H     H_    0.193396 0.735267 0.075126 0.121517
H72   H     H_    0.806604 0.735267 0.924874 0.121517
H73   H     H_    0.782448 0.250925 0.093848 0.101137
H74   H     H_    0.217551 0.250925 0.906151 0.101137
H75   H     H_    0.282448 0.750925 0.093848 0.101137
H76   H     H_    0.717551 0.750925 0.906151 0.101137
H77   H     H_    0.809083 0.251031 0.976694 0.109762
H78   H     H_    0.190916 0.251030 0.023306 0.109762
H79   H     H_    0.309084 0.751031 0.976694 0.109762
H80   H     H_    0.690916 0.751031 0.023306 0.109762
H81   H     H_    0.721454 0.280894 0.957288 0.126064
H82   H     H_    0.278546 0.280894 0.042712 0.126064
H83   H     H_    0.221454 0.780894 0.957288 0.126064
H84   H     H_    0.778546 0.780894 0.042712 0.126064
H85   H     H_    0.641644 0.042850 0.053056 0.129678
H86   H     H_    0.358355 0.042850 0.946944 0.129678
H87   H     H_    0.141644 0.542850 0.053056 0.129678
H88   H     H_    0.858355 0.542850 0.946944 0.129678
H89   H     H_    0.686168 0.233050 0.564486 0.150278
H90   H     H_    0.313832 0.233050 0.435514 0.150278
H91   H     H_    0.186168 0.733050 0.564486 0.150278
H92   H     H_    0.813832 0.733050 0.435514 0.150278
H93   H     H_    0.651501 0.101782 0.934790 0.120079
H94   H     H_    0.348499 0.101782 0.065210 0.120079
H95   H     H_    0.151501 0.601782 0.934790 0.120079
H96   H     H_    0.848499 0.601782 0.065210 0.120079
H97   H     H_    0.035258 0.546346 0.060163 0.134481
H98   H     H_    0.964742 0.546346 0.939837 0.134481
H99   H     H_    0.535258 0.046346 0.060163 0.134481
H100  H     H_    0.464742 0.046346 0.939837 0.134481
H101  H     H_    0.948668 0.511891 0.058967 0.117164
H102  H     H_    0.051332 0.511891 0.941033 0.117164
H103  H     H_    0.448668 0.011891 0.058967 0.117164
H104  H     H_    0.551332 0.011891 0.941033 0.117164
H105  H     H_    0.608210 0.852272 0.032347 0.108401
H106  H     H_    0.391790 0.852272 0.967653 0.108401
H107  H     H_    0.108210 0.352272 0.032347 0.108401
H108  H     H_    0.891790 0.352272 0.967653 0.108401
H109  H     H_    0.596469 0.814266 0.913472 0.100942
H110  H     H_    0.403531 0.814266 0.086528 0.100943
H111  H     H_    0.096469 0.314266 0.913472 0.100942
H112  H     H_    0.903531 0.314266 0.086528 0.100943
H113  H     H_    0.956023 0.187618 0.069080 0.122264
H114  H     H_    0.043977 0.187618 0.930920 0.122264
H115  H     H_    0.456023 0.687618 0.069080 0.122264
H116  H     H_    0.543977 0.687618 0.930920 0.122264
H117  H     H_    0.920323 0.205605 0.951662 0.133784
H118  H     H_    0.079677 0.205605 0.048338 0.133784
H119  H     H_    0.420323 0.705605 0.951662 0.133784
H120  H     H_    0.579677 0.705605 0.048338 0.133784
H121  H     H_    0.648630 0.097567 0.569456 0.114355
H122  H     H_    0.351370 0.097567 0.430544 0.114355
H123  H     H_    0.148630 0.597567 0.569456 0.114355
H124  H     H_    0.851369 0.597567 0.430544 0.114355
H125  H     H_    0.716495 0.865291 0.467935 0.097860
H126  H     H_    0.283505 0.865291 0.532065 0.097860
H127  H     H_    0.216495 0.365291 0.467935 0.097860
H128  H     H_    0.783505 0.365291 0.532065 0.097860
H129  H     H_    0.702591 0.922617 0.589390 0.106610
H130  H     H_    0.297409 0.922617 0.410610 0.106610
H131  H     H_    0.202591 0.422617 0.589390 0.106610
H132  H     H_    0.797409 0.422617 0.410610 0.106610
H133  H     H_    0.815432 0.201659 0.425991 0.085767
H134  H     H_    0.184568 0.201659 0.574009 0.085767
H135  H     H_    0.315432 0.701659 0.425991 0.085767
H136  H     H_    0.684568 0.701659 0.574009 0.085767
H137  H     H_    0.840468 0.213648 0.547527 0.096003
H138  H     H_    0.159532 0.213648 0.452473 0.096003
H139  H     H_    0.340468 0.713648 0.547527 0.096003
H140  H     H_    0.659532 0.713648 0.452473 0.096003
O1    O     O_R   0.957210 0.449410 0.665480 -0.531427
O2    O     O_R   0.042790 0.449410 0.334520 -0.531427
O3    O     O_R   0.457210 0.949410 0.665480 -0.531427
O4    O     O_R   0.542790 0.949410 0.334520 -0.531427
O5    O     O_R   0.736260 0.212010 0.826560 -0.511478
O6    O     O_R   0.263740 0.212010 0.173440 -0.511478
O7    O     O_R   0.236260 0.712010 0.826560 -0.511478
O8    O     O_R   0.763740 0.712010 0.173440 -0.511478
O9    O     O_R   0.832520 0.095300 0.836000 -0.533604
O10   O     O_R   0.167480 0.095300 0.164000 -0.533603
O11   O     O_R   0.332520 0.595300 0.836000 -0.533604
O12   O     O_R   0.667480 0.595300 0.164000 -0.533603
O13   O     O_R   0.946380 0.253940 0.826940 -0.511783
O14   O     O_R   0.053620 0.253940 0.173060 -0.511783
O15   O     O_R   0.446380 0.753940 0.826940 -0.511783
O16   O     O_R   0.553620 0.753940 0.173060 -0.511783
O17   O     O_3   0.834560 0.334570 0.748840 -0.282459
O18   O     O_3   0.165440 0.334570 0.251160 -0.282459
O19   O     O_3   0.334560 0.834570 0.748840 -0.282459
O20   O     O_3   0.665440 0.834570 0.251160 -0.282459
O21   O     O_R   0.820730 0.541240 0.668250 -0.519309
O22   O     O_R   0.179270 0.541240 0.331750 -0.519310
O23   O     O_R   0.320730 0.041240 0.668250 -0.519309
O24   O     O_R   0.679270 0.041240 0.331750 -0.519310
O25   O     O_R   0.714240 0.455060 0.663710 -0.499421
O26   O     O_R   0.285760 0.455060 0.336290 -0.499421
O27   O     O_R   0.214240 0.955060 0.663710 -0.499421
O28   O     O_R   0.785760 0.955060 0.336290 -0.499421
O29   O     O_R   0.736780 0.204870 0.675910 -0.514172
O30   O     O_R   0.263220 0.204870 0.324090 -0.514171
O31   O     O_R   0.236780 0.704870 0.675910 -0.514172
O32   O     O_R   0.763220 0.704870 0.324090 -0.514171
O33   O     O_R   0.833070 0.087590 0.673490 -0.527285
O34   O     O_R   0.166930 0.087590 0.326510 -0.527285
O35   O     O_R   0.333070 0.587590 0.673490 -0.527285
O36   O     O_R   0.666930 0.587590 0.326510 -0.527285
O37   O     O_R   0.946890 0.246800 0.676300 -0.504712
O38   O     O_R   0.053110 0.246800 0.323700 -0.504712
O39   O     O_R   0.446890 0.746800 0.676300 -0.504712
O40   O     O_R   0.553110 0.746800 0.323700 -0.504712
O41   O     O_R   0.956650 0.457120 0.827980 -0.531427
O42   O     O_R   0.043350 0.457120 0.172020 -0.531427
O43   O     O_R   0.456650 0.957120 0.827980 -0.531427
O44   O     O_R   0.543350 0.957120 0.172020 -0.531427
O45   O     O_R   0.820220 0.548390 0.818890 -0.510894
O46   O     O_R   0.179780 0.548390 0.181110 -0.510894
O47   O     O_R   0.320220 0.048390 0.818890 -0.510894
O48   O     O_R   0.679780 0.048390 0.181110 -0.510894
O49   O     O_R   0.713680 0.462770 0.826210 -0.529270
O50   O     O_R   0.286320 0.462770 0.173790 -0.529270
O51   O     O_R   0.213680 0.962770 0.826210 -0.529270
O52   O     O_R   0.786320 0.962770 0.173790 -0.529270
C121  C     C_1   0.873837 0.045191 0.422158 0.173124
N1    N     N_1   0.917438 0.988156 0.399266 -0.305819
C122  C     C_1   0.126163 0.045191 0.577842 0.173124
N2    N     N_1   0.082562 0.988156 0.600734 -0.305819
C123  C     C_1   0.373837 0.545191 0.422158 0.173124
N3    N     N_1   0.417438 0.488156 0.399266 -0.305819
C124  C     C_1   0.626162 0.545191 0.577842 0.173124
N4    N     N_1   0.582562 0.488156 0.600734 -0.305819

loop_
_geom_bond_atom_site_label_1
_geom_bond_atom_site_label_2
_ccdc_geom_bond_type
C83   H105  S    
C5    H133  S    
C82   C94   S    
C119  H11   S    
C82   H117  S    
C119  H127  S    
C120  H12   S    
C45   O33   A    
C53   C69   S    
C104  O8    A    
C43   C63   S    
C44   C64   S    
Cr6   O6    S    
C16   C20   S    
C80   H100  S    
C18   H130  S    
C63   C98   S    
Cr2   O2    S    
C31   H40   S    
C28   C40   S    
C36   H36   S    
C30   C38   S    
Cr9   O33   S    
C56   C72   S    
C21   H5    S    
C92   O4    A    
C18   C118  S    
C81   C86   S    
C83   C88   S    
C48   O32   A    
C74   H82   S    
C111  H47   S    
C41   C49   S    
C111  H3    S    
C54   H86   S    
Cr1   O45   S    
C114  H122  S    
Cr2   O42   S    
C109  H1    S    
Cr4   O48   S    
C88   H109  S    
C26   C38   S    
Cr10  O34   S    
C120  H128  S    
Cr11  O39   S    
C60   C76   S    
C24   H8    S    
Cr8   O52   S    
C30   H37   S    
C54   C70   S    
C48   O36   A    
C68   C72   S    
C23   H139  S    
C97   O45   A    
C13   C21   S    
C87   H115  S    
C79   H99   S    
C31   H25   S    
C64   C97   S    
C36   H29   S    
C15   C115  S    
C20   C120  S    
C116  H124  S    
C101  O5    A    
C5    C121  S    
C59   C63   S    
C70   H94   S    
Cr4   O20   S    
C57   C61   S    
C118  H126  S    
C82   C85   S    
Cr6   O50   S    
C77   H97   S    
Cr11  O19   S    
C60   C64   S    
Cr9   O13   S    
C20   H132  S    
C13   C45   S    
C102  O6    A    
C78   C94   S    
C43   H51   S    
C95   C108  S    
C113  H89   S    
C62   C99   S    
C107  O43   A    
C5    C21   S    
C58   H70   S    
C110  H46   S    
C31   C36   S    
C47   O35   A    
C4    O28   A    
C8    C124  S    
C55   C71   S    
C90   O38   A    
C54   H62   S    
Cr1   O21   S    
C80   H104  S    
Cr2   O18   S    
C65   C101  S    
Cr10  O14   S    
Cr3   O23   S    
Cr11  O11   S    
C67   C103  S    
C66   C70   S    
C37   C90   S    
C24   H140  S    
C73   H77   S    
Cr5   O17   S    
C66   C74   S    
C117  H125  S    
C25   H17   S    
C57   C73   S    
C53   C61   S    
C60   H72   S    
C56   H88   S    
C55   C63   S    
C6    H134  S    
C56   C64   S    
Cr7   O51   S    
C42   C62   S    
C8    C12   S    
C112  H48   S    
Cr5   O29   S    
C76   H80   S    
C70   H66   S    
Cr6   O18   S    
C84   H119  S    
C85   H113  S    
C121  N1    T    
C1    C12   S    
C43   H43   S    
C112  H4    S    
C2    C11   S    
C77   H101  S    
Cr3   O3    S    
C7    C11   S    
C53   H85   S    
C42   H42   S    
Cr9   O37   S    
C55   H87   S    
C25   C26   S    
C85   H112  S    
C105  O13   A    
C107  O15   A    
C5    C9    S    
C108  O16   A    
C59   H71   S    
C93   C106  S    
C88   H116  S    
C78   H102  S    
C90   O2    A    
C51   C67   S    
C7    H135  S    
C42   C50   S    
Cr2   O46   S    
Cr3   O43   S    
C110  H2    S    
C61   C100  S    
C67   C75   S    
C91   O3    A    
C50   H54   S    
C112  C116  S    
C51   H59   S    
C58   C74   S    
Cr10  O38   S    
C59   H75   S    
Cr11  O35   S    
C33   H33   S    
C44   H44   S    
C68   C76   S    
C13   C17   S    
C98   O46   A    
C14   C22   S    
C79   H103  S    
C7    C23   S    
C8    C24   S    
C40   C91   S    
C101  O9    A    
Cr7   O27   S    
C99   O51   A    
Cr8   O20   S    
C49   H53   S    
C57   H69   S    
C52   H56   S    
Cr7   O7    S    
C4    C9    S    
Cr4   O24   S    
Cr8   O8    S    
C58   C62   S    
C89   O1    A    
C88   C96   S    
C94   C105  S    
C59   C75   S    
C83   H120  S    
C53   H61   S    
C12   C112  S    
C81   H118  S    
C41   H49   S    
C21   H137  S    
C14   C46   S    
C77   C78   S    
C42   H50   S    
C15   C19   S    
C115  H91   S    
C75   H79   S    
C1    O25   A    
C58   H74   S    
C6    C22   S    
C2    O22   A    
C41   H41   S    
C56   H64   S    
C86   H111  S    
Cr8   O28   S    
Cr2   O22   S    
C15   C47   S    
Cr3   O19   S    
C46   O34   A    
C17   C117  S    
C19   C119  S    
C27   H23   S    
C73   H81   S    
Cr12  O36   S    
C16   C116  S    
C9    C109  S    
C113  H121  S    
C25   H21   S    
C26   H18   S    
C105  O41   A    
C60   H76   S    
C87   H110  S    
C54   C62   S    
C18   H14   S    
Cr3   O47   S    
C29   C34   S    
C108  O44   A    
C33   C37   S    
C41   C61   S    
C81   H107  S    
C116  H92   S    
C117  H9    S    
C124  N4    T    
C79   C95   S    
Cr5   O25   S    
C76   H84   S    
Cr6   O30   S    
C7    C123  S    
C114  H90   S    
Cr12  O12   S    
C32   H39   S    
C100  O52   A    
C39   C92   S    
C27   H19   S    
C106  O14   A    
C14   C18   S    
C84   H106  S    
C68   C104  S    
C69   H93   S    
C17   H13   S    
C6    C10   S    
C71   H67   S    
C1    O21   A    
C78   H98   S    
C22   H6    S    
Cr5   O49   S    
C19   H15   S    
C122  N2    T    
C14   C114  S    
C104  O12   A    
C43   C51   S    
Cr5   O5    S    
C65   C69   S    
C77   C93   S    
C10   C110  S    
C67   C71   S    
C17   H129  S    
C6    C122  S    
C50   H58   S    
Cr1   O1    S    
C51   H55   S    
C3    O27   A    
C19   H131  S    
C109  H45   S    
C72   H96   S    
C29   C37   S    
C11   C111  S    
C34   H34   S    
C55   H63   S    
C9    C117  S    
C123  N3    T    
C102  O10   A    
C35   C39   S    
C84   C87   S    
C103  O7    A    
C8    H136  S    
C11   C119  S    
C16   C48   S    
C29   H27   S    
C30   H28   S    
C38   C89   S    
C49   C65   S    
C74   H78   S    
C23   H7    S    
Cr7   O31   S    
Cr8   O32   S    
C49   H57   S    
Cr1   O41   S    
C57   H73   S    
C65   C73   S    
C52   H60   S    
Cr4   O44   S    
C86   C94   S    
C25   C37   S    
C12   C120  S    
C27   C39   S    
C82   H108  S    
C35   H35   S    
Cr12  O20   S    
C29   H38   S    
C80   C96   S    
C44   H52   S    
C52   C68   S    
C109  C113  S    
C22   H138  S    
C15   C23   S    
Cr9   O17   S    
C86   H114  S    
C69   H65   S    
C85   C93   S    
C2    O26   A    
C103  O11   A    
C32   H26   S    
C35   H30   S    
C32   C35   S    
C36   C40   S    
C33   H32   S    
C34   H31   S    
C97   O49   A    
C66   C102  S    
Cr7   O19   S    
C87   C95   S    
C99   O47   A    
C46   O30   A    
C10   C118  S    
C72   H68   S    
C81   C93   S    
C83   C95   S    
Cr10  O18   S    
C20   H16   S    
Cr12  O40   S    
Cr9   O9    S    
C50   C66   S    
C100  O48   A    
C28   H20   S    
C45   O29   A    
C26   H22   S    
C84   C96   S    
C106  O42   A    
C92   O40   A    
C110  C114  S    
C30   C33   S    
C34   C38   S    
C71   H95   S    
C96   C107  S    
C47   O31   A    
C4    O24   A    
C118  H10   S    
C89   O37   A    
Cr6   O26   S    
C91   O39   A    
Cr1   O17   S    
Cr10  O10   S    
C3    C10   S    
Cr11  O15   S    
Cr4   O4    S    
C44   C52   S    
Cr12  O16   S    
C75   H83   S    
C31   C39   S    
C32   C40   S    
C79   C80   S    
C115  H123  S    
C98   O50   A    
C16   C24   S    
C27   C28   S    
C28   H24   S    
C111  C115  S    
C13   C113  S    
C3    O23   A    
