data_mof_unit_3132.cif
_audit_creation_date              2012-10-26T20:45:19-0400
_audit_creation_method            fapswitch 2.2
_symmetry_space_group_name_H-M    P1
_symmetry_Int_Tables_number       1
_space_group_crystal_system       triclinic
_cell_length_a                    12.747063
_cell_length_b                    13.883886
_cell_length_c                    23.531847
_cell_angle_alpha                 89.712157
_cell_angle_beta                  93.032597
_cell_angle_gamma                 98.411628
_cell_volume                      4114.05196117

loop_
_atom_site_label
_atom_site_type_symbol
_atom_type_description
_atom_site_fract_x
_atom_site_fract_y
_atom_site_fract_z
_atom_type_partial_charge
C1    C     C_R   0.483182 0.315855 0.499543 0.544894
C2    C     C_R   0.470380 0.582210 0.699863 -0.053524
C3    C     C_R   0.532008 0.419249 0.240238 0.032919
C4    C     C_R   0.468001 0.580754 0.759763 0.032922
C5    C     C_R   0.506151 0.500578 0.209537 0.213163
C6    C     C_R   0.493847 0.499420 0.790463 0.213159
C7    C     C_1   0.527031 0.787351 0.498889 -0.026229
C8    C     C_1   0.472969 0.212649 0.501110 -0.026229
C9    C     C_2   0.541241 0.978175 0.492400 0.012901
C10   C     C_2   0.458757 0.021824 0.507597 0.012901
C11   C     C_1   0.465036 0.125722 0.503572 -0.038962
C12   C     C_R   0.516818 0.684145 0.500457 0.544893
C13   C     C_1   0.534963 0.874278 0.496426 -0.038962
C14   C     C_2   0.028575 0.478004 0.481118 -0.061444
C15   C     C_2   0.971426 0.521997 0.518881 -0.061444
C16   C     C_R   0.500459 0.500380 0.391026 0.552827
C17   C     C_R   0.499541 0.499620 0.608974 0.552829
C18   C     C_1   0.854327 0.517764 0.512743 0.124326
C19   C     C_1   0.145673 0.482236 0.487257 0.124324
C20   C     C_R   0.589903 0.519428 0.881602 0.398431
C21   C     C_R   0.410096 0.480557 0.118398 0.398438
C22   C     C_R   0.401547 0.478562 0.877778 0.397629
C23   C     C_R   0.477460 0.580856 0.237945 0.005360
C24   C     C_R   0.598451 0.521442 0.122222 0.397627
C25   C     C_R   0.400177 0.477450 0.937968 0.028554
C26   C     C_R   0.599822 0.522543 0.062032 0.028554
C27   C     C_R   0.498769 0.498824 0.969887 -0.063345
C28   C     C_R   0.501230 0.501164 0.030113 -0.063345
C29   C     C_R   0.595250 0.514194 0.941566 0.029326
C30   C     C_R   0.404749 0.485790 0.058434 0.029326
C31   C     C_R   0.304197 0.457722 0.967073 0.009788
C32   C     C_R   0.695802 0.542264 0.032926 0.009785
C33   C     C_R   0.306302 0.474405 0.026268 0.014218
C34   C     C_R   0.522528 0.419138 0.762054 0.005360
C35   C     C_R   0.693697 0.525573 0.973732 0.014219
C36   C     C_3   0.200261 0.413173 0.936801 -0.354675
C37   C     C_3   0.799742 0.586806 0.063198 -0.354674
C38   C     C_3   0.204603 0.490938 0.053207 -0.354352
C39   C     C_3   0.795392 0.509026 0.946795 -0.354351
C40   C     C_R   0.449594 0.665112 0.204435 0.056510
C41   C     C_R   0.528996 0.728633 0.178599 -0.096869
C42   C     C_R   0.502470 0.807571 0.146637 -0.118653
C43   C     C_R   0.396703 0.823462 0.140298 -0.103016
C44   C     C_R   0.317291 0.760406 0.165914 -0.117819
C45   C     C_R   0.473999 0.580074 0.297621 -0.069759
C46   C     C_R   0.343514 0.681421 0.197931 -0.066404
C47   C     C_R   0.550380 0.334875 0.795563 0.056510
C48   C     C_R   0.656455 0.318553 0.802068 -0.066402
C49   C     C_R   0.682664 0.239560 0.834084 -0.117818
C50   C     C_R   0.603243 0.176512 0.859697 -0.103015
C51   C     C_R   0.497481 0.192417 0.853358 -0.118653
C52   C     C_R   0.470969 0.271363 0.821397 -0.096872
C53   C     C_R   0.444302 0.665706 0.327036 0.030618
C54   C     C_R   0.342114 0.662363 0.347200 -0.064364
C55   C     C_R   0.311747 0.745325 0.371165 -0.105058
C56   C     C_R   0.525992 0.419921 0.702379 -0.069759
C57   C     C_R   0.382591 0.832278 0.374387 -0.101127
C58   C     C_R   0.484429 0.836063 0.354373 -0.106788
C59   C     C_R   0.515471 0.752993 0.330934 -0.090348
C60   C     C_R   0.555684 0.334288 0.672963 0.030618
C61   C     C_R   0.484511 0.247004 0.669062 -0.090346
C62   C     C_R   0.515549 0.163932 0.645624 -0.106788
C63   C     C_R   0.617389 0.167712 0.625614 -0.101127
C64   C     C_R   0.688238 0.254662 0.628838 -0.105061
C65   C     C_R   0.657874 0.337626 0.652802 -0.064368
C66   C     C_3   0.553274 0.327456 0.332020 -0.387383
C67   C     C_R   0.501212 0.499084 0.328736 0.000827
C68   C     C_3   0.446743 0.672549 0.667981 -0.387383
C69   C     C_R   0.558297 0.334497 0.208836 0.055326
C70   C     C_R   0.477005 0.267368 0.182965 -0.090116
C71   C     C_R   0.501911 0.187728 0.152989 -0.118618
C72   C     C_R   0.607931 0.174788 0.148699 -0.104720
C73   C     C_R   0.689201 0.241544 0.174336 -0.118839
C74   C     C_R   0.664567 0.321258 0.204321 -0.074023
C75   C     C_R   0.441726 0.665510 0.791166 0.055332
C76   C     C_R   0.335462 0.678774 0.795672 -0.074015
C77   C     C_R   0.310840 0.758493 0.825657 -0.118832
C78   C     C_R   0.498788 0.500915 0.671264 0.000828
C79   C     C_R   0.392118 0.825231 0.851302 -0.104719
C80   C     C_R   0.498133 0.812265 0.847022 -0.118619
C81   C     C_R   0.523025 0.732620 0.817045 -0.090119
C82   C     C_3   0.360185 0.965327 0.531071 -0.395854
C83   C     C_3   0.639814 0.034673 0.468926 -0.395854
C84   C     C_R   0.025263 0.575417 0.569364 0.030247
C85   C     C_R   0.011178 0.672372 0.579066 -0.090071
C86   C     C_R   0.061605 0.723138 0.626509 -0.109873
C87   C     C_R   0.125704 0.677389 0.664831 -0.110530
C88   C     C_R   0.139171 0.580610 0.655924 -0.107297
C89   C     C_R   0.529628 0.417793 0.300137 -0.053524
C90   C     C_R   0.088824 0.529551 0.608592 -0.076232
C91   C     C_R   0.974738 0.424588 0.430634 0.030247
C92   C     C_R   0.988823 0.327633 0.420930 -0.090070
C93   C     C_R   0.938400 0.276872 0.373485 -0.109873
C94   C     C_R   0.874303 0.322625 0.335163 -0.110534
C95   C     C_R   0.860836 0.419403 0.344072 -0.107301
C96   C     C_R   0.911180 0.470457 0.391406 -0.076233
Cu1   Cu    Cu3+1 0.395330 0.493960 0.496390 0.975793
Cu2   Cu    Cu3+1 0.604670 0.506040 0.503610 0.975794
H1    H     H_    0.213351 0.351041 0.909857 0.164558
H2    H     H_    0.853210 0.483907 0.978393 0.101295
H3    H     H_    0.779076 0.449145 0.914992 0.167184
H4    H     H_    0.832958 0.577073 0.926703 0.166309
H5    H     H_    0.611211 0.717168 0.183418 0.131633
H6    H     H_    0.563896 0.856476 0.126822 0.101707
H7    H     H_    0.376303 0.884629 0.115555 0.102484
H8    H     H_    0.235404 0.772675 0.160907 0.102330
H9    H     H_    0.281365 0.632728 0.217394 0.124664
H10   H     H_    0.718611 0.367240 0.782607 0.124665
H11   H     H_    0.764547 0.227280 0.839091 0.102329
H12   H     H_    0.140373 0.380790 0.966604 0.100737
H13   H     H_    0.623632 0.115340 0.884440 0.102483
H14   H     H_    0.436048 0.143519 0.873171 0.101705
H15   H     H_    0.388757 0.282839 0.816578 0.131627
H16   H     H_    0.285687 0.596040 0.343567 0.122268
H17   H     H_    0.232928 0.742485 0.386679 0.103970
H18   H     H_    0.358724 0.896695 0.392485 0.112639
H19   H     H_    0.539246 0.903419 0.356983 0.110005
H20   H     H_    0.594127 0.756944 0.314967 0.105159
H21   H     H_    0.405853 0.243057 0.685027 0.105158
H22   H     H_    0.460728 0.096578 0.643012 0.110004
H23   H     H_    0.165825 0.469058 0.910902 0.170728
H24   H     H_    0.641254 0.103293 0.607516 0.112642
H25   H     H_    0.767059 0.257497 0.613327 0.103970
H26   H     H_    0.714304 0.403946 0.656437 0.122267
H27   H     H_    0.542900 0.330412 0.378317 0.148351
H28   H     H_    0.498849 0.262856 0.315316 0.128549
H29   H     H_    0.636337 0.316299 0.325989 0.133026
H30   H     H_    0.457119 0.669593 0.621684 0.148347
H31   H     H_    0.363682 0.683711 0.674010 0.133019
H32   H     H_    0.501172 0.737147 0.684686 0.128553
H33   H     H_    0.394645 0.276659 0.186158 0.143681
H34   H     H_    0.786661 0.648949 0.090135 0.164568
H35   H     H_    0.439058 0.136001 0.133129 0.104688
H36   H     H_    0.627083 0.113072 0.125510 0.102852
H37   H     H_    0.771274 0.231590 0.170925 0.103743
H38   H     H_    0.728037 0.372892 0.223708 0.126637
H39   H     H_    0.271985 0.627154 0.776278 0.126620
H40   H     H_    0.228771 0.768466 0.829060 0.103741
H41   H     H_    0.372976 0.886950 0.874491 0.102851
H42   H     H_    0.560993 0.863977 0.866889 0.104687
H43   H     H_    0.605382 0.723310 0.813859 0.143695
H44   H     H_    0.301439 0.014172 0.540284 0.126235
H45   H     H_    0.834166 0.530921 0.089102 0.170725
H46   H     H_    0.322203 0.909644 0.499769 0.133252
H47   H     H_    0.381384 0.928791 0.571277 0.128780
H48   H     H_    0.698559 0.985827 0.459712 0.126236
H49   H     H_    0.618616 0.071210 0.428721 0.128780
H50   H     H_    0.677796 0.090354 0.500229 0.133252
H51   H     H_    0.962044 0.708898 0.549611 0.104490
H52   H     H_    0.051049 0.798023 0.633535 0.103626
H53   H     H_    0.164701 0.716928 0.701458 0.099876
H54   H     H_    0.188490 0.545011 0.685704 0.117352
H55   H     H_    0.098990 0.454224 0.602690 0.107941
H56   H     H_    0.859637 0.619172 0.033394 0.100736
H57   H     H_    0.037956 0.291104 0.450384 0.104491
H58   H     H_    0.948955 0.201987 0.366456 0.103627
H59   H     H_    0.835308 0.283089 0.298534 0.099882
H60   H     H_    0.811518 0.455004 0.314293 0.117349
H61   H     H_    0.901014 0.545784 0.397310 0.107940
H62   H     H_    0.167047 0.422887 0.073299 0.166310
H63   H     H_    0.220912 0.550820 0.085009 0.167183
H64   H     H_    0.146777 0.516049 0.021609 0.101295
N1    N     N_R   0.494957 0.499482 0.851654 -0.381747
N2    N     N_R   0.505042 0.500514 0.148345 -0.381744
N3    N     N_1   0.238030 0.484870 0.490960 -0.195494
N4    N     N_1   0.761970 0.515130 0.509040 -0.195493
O1    O     O_R   0.399110 0.356330 0.496510 -0.492657
O2    O     O_2   0.322054 0.452147 0.147108 -0.541560
O3    O     O_2   0.310914 0.461765 0.844906 -0.550189
O4    O     O_2   0.689082 0.538257 0.155094 -0.550203
O5    O     O_R   0.600890 0.643670 0.503490 -0.492658
O6    O     O_R   0.575900 0.366540 0.502610 -0.488606
O7    O     O_R   0.424100 0.633460 0.497390 -0.488604
O8    O     O_R   0.411590 0.494870 0.414830 -0.494352
O9    O     O_R   0.588410 0.505130 0.585170 -0.494351
O10   O     O_R   0.588370 0.505070 0.420930 -0.493502
O11   O     O_R   0.411630 0.494930 0.579070 -0.493502
O12   O     O_2   0.677948 0.547828 0.852892 -0.541564

loop_
_geom_bond_atom_site_label_1
_geom_bond_atom_site_label_2
_ccdc_geom_bond_type
C25   C31   A    
C15   C18   S    
C79   H41   S    
C87   C88   A    
C34   C56   A    
C93   C94   A    
C23   C45   A    
C94   H59   S    
C27   C29   A    
C95   H60   S    
C41   C42   A    
C2    C4    A    
C95   C96   A    
C82   H44   S    
C6    C34   A    
C82   H47   S    
Cu1   Cu2   S    
C53   C59   A    
C53   C54   A    
C26   C32   A    
C51   H14   S    
C21   O2    S    
C3    C69   S    
C24   C26   A    
C2    C68   S    
C86   H52   S    
C43   H7    S    
C50   H13   S    
C61   H21   S    
C1    O1    A    
C16   O8    A    
C23   C40   S    
C1    C8    S    
C67   C89   A    
C56   C78   A    
C66   H29   S    
C73   C74   A    
C65   H26   S    
C9    C13   S    
C70   H33   S    
C4    C75   S    
C91   C96   A    
C72   H36   S    
C68   H31   S    
C38   H63   S    
C73   H37   S    
C22   C25   A    
C74   H38   S    
C45   C67   A    
C31   C33   A    
C70   C71   A    
C57   H18   S    
C24   O4    S    
C9    C10   D    
C68   H30   S    
C31   C36   S    
C62   H22   S    
C61   C62   A    
C93   H58   S    
C72   C73   A    
Cu2   O6    S    
C16   O10   A    
C81   H43   S    
C45   C53   S    
C21   N2    A    
C87   H53   S    
C80   H42   S    
C88   H54   S    
C24   N2    A    
C84   C90   A    
C37   H56   S    
C44   C46   A    
C39   H3    S    
C66   C89   S    
C57   C58   A    
C20   C29   A    
C77   C79   A    
C18   N4    T    
C7    C12   S    
Cu1   O7    S    
C51   C52   A    
C5    N2    S    
C84   C85   A    
C4    C6    A    
C91   C92   A    
C86   C87   A    
C75   C81   A    
C20   O12   S    
C58   C59   A    
C52   H15   S    
C20   N1    A    
C10   C82   S    
C58   H19   S    
C66   H28   S    
C60   C61   A    
C47   C52   A    
C35   C39   S    
C75   C76   A    
C32   C35   A    
C62   C63   A    
C2    C78   A    
C83   H48   S    
Cu2   O10   S    
Cu1   O11   S    
C47   C48   A    
C5    C23   A    
C7    C13   T    
C46   H9    S    
C50   C51   A    
C69   C74   A    
C16   C67   S    
C32   C37   S    
C77   H40   S    
C90   H55   S    
C76   C77   A    
C85   C86   A    
Cu2   N4    S    
C9    C83   S    
C83   H49   S    
Cu2   O5    S    
C82   H46   S    
C48   C49   A    
C88   C90   A    
C60   C65   A    
C49   C50   A    
C94   C95   A    
C55   C57   A    
C43   C44   A    
C36   H12   S    
C79   C80   A    
C42   C43   A    
C40   C46   A    
C63   H24   S    
C39   H4    S    
C49   H11   S    
C83   H50   S    
C17   O11   A    
C54   C55   A    
C40   C41   A    
Cu1   O8    S    
C37   H45   S    
C30   C33   A    
C14   C15   D    
C14   C19   S    
C76   H39   S    
C80   C81   A    
C3    C5    A    
C42   H6    S    
C71   H35   S    
C66   H27   S    
C15   C84   S    
C44   H8    S    
C25   C27   A    
C64   H25   S    
C21   C30   A    
C29   C35   A    
C1    O6    A    
C26   C28   A    
C33   C38   S    
C37   H34   S    
C3    C89   A    
C17   C78   S    
C64   C65   A    
C28   C30   A    
C36   H23   S    
C38   H62   S    
C71   C72   A    
Cu1   O1    S    
C22   N1    A    
C39   H2    S    
C48   H10   S    
C55   H17   S    
C8    C11   T    
Cu1   N3    S    
C54   H16   S    
C92   C93   A    
C36   H1    S    
C69   C70   A    
C85   H51   S    
C14   C91   S    
C22   O3    S    
C10   C11   S    
C63   C64   A    
C41   H5    S    
C38   H64   S    
C96   H61   S    
C56   C60   S    
C6    N1    S    
C59   H20   S    
C92   H57   S    
C27   C28   A    
C12   O5    A    
C68   H32   S    
C34   C47   S    
C19   N3    T    
C17   O9    A    
Cu2   O9    S    
C12   O7    A    
