data_mof_unit_2379.cif
_audit_creation_date              2012-12-10T19:21:24-0500
_audit_creation_method            fapswitch 2.2
_symmetry_space_group_name_H-M    P1
_symmetry_Int_Tables_number       1
_space_group_crystal_system       triclinic
_cell_length_a                    10.867821
_cell_length_b                    15.978001
_cell_length_c                    14.735664
_cell_angle_alpha                 90.24343
_cell_angle_beta                  90.600344
_cell_angle_gamma                 89.32985
_cell_volume                      2558.45265878

loop_
_atom_site_label
_atom_site_type_symbol
_atom_type_description
_atom_site_fract_x
_atom_site_fract_y
_atom_site_fract_z
_atom_type_partial_charge
C1    C     C_R   0.498326 0.340853 0.499730 0.819245
C2    C     C_R   0.500865 0.659194 0.500277 0.814195
C3    C     C_R   0.871945 0.499204 0.501651 -0.265995
C4    C     C_R   0.128183 0.497076 0.497252 -0.267544
C5    C     C_R   0.939316 0.461099 0.573385 -0.089837
C6    C     C_R   0.060404 0.531085 0.423429 -0.106054
C7    C     C_R   0.407150 0.956772 0.547147 -0.180760
C8    C     C_R   0.587634 0.043478 0.452811 -0.191266
C9    C     C_R   0.499827 0.912888 0.501128 0.167536
C10   C     C_R   0.494856 0.087354 0.498693 0.163382
C11   C     C_R   0.590141 0.956188 0.454040 -0.194180
C12   C     C_R   0.404763 0.044097 0.546049 -0.187694
C13   C     C_1   0.501448 0.823410 0.501416 -0.076344
C14   C     C_1   0.493757 0.176787 0.498502 -0.090211
C15   C     C_1   0.495081 0.251836 0.498942 -0.203184
C16   C     C_1   0.501796 0.748320 0.501093 -0.201468
C17   C     C_R   0.570267 0.557793 0.952852 -0.169045
C18   C     C_R   0.429816 0.441903 0.047128 -0.172235
C19   C     C_R   0.499886 0.499905 0.902861 0.049665
C20   C     C_R   0.499979 0.499923 0.097124 0.063993
C21   C     C_R   0.429526 0.442020 0.951224 -0.178333
C22   C     C_R   0.570111 0.557921 0.048754 -0.163258
C23   C     C_R   0.261731 0.499626 0.499191 0.840109
C24   C     C_R   0.738260 0.499132 0.500587 0.848921
C25   C     C_1   0.499883 0.499943 0.802773 0.123325
C26   C     C_1   0.500050 0.499951 0.197225 0.114213
C27   C     C_R   0.208253 0.657501 0.236699 0.161147
C28   C     C_R   0.754525 0.304892 0.707164 0.168895
C29   C     C_R   0.160814 0.635137 0.321515 -0.234492
C30   C     C_R   0.814831 0.344625 0.635757 -0.262244
C31   C     C_R   0.117517 0.553940 0.335979 0.118730
C32   C     C_R   0.878445 0.419459 0.650745 0.100402
C33   C     C_R   0.124982 0.493787 0.266086 0.528330
C34   C     C_R   0.886169 0.453486 0.739002 0.531624
C35   C     C_R   0.169597 0.517007 0.180785 -0.287912
C36   C     C_R   0.820649 0.415468 0.809524 -0.311070
C37   C     C_R   0.211182 0.598091 0.166346 -0.207369
C38   C     C_R   0.755530 0.341964 0.793601 -0.193575
C39   C     C_R   0.932883 0.536438 0.428454 0.420873
C40   C     C_R   0.067466 0.459354 0.570254 0.423610
Cu1   Cu    Cu3+1 0.500040 0.500000 0.589220 0.985012
Cu2   Cu    Cu3+1 0.499960 0.500000 0.410780 0.969965
H1    H     H_    0.246380 0.614283 0.100280 0.152611
H2    H     H_    0.705946 0.313878 0.848851 0.149483
H3    H     H_    0.625527 0.603087 0.917668 0.136440
H4    H     H_    0.375026 0.396350 0.082310 0.112616
H5    H     H_    0.156547 0.680963 0.375835 0.119091
H6    H     H_    0.812189 0.317717 0.568127 0.121756
H7    H     H_    0.171374 0.472331 0.125417 0.140832
H8    H     H_    0.819278 0.442989 0.876727 0.148913
H9    H     H_    0.333111 0.077802 0.582047 0.129086
H10   H     H_    0.662079 0.922522 0.418302 0.128678
H11   H     H_    0.336981 0.923535 0.583687 0.133643
H12   H     H_    0.657976 0.076712 0.416445 0.137092
H13   H     H_    0.625078 0.603398 0.085209 0.132392
H14   H     H_    0.374277 0.396703 0.914768 0.127051
N1    N     N_1   0.500040 0.499980 0.276710 -0.160306
N2    N     N_1   0.499960 0.500020 0.723290 -0.149317
O1    O     O_R   0.500060 0.380310 0.575320 -0.576215
O2    O     O_R   0.499940 0.619690 0.424680 -0.587960
O3    O     O_R   0.500000 0.380310 0.424640 -0.579257
O4    O     O_R   0.500000 0.619690 0.575360 -0.568745
O5    O     O_R   0.319670 0.500010 0.575340 -0.533773
O6    O     O_R   0.680330 0.499990 0.424660 -0.520288
O7    O     O_R   0.319610 0.500010 0.424650 -0.602874
O8    O     O_R   0.680390 0.499990 0.575350 -0.577872
C41   C     C_3   0.254578 0.744704 0.221013 -0.432782
C42   C     C_3   0.377382 0.757672 0.270610 -0.309464
C43   C     C_3   0.428606 0.844453 0.252744 -0.847990
H15   H     H_    0.442808 0.853528 0.178918 0.249663
H16   H     H_    0.364476 0.893526 0.278433 0.258694
H17   H     H_    0.518559 0.850958 0.288300 0.243939
H18   H     H_    0.363562 0.750638 0.344594 0.228896
H19   H     H_    0.445459 0.709679 0.247875 0.226365
H20   H     H_    0.267330 0.755682 0.147221 0.194453
H21   H     H_    0.185051 0.790982 0.245346 0.193613
C44   C     C_3   0.686624 0.224449 0.690465 -0.393049
C45   C     C_3   0.744032 0.151581 0.744117 -0.373854
C46   C     C_3   0.679946 0.069461 0.721438 -0.820456
H22   H     H_    0.580232 0.074384 0.736742 0.254971
H23   H     H_    0.691450 0.053695 0.648514 0.263055
H24   H     H_    0.721182 0.018149 0.762700 0.238413
H25   H     H_    0.843257 0.145176 0.727397 0.222107
H26   H     H_    0.736019 0.163714 0.818142 0.216209
H27   H     H_    0.588607 0.233348 0.709586 0.202129
H28   H     H_    0.689299 0.208094 0.617216 0.202576
O9    O     O_3   0.081365 0.413975 0.280996 -0.579170
C47   C     C_3   0.178909 0.355094 0.273816 0.046560
H29   H     H_    0.266396 0.378314 0.304620 0.164298
H30   H     H_    0.194688 0.339097 0.201323 0.137151
C48   C     C_3   0.144455 0.275815 0.323812 -0.789124
H31   H     H_    0.059965 0.248738 0.293150 0.252599
H32   H     H_    0.220660 0.229109 0.319326 0.202966
H33   H     H_    0.127430 0.290384 0.396407 0.229333
O10   O     O_3   0.951214 0.526774 0.752936 -0.582118
C49   C     C_3   0.037717 0.516661 0.824642 0.082340
H34   H     H_    0.080645 0.452815 0.825478 0.157353
H35   H     H_    0.992579 0.528964 0.890801 0.132563
C50   C     C_3   0.140562 0.579446 0.813438 -0.742840
H36   H     H_    0.102288 0.644192 0.814277 0.236579
H37   H     H_    0.208434 0.572563 0.869885 0.190585
H38   H     H_    0.188197 0.568260 0.748090 0.276029
O11   O     O_3   0.867521 0.573260 0.357496 -0.546881
C51   C     C_3   0.840399 0.657323 0.380747 0.091145
H39   H     H_    0.926331 0.693751 0.389843 0.121661
H40   H     H_    0.785936 0.661535 0.444252 0.122110
C52   C     C_3   0.764553 0.697123 0.304703 -0.762509
H41   H     H_    0.678327 0.661706 0.293626 0.260238
H42   H     H_    0.740507 0.762777 0.322934 0.184666
H43   H     H_    0.818073 0.696823 0.240900 0.238527
O12   O     O_3   0.133381 0.420707 0.639736 -0.564061
C53   C     C_3   0.160680 0.337330 0.613935 0.078465
H44   H     H_    0.217205 0.335097 0.551368 0.125202
H45   H     H_    0.074868 0.301298 0.602086 0.130048
C54   C     C_3   0.233918 0.295153 0.689787 -0.787196
H46   H     H_    0.178523 0.294032 0.752683 0.230264
H47   H     H_    0.257785 0.229900 0.669831 0.191354
H48   H     H_    0.320192 0.329863 0.703342 0.262194

loop_
_geom_bond_atom_site_label_1
_geom_bond_atom_site_label_2
_ccdc_geom_bond_type
O9    C47   S    
C27   C29   A    
C18   C21   A    
Cu1   Cu2   S    
O10   C49   S    
C46   H24   S    
C51   H40   S    
C44   C45   S    
C29   H5    S    
C30   H6    S    
C35   C37   A    
C17   H3    S    
Cu1   N2    S    
C1    O1    A    
C2    O2    A    
C42   H19   S    
C54   H46   S    
C49   C50   S    
C43   H16   S    
C9    C13   S    
C51   H39   S    
C11   H10   S    
C33   C35   A    
C45   H25   S    
C4    C40   A    
C42   C43   S    
C54   H47   S    
C49   H35   S    
C35   H7    S    
Cu2   O7    S    
C52   H41   S    
C31   C33   A    
C1    C15   S    
C2    C16   S    
C18   C20   A    
C24   O8    A    
C5    C32   S    
C23   O5    A    
C6    C31   S    
C44   H27   S    
C24   O6    A    
C52   H42   S    
C3    C24   S    
Cu1   O4    S    
C18   H4    S    
Cu2   N1    S    
C53   H45   S    
C53   H44   S    
C40   O12   S    
C7    C12   A    
C41   C42   S    
C34   O10   S    
Cu1   O1    S    
C4    C6    A    
C10   C14   S    
Cu2   O2    S    
C48   H31   S    
C46   H23   S    
C4    C23   S    
C45   C46   S    
C42   H18   S    
C32   C34   A    
C37   H1    S    
C43   H17   S    
C38   H2    S    
C48   H32   S    
C50   H36   S    
C47   C48   S    
C28   C38   A    
C54   H48   S    
C49   H34   S    
C28   C44   S    
C9    C11   A    
Cu2   O3    S    
Cu1   O8    S    
C10   C12   A    
C50   H37   S    
C47   H30   S    
C44   H28   S    
C52   H43   S    
C5    C40   A    
C41   H20   S    
C25   N2    T    
C7    H11   S    
C8    H12   S    
Cu2   O6    S    
C12   H9    S    
C36   H8    S    
C7    C9    A    
O12   C53   S    
C19   C21   A    
C6    C39   A    
C20   C22   A    
C3    C5    A    
C1    O3    A    
C21   H14   S    
C39   O11   S    
C22   H13   S    
C17   C22   A    
C23   O7    A    
C28   C30   A    
C33   O9    S    
C29   C31   A    
C48   H33   S    
C30   C32   A    
C20   C26   S    
C27   C37   A    
C8    C11   A    
C36   C38   A    
C17   C19   A    
C34   C36   A    
C53   C54   S    
C43   H15   S    
C19   C25   S    
C26   N1    T    
C27   C41   S    
C3    C39   A    
C46   H22   S    
C45   H26   S    
C50   H38   S    
C47   H29   S    
C8    C10   A    
C13   C16   T    
O11   C51   S    
Cu1   O5    S    
C14   C15   T    
C41   H21   S    
C51   C52   S    
C2    O4    A    
