data_mof_unit_520.cif
_audit_creation_date              2012-12-11T16:18:16-0500
_audit_creation_method            fapswitch 2.2
_symmetry_space_group_name_H-M    P1
_symmetry_Int_Tables_number       1
_space_group_crystal_system       triclinic
_cell_length_a                    14.037619
_cell_length_b                    14.056993
_cell_length_c                    30.091753
_cell_angle_alpha                 97.087653
_cell_angle_beta                  96.803571
_cell_angle_gamma                 61.300031
_cell_volume                      5156.64114974

loop_
_atom_site_label
_atom_site_type_symbol
_atom_type_description
_atom_site_fract_x
_atom_site_fract_y
_atom_site_fract_z
_atom_type_partial_charge
C1    C     C_R   0.386060 0.710790 0.442204 0.538763
C2    C     C_R   0.797505 0.262812 0.378929 0.279126
C3    C     C_R   0.834545 0.238323 0.335100 0.222842
C4    C     C_R   0.398787 0.380970 0.426602 0.540998
C5    C     C_R   0.845526 0.317652 0.314521 -0.012201
C6    C     C_R   0.832824 0.414504 0.339396 0.213652
C7    C     C_R   0.795977 0.437364 0.382246 -0.123946
C8    C     C_R   0.837931 0.397809 0.160121 -0.003348
C9    C     C_R   0.850320 0.394618 0.114339 0.187194
C10   C     C_R   0.881406 0.207040 0.104975 0.260319
C11   C     C_R   0.868927 0.210213 0.150655 0.295814
C12   C     C_R   0.353274 0.236762 0.223670 0.237944
C13   C     C_R   0.853043 0.304159 0.178829 -0.085734
C14   C     C_1   0.853232 0.305028 0.226731 -0.026471
C15   C     C_1   0.852230 0.308339 0.266741 -0.017185
C16   C     C_R   0.710715 0.405241 0.442402 0.567462
C17   C     C_R   0.885284 0.294642 0.087633 -0.081105
C18   C     C_R   0.368067 0.767331 0.401329 0.001646
C19   C     C_R   0.460649 0.753407 0.381647 -0.130089
C20   C     C_R   0.452743 0.780908 0.338141 -0.109231
C21   C     C_R   0.352240 0.824038 0.313865 0.023298
C22   C     C_R   0.257775 0.848043 0.334071 -0.088551
C23   C     C_R   0.359223 0.247466 0.270406 -0.054608
C24   C     C_R   0.264648 0.820641 0.377929 -0.010822
C25   C     C_R   0.259970 0.831316 0.153489 -0.127379
C26   C     C_R   0.237948 0.856834 0.108544 0.243506
C27   C     C_R   0.387861 0.900199 0.116774 -0.105435
C28   C     C_R   0.389488 0.711641 0.568214 0.551204
C29   C     C_R   0.410564 0.873602 0.161248 0.264321
C30   C     C_R   0.341870 0.844417 0.180176 -0.006265
C31   C     C_1   0.346437 0.837689 0.227420 0.000523
C32   C     C_1   0.348348 0.833333 0.267007 0.003863
C33   C     C_R   0.298694 0.897770 0.090826 0.003250
C34   C     C_R   0.322240 0.349395 0.293722 -0.079378
C35   C     C_R   0.356828 0.360496 0.589985 -0.075527
C36   C     C_R   0.412710 0.257270 0.608062 0.216630
C37   C     C_R   0.398922 0.248293 0.652431 0.009531
C38   C     C_R   0.324240 0.339297 0.677667 -0.049339
C39   C     C_R   0.253665 0.436277 0.657150 0.225908
C40   C     C_R   0.400242 0.382392 0.551754 0.523796
C41   C     C_R   0.269754 0.446646 0.613367 -0.021201
C42   C     C_R   0.231287 0.412605 0.834862 -0.028297
C43   C     C_R   0.219873 0.398948 0.879191 -0.041542
C44   C     C_R   0.394903 0.234217 0.878586 -0.138976
C45   C     C_R   0.309105 0.331401 0.199507 0.007931
C46   C     C_R   0.406980 0.248319 0.835043 -0.024035
C47   C     C_R   0.322418 0.333981 0.812267 -0.001407
C48   C     C_1   0.324810 0.335707 0.764863 0.007562
C49   C     C_1   0.324869 0.336103 0.725124 -0.006392
C50   C     C_R   0.298872 0.304374 0.900035 -0.022637
C51   C     C_1   0.763008 0.376088 0.612212 0.023446
C52   C     C_R   0.713037 0.407776 0.568460 0.550422
C53   C     C_R   0.879114 0.376659 0.725047 -0.016855
C54   C     C_R   0.895817 0.363179 0.771016 -0.136895
C55   C     C_R   0.795385 0.259826 0.762679 0.254338
C56   C     C_1   0.299204 0.320438 0.151219 -0.061576
C57   C     C_R   0.778967 0.273128 0.716270 0.031321
C58   C     C_R   0.820093 0.332101 0.697378 -0.042879
C59   C     C_R   0.854041 0.306219 0.790142 0.003988
C60   C     C_1   0.877919 0.293248 0.837615 -0.052859
C61   C     C_1   0.793711 0.353998 0.650486 -0.031254
C62   C     C_1   0.905911 0.282526 0.876883 0.001173
C63   C     C_1   0.374799 0.759827 0.613310 0.007765
C64   C     C_1   0.364536 0.363477 0.381224 0.021629
C65   C     C_R   0.273469 0.804515 0.718731 -0.125536
C66   C     C_R   0.263509 0.820643 0.764884 -0.119401
C67   C     C_1   0.342000 0.354946 0.341694 -0.037662
C68   C     C_R   0.417885 0.856727 0.775419 0.045086
C69   C     C_R   0.428733 0.840433 0.728710 0.256484
C70   C     C_R   0.354873 0.814531 0.700247 0.010888
C71   C     C_R   0.335128 0.846595 0.793411 -0.032579
C72   C     C_1   0.316003 0.872157 0.840488 -0.042364
C73   C     C_1   0.365093 0.789143 0.652598 -0.050809
C74   C     C_1   0.294772 0.901879 0.879008 0.011652
C75   C     C_R   0.947658 0.274119 0.047553 0.526613
C76   C     C_R   0.277000 0.443815 0.270234 0.037274
C77   C     C_R   0.275168 0.270294 0.065376 0.551775
C78   C     C_1   0.289623 0.303187 0.111286 0.000212
C79   C     C_R   0.260618 0.953880 0.048883 0.569890
C80   C     C_R   0.952396 0.269090 0.922115 0.538725
C81   C     C_R   0.277036 0.266857 0.939760 0.540072
C82   C     C_R   0.261807 0.950666 0.922933 0.547270
C83   C     C_R   0.270101 0.435803 0.223056 0.230619
C84   C     C_1   0.238580 0.549921 0.294356 0.295633
C85   C     C_1   0.165166 0.845403 0.397254 0.253602
C86   C     C_1   0.125750 0.480688 0.902120 0.241130
C87   C     C_1   0.147161 0.504761 0.811898 0.198860
C88   C     C_1   0.195850 0.548266 0.593865 0.316331
C89   C     C_R   0.772391 0.365656 0.401446 -0.035439
C90   C     C_1   0.504404 0.170156 0.813433 0.230367
C91   C     C_1   0.463377 0.145000 0.672031 0.304812
C92   C     C_1   0.922385 0.437585 0.707045 0.228094
C93   C     C_1   0.718626 0.226280 0.688153 0.279120
C94   C     C_1   0.491724 0.884744 0.804658 0.281181
C95   C     C_1   0.810771 0.498185 0.187832 0.297750
Cr1   Cr    Cr6+3 0.581000 0.584320 0.508140 1.052166
Cr2   Cr    Cr6+3 0.339110 0.576430 0.496080 1.080719
Cr3   Cr    Cr6+3 0.579910 0.339270 0.495810 1.108832
Cr4   Cr    Cr6+3 0.082090 0.079210 0.982490 1.091995
Cr5   Cr    Cr6+3 0.082460 0.324610 0.994920 1.085994
Cr6   Cr    Cr6+3 0.323630 0.087860 0.996130 1.050002
H1    H     H_    0.209687 0.806121 0.168317 0.143763
H2    H     H_    0.395094 0.174920 0.288704 0.166417
H3    H     H_    0.780369 0.515191 0.399626 0.180018
H4    H     H_    0.854851 0.133541 0.197649 0.329059
H5    H     H_    0.857327 0.138254 0.048438 0.323394
H6    H     H_    0.895269 0.125368 0.286253 0.333823
H7    H     H_    0.120784 0.817898 0.100087 0.344433
H8    H     H_    0.509697 0.853389 0.214828 0.345553
H9    H     H_    0.228531 0.515651 0.168788 0.338589
H10   H     H_    0.157734 0.502344 0.706797 0.357707
H11   H     H_    0.456434 0.171165 0.551795 0.337658
H12   H     H_    0.179622 0.883625 0.315010 0.142561
H13   H     H_    0.387697 0.132467 0.170559 0.345660
H14   H     H_    0.767624 0.200564 0.812433 0.337797
H15   H     H_    0.508202 0.840825 0.679455 0.343931
H16   H     H_    0.804372 0.487002 0.065169 0.341206
H17   H     H_    0.889838 0.460790 0.295040 0.344742
H18   H     H_    0.805556 0.120229 0.381115 0.384164
H19   H     H_    0.541070 0.713917 0.398562 0.150623
H20   H     H_    0.436960 0.929002 0.103427 0.174119
H21   H     H_    0.526006 0.763000 0.322623 0.146587
H22   H     H_    0.458240 0.163622 0.894579 0.160159
H23   H     H_    0.941763 0.397486 0.792152 0.140641
H24   H     H_    0.217608 0.783389 0.697304 0.162604
H25   H     H_    0.198902 0.813893 0.778346 0.156725
N1    N     N_1   0.207749 0.634711 0.313656 -0.267706
N2    N     N_1   0.550731 0.907065 0.828113 -0.248179
N3    N     N_1   0.788987 0.578394 0.209944 -0.225196
N4    N     N_1   0.085295 0.865408 0.412668 -0.233299
N5    N     N_1   0.050566 0.546105 0.920315 -0.243675
N6    N     N_1   0.079961 0.578289 0.793686 -0.248721
N7    N     N_1   0.136431 0.629554 0.578461 -0.232128
N8    N     N_1   0.582393 0.107729 0.796133 -0.180031
N9    N     N_1   0.514917 0.062489 0.687692 -0.186784
N10   N     N_1   0.956992 0.486386 0.692606 -0.235572
N11   N     N_1   0.670624 0.188784 0.665556 -0.217565
O1    O     O_R   0.688580 0.499770 0.460490 -0.534059
O2    O     O_R   0.346150 0.177650 0.050510 -0.503763
O3    O     O_R   0.314200 0.996600 0.036060 -0.525151
O4    O     O_R   0.480400 0.672610 0.462660 -0.507449
O5    O     O_R   0.168690 0.969990 0.933130 -0.496727
O6    O     O_R   0.991920 0.175870 0.937430 -0.499401
O7    O     O_R   0.974010 0.342590 0.941330 -0.494100
O8    O     O_R   0.182630 0.317940 0.955040 -0.486298
O9    O     O_R   0.347320 0.174720 0.953250 -0.510083
O10   O     O_R   0.315290 0.993890 0.945900 -0.491946
O11   O     O_3   0.162730 0.163890 0.991180 -0.269578
O12   O     O_R   0.348600 0.476260 0.536540 -0.502243
O13   O     O_R   0.315310 0.685650 0.451800 -0.486455
O14   O     O_R   0.346220 0.474990 0.446280 -0.490631
O15   O     O_R   0.492270 0.312460 0.441630 -0.488972
O16   O     O_R   0.669740 0.350480 0.455640 -0.427281
O17   O     O_R   0.691150 0.501150 0.557860 -0.493659
O18   O     O_R   0.482790 0.673890 0.552920 -0.490896
O19   O     O_R   0.317880 0.687030 0.549170 -0.486031
O20   O     O_3   0.874410 0.118828 0.166115 -0.613792
O21   O     O_3   0.892722 0.115283 0.078531 -0.587213
O22   O     O_3   0.853639 0.139232 0.312781 -0.694028
O23   O     O_R   0.494840 0.313840 0.539010 -0.475338
O24   O     O_3   0.154882 0.846999 0.082353 -0.625215
O25   O     O_3   0.496693 0.882465 0.185129 -0.629839
O26   O     O_3   0.225249 0.531393 0.201660 -0.678430
O27   O     O_3   0.171685 0.524695 0.679416 -0.659827
O28   O     O_3   0.483435 0.164743 0.583812 -0.646807
O29   O     O_3   0.392079 0.132151 0.203548 -0.650321
O30   O     O_3   0.753017 0.201668 0.779486 -0.665942
O31   O     O_3   0.511963 0.849928 0.712622 -0.654776
O32   O     O_3   0.830975 0.489380 0.097094 -0.644508
O33   O     O_3   0.848832 0.492278 0.322333 -0.667306
O34   O     O_R   0.672120 0.351750 0.545910 -0.484073
O35   O     O_3   0.782574 0.189348 0.400053 -0.651138
O36   O     O_3   0.500010 0.500010 0.500010 -0.273009
O37   O     O_R   0.167510 0.972920 0.030390 -0.413259
O38   O     O_R   0.990840 0.178580 0.027590 -0.482712
O39   O     O_R   0.972840 0.345510 0.038590 -0.478503
O40   O     O_R   0.181550 0.320660 0.045200 -0.479417

loop_
_geom_bond_atom_site_label_1
_geom_bond_atom_site_label_2
_ccdc_geom_bond_type
Cr4   O11   S    
Cr6   O11   S    
C8    C13   A    
C55   C59   A    
C27   C29   A    
Cr4   O5    S    
C9    O32   S    
C35   C36   A    
C51   C61   T    
C55   O30   S    
C82   O5    A    
C76   C84   S    
C82   O10   A    
Cr6   O2    S    
C23   H2    S    
C39   C41   A    
C38   C49   S    
C45   C83   A    
C77   C78   S    
C27   C33   A    
C12   C23   A    
C25   H1    S    
C1    C18   S    
C29   C30   A    
C18   C24   A    
Cr4   O6    S    
C36   C37   A    
C88   N7    T    
C16   O1    A    
H8    O25   S    
Cr1   O1    S    
C30   C31   S    
C90   N8    T    
C86   N5    T    
Cr1   O18   S    
H17   O33   S    
C10   C17   A    
C52   O17   A    
C65   C70   A    
C7    C89   A    
C56   C78   T    
C76   C83   A    
C60   C62   T    
C18   C19   A    
Cr2   O19   S    
C4    O14   A    
C54   H23   S    
Cr1   O4    S    
C22   H12   S    
H4    O20   S    
C66   C71   A    
C45   C56   S    
C8    C9    A    
C80   O7    A    
Cr5   O39   S    
C28   O18   A    
Cr2   O13   S    
C24   C85   S    
C10   O21   S    
C20   H21   S    
H18   O35   S    
C80   O6    A    
C58   C61   S    
C79   O3    A    
Cr3   O16   S    
C59   C60   S    
C57   C93   S    
C13   C14   S    
C3    O22   S    
C79   O37   A    
C92   N10   T    
C8    C95   S    
C74   C82   S    
Cr5   O40   S    
C52   O34   A    
Cr6   O3    S    
C44   C46   A    
H13   O29   S    
C54   C59   A    
C27   H20   S    
C38   C39   A    
C4    O15   A    
C21   C32   S    
Cr1   O17   S    
Cr6   O9    S    
Cr2   O36   S    
Cr1   O36   S    
C37   C91   S    
C75   O38   A    
C51   C52   S    
C64   C67   T    
C93   N11   T    
C72   C74   T    
Cr5   O7    S    
Cr3   O36   S    
C68   C69   A    
Cr3   O15   S    
C63   C73   T    
C3    C5    A    
C25   C26   A    
C53   C54   A    
C77   O40   A    
C66   H25   S    
C65   H24   S    
C87   N6    T    
C2    C89   A    
C37   C38   A    
C85   N4    T    
C26   C33   A    
C31   C32   T    
Cr5   O8    S    
C53   C58   A    
C23   C34   A    
C70   C73   S    
Cr2   O14   S    
Cr4   O38   S    
C1    O13   A    
C81   O9    A    
Cr3   O34   S    
C9    C17   A    
C48   C49   T    
C84   N1    T    
Cr3   O23   S    
C19   H19   S    
C62   C80   S    
C81   O8    A    
C7    H3    S    
C55   C57   A    
C22   C24   A    
C42   C43   A    
H14   O30   S    
C11   O20   S    
C17   C75   S    
C6    O33   S    
C44   C50   A    
C25   C30   A    
C41   C88   S    
C83   O26   S    
C46   C47   A    
Cr6   O10   S    
C26   O24   S    
C75   O39   A    
C43   C86   S    
C29   O25   S    
C40   O23   A    
C33   C79   S    
H10   O27   S    
C77   O2    A    
C12   C45   A    
C47   C48   S    
C34   C67   S    
H6    O22   S    
H9    O26   S    
C95   N3    T    
C43   C50   A    
C6    C7    A    
C46   C90   S    
C94   N2    T    
H7    O24   S    
C4    C64   S    
C44   H22   S    
C19   C20   A    
C2    C3    A    
C69   O31   S    
C71   C72   S    
H5    O21   S    
C12   O29   S    
C11   C13   A    
C57   C58   A    
C5    C6    A    
Cr4   O37   S    
Cr5   O11   S    
C68   C71   A    
H11   O28   S    
C36   O28   S    
C40   O12   A    
C35   C40   S    
C53   C92   S    
C42   C47   A    
C69   C70   A    
C35   C41   A    
C68   C94   S    
C5    C15   S    
C1    O4    A    
C10   C11   A    
C28   C63   S    
H16   O32   S    
C16   C89   S    
C91   N9    T    
C20   C21   A    
C65   C66   A    
C34   C76   A    
C16   O16   A    
C28   O19   A    
Cr2   O12   S    
C14   C15   T    
H15   O31   S    
C42   C87   S    
C39   O27   S    
C21   C22   A    
C50   C81   S    
C2    O35   S    
