data_mof_unit_4639.cif
_audit_creation_date              2012-12-10T18:42:30-0500
_audit_creation_method            fapswitch 2.2
_symmetry_space_group_name_H-M    P1
_symmetry_Int_Tables_number       1
_space_group_crystal_system       triclinic
_cell_length_a                    8.623586
_cell_length_b                    10.700843
_cell_length_c                    9.956351
_cell_angle_alpha                 90.402123
_cell_angle_beta                  98.684
_cell_angle_gamma                 92.231455
_cell_volume                      907.46972074

loop_
_atom_site_label
_atom_site_type_symbol
_atom_type_description
_atom_site_fract_x
_atom_site_fract_y
_atom_site_fract_z
_atom_type_partial_charge
C1    C     C_R   0.500467 0.260284 0.499679 0.908303
C2    C     C_R   0.499531 0.739716 0.500321 0.908322
C3    C     C_R   0.201848 0.498756 0.464778 0.932752
C4    C     C_R   0.798151 0.501239 0.535222 0.932805
C5    C     C_2   0.038148 0.476384 0.451100 -0.238456
C6    C     C_2   0.961852 0.523603 0.548901 -0.238450
C7    C     C_R   0.453608 0.061634 0.378049 -0.142196
C8    C     C_R   0.546386 0.938366 0.621950 -0.142193
C9    C     C_R   0.451500 0.933539 0.378547 -0.077636
C10   C     C_R   0.548494 0.066461 0.621452 -0.077646
C11   C     C_R   0.498576 0.872313 0.500481 -0.040161
C12   C     C_R   0.501419 0.127687 0.499518 -0.040163
C13   C     C_R   0.592492 0.584696 0.085668 -0.003784
C14   C     C_R   0.407510 0.415303 0.914331 -0.003794
C15   C     C_R   0.591199 0.586581 0.941234 -0.003960
C16   C     C_R   0.408801 0.413418 0.058766 -0.003943
H1    H     H_    0.416479 0.108458 0.283538 0.203056
H2    H     H_    0.583515 0.891541 0.716461 0.203066
H3    H     H_    0.412193 0.882775 0.284230 0.199450
H4    H     H_    0.587800 0.117225 0.715768 0.199456
N1    N     N_R   0.499960 0.499970 0.857200 -0.172493
N2    N     N_R   0.500040 0.500030 0.142800 -0.172488
O1    O     O_R   0.499990 0.316750 0.614620 -0.607036
O2    O     O_R   0.500010 0.683250 0.385380 -0.607017
O3    O     O_R   0.499990 0.316780 0.385290 -0.628733
O4    O     O_R   0.500010 0.683220 0.614710 -0.628740
O5    O     O_R   0.271750 0.499990 0.587840 -0.608962
O6    O     O_R   0.728250 0.500010 0.412160 -0.608922
O7    O     O_R   0.271750 0.500010 0.358510 -0.678744
O8    O     O_R   0.728250 0.499990 0.641490 -0.678751
Zn1   Zn    Zn3+2 0.500000 0.499980 0.653120 0.968260
Zn2   Zn    Zn3+2 0.500000 0.500020 0.346880 0.968282
C17   C     C_2   0.972673 0.377676 0.348789 0.408891
H5    H     H_    0.008934 0.377359 0.249150 0.055265
O9    O     O_2   0.884622 0.293045 0.377309 -0.528157
C18   C     C_2   0.027332 0.622309 0.651214 0.408926
H6    H     H_    0.991138 0.622583 0.750890 0.055229
O10   O     O_2   0.115320 0.706977 0.622660 -0.528153
C19   C     C_2   0.702606 0.667238 0.176915 0.603098
H7    H     H_    0.813451 0.632373 0.225070 0.018829
O11   O     O_2   0.671712 0.775578 0.196396 -0.517229
C20   C     C_2   0.297408 0.332754 0.823082 0.603087
H8    H     H_    0.186575 0.367621 0.774895 0.018839
O12   O     O_2   0.328301 0.224410 0.803625 -0.517228
C21   C     C_2   0.688580 0.682399 0.880923 0.377444
H9    H     H_    0.728107 0.666034 0.785888 0.113924
O13   O     O_2   0.724105 0.784048 0.935558 -0.541806
C22   C     C_2   0.311418 0.317603 0.119078 0.377440
H10   H     H_    0.271913 0.333962 0.214122 0.113922
O14   O     O_2   0.275868 0.215960 0.064436 -0.541805

loop_
_geom_bond_atom_site_label_1
_geom_bond_atom_site_label_2
_ccdc_geom_bond_type
O2    Zn2   S    
N1    Zn1   S    
N2    Zn2   S    
C15   N1    A    
C14   C20   S    
C16   C22   S    
O3    Zn2   S    
C22   O14   D    
C17   H5    S    
C4    O8    A    
O4    Zn1   S    
C2    O4    A    
C21   H9    S    
C1    O3    A    
C9    C11   A    
C3    O7    A    
C5    C6    D    
C1    C12   S    
C20   O12   D    
C8    C11   A    
C2    C11   S    
C10   C12   A    
C14   N1    A    
C3    O5    A    
C18   H6    S    
C17   O9    D    
C6    C18   S    
C13   N2    A    
C1    O1    A    
O7    Zn2   S    
C5    C17   S    
C13   C15   A    
C2    O2    A    
O8    Zn1   S    
C14   C16   A    
C7    C12   A    
C13   C19   S    
C20   H8    S    
C15   C21   S    
O5    Zn1   S    
C18   O10   D    
C3    C5    S    
O6    Zn2   S    
C19   O11   D    
C4    C6    S    
C21   O13   D    
C19   H7    S    
C7    C9    A    
C22   H10   S    
C16   N2    A    
C4    O6    A    
C9    H3    S    
C8    C10   A    
C8    H2    S    
C10   H4    S    
C7    H1    S    
O1    Zn1   S    
