data_mof_unit_950.cif
_audit_creation_date              2012-10-26T18:28:16-0400
_audit_creation_method            fapswitch 2.2
_symmetry_space_group_name_H-M    P1
_symmetry_Int_Tables_number       1
_space_group_crystal_system       triclinic
_cell_length_a                    27.772034
_cell_length_b                    11.032395
_cell_length_c                    9.86483
_cell_angle_alpha                 111.456681
_cell_angle_beta                  98.815585
_cell_angle_gamma                 90.80955
_cell_volume                      2771.69079348

loop_
_atom_site_label
_atom_site_type_symbol
_atom_type_description
_atom_site_fract_x
_atom_site_fract_y
_atom_site_fract_z
_atom_type_partial_charge
C1    C     C_R   0.496440 0.253936 0.440328 0.559650
C2    C     C_R   0.867081 0.375865 0.401114 0.030407
C3    C     C_R   0.354362 0.493425 0.499594 0.034427
C4    C     C_R   0.645937 0.500901 0.495811 0.007786
C5    C     C_R   0.969446 0.374642 0.407466 0.014561
C6    C     C_R   0.025033 0.608402 0.458387 0.016497
C7    C     C_R   0.975113 0.611897 0.475930 0.004361
C8    C     C_R   0.021259 0.380871 0.439874 0.002351
C9    C     C_R   0.946804 0.493660 0.442422 0.001862
C10   C     C_R   0.048964 0.495702 0.456781 0.000953
C11   C     C_R   0.939355 0.255385 0.342943 0.085477
C12   C     C_R   0.503533 0.746063 0.559672 0.561271
C13   C     C_R   0.052101 0.712189 0.443536 0.090374
C14   C     C_R   0.888715 0.256349 0.342909 0.145247
C15   C     C_R   0.103275 0.712963 0.456059 0.145701
C16   C     C_R   0.407444 0.497593 0.499849 0.564369
C17   C     C_R   0.592735 0.500925 0.499689 0.550709
C18   C     C_R   0.045950 0.279461 0.466250 -0.143755
C19   C     C_R   0.953692 0.730125 0.536010 -0.144738
C20   C     C_2   0.494482 0.114206 0.406645 -0.122857
C21   C     C_2   0.505436 0.885795 0.593353 -0.121258
C22   C     C_2   0.500792 0.069660 0.516319 -0.150475
C23   C     C_R   0.100617 0.497724 0.473271 -0.095026
C24   C     C_2   0.499074 0.930339 0.483679 -0.149142
C25   C     C_2   0.503863 0.509980 0.080920 0.090940
C26   C     C_2   0.496923 0.487732 0.918390 0.093415
C27   C     C_R   0.176073 0.393228 0.500926 0.418212
C28   C     C_R   0.823926 0.613569 0.503214 0.418789
C29   C     C_R   0.179453 0.606212 0.491563 0.418349
C30   C     C_R   0.816978 0.380575 0.412156 0.418411
C31   C     C_R   0.286490 0.568251 0.630385 -0.062375
C32   C     C_R   0.710395 0.452687 0.345798 -0.063583
C33   C     C_R   0.336618 0.566561 0.629115 -0.166064
C34   C     C_R   0.896020 0.494930 0.446656 -0.093867
C35   C     C_R   0.661015 0.453607 0.356811 -0.158502
C36   C     C_R   0.320992 0.418046 0.371024 0.086146
C37   C     C_R   0.682264 0.548227 0.625355 0.076867
C38   C     C_R   0.270713 0.420830 0.374017 -0.034758
C39   C     C_R   0.731665 0.546592 0.612241 0.003902
C40   C     C_R   0.253491 0.495983 0.502631 0.214118
C41   C     C_R   0.745865 0.499112 0.473322 0.200931
C42   C     C_R   0.124739 0.389431 0.487406 0.063899
C43   C     C_R   0.874413 0.615492 0.498259 0.065435
C44   C     C_R   0.096802 0.281716 0.488380 0.107886
C45   C     C_R   0.904148 0.733502 0.546197 0.104962
C46   C     C_R   0.128039 0.607839 0.475945 0.028812
Cu1   Cu    Cu3+1 0.508480 0.521810 0.644910 0.940470
Cu2   Cu    Cu3+1 0.491520 0.478190 0.355090 0.963035
H1    H     H_    0.721160 0.416026 0.237853 0.144402
H2    H     H_    0.531657 0.583849 0.156284 0.152212
H3    H     H_    0.587276 0.643531 0.928071 0.250697
H4    H     H_    0.541343 0.742799 0.945705 0.256040
H5    H     H_    0.410200 0.374014 0.077927 0.280302
H6    H     H_    0.451850 0.262233 0.054390 0.252863
H7    H     H_    0.244661 0.364613 0.276285 0.124644
H8    H     H_    0.759334 0.582470 0.710864 0.155516
H9    H     H_    0.106462 0.088763 0.420575 0.230336
H10   H     H_    0.108446 0.164291 0.604847 0.222161
H11   H     H_    0.904111 0.906644 0.714811 0.231370
H12   H     H_    0.273236 0.626339 0.730238 0.140892
H13   H     H_    0.891108 0.912769 0.544289 0.228472
H14   H     H_    0.634558 0.416587 0.255520 0.140498
H15   H     H_    0.361552 0.624535 0.728737 0.135663
H16   H     H_    0.862643 0.090125 0.168258 0.262497
H17   H     H_    0.872137 0.073910 0.334829 0.239375
H18   H     H_    0.122817 0.906621 0.527193 0.237946
H19   H     H_    0.117444 0.825716 0.341575 0.256985
H20   H     H_    0.964108 0.076578 0.320005 0.223094
H21   H     H_    0.988626 0.150324 0.216561 0.248922
H22   H     H_    0.028280 0.894459 0.482272 0.212704
H23   H     H_    0.308875 0.293901 0.153032 0.230453
H24   H     H_    0.993549 0.772549 0.333475 0.248939
H25   H     H_    0.026180 0.199168 0.476279 0.113008
H26   H     H_    0.975583 0.821866 0.582834 0.114530
H27   H     H_    0.492529 0.863780 0.368609 0.160905
H28   H     H_    0.507326 0.136220 0.631389 0.159094
H29   H     H_    0.355356 0.261370 0.261541 0.232476
H30   H     H_    0.652521 0.526844 0.791239 0.253980
H31   H     H_    0.648287 0.677420 0.778796 0.249053
H32   H     H_    0.512007 0.952604 0.708237 0.103318
H33   H     H_    0.487922 0.047397 0.291760 0.103483
H34   H     H_    0.470351 0.410730 0.842300 0.153298
N1    N     N_R   0.201836 0.499671 0.501461 -0.419359
N2    N     N_3   0.884816 0.858080 0.607780 -0.540536
N3    N     N_3   0.859152 0.134724 0.279425 -0.528542
N4    N     N_3   0.129870 0.820444 0.444681 -0.527637
N5    N     N_3   0.957403 0.134490 0.256763 -0.652583
N6    N     N_3   0.028711 0.807060 0.392645 -0.664466
N7    N     N_R   0.796813 0.497715 0.462042 -0.421127
N8    N     N_2   0.478780 0.445430 0.137360 -0.186527
N9    N     N_2   0.521220 0.554570 0.862640 -0.186968
N10   N     N_3   0.338179 0.337363 0.239195 -0.612366
N11   N     N_3   0.670671 0.600635 0.771286 -0.624840
N12   N     N_3   0.553133 0.658375 0.960600 -0.567792
N13   N     N_3   0.443408 0.349734 0.041447 -0.564405
N14   N     N_3   0.119454 0.173557 0.512136 -0.545287
O1    O     O_R   0.504520 0.332330 0.577400 -0.503856
O2    O     O_2   0.801686 0.726029 0.547863 -0.435512
O3    O     O_2   0.788487 0.269556 0.376067 -0.438823
O4    O     O_2   0.207183 0.709084 0.495144 -0.436774
O5    O     O_R   0.495480 0.667670 0.422600 -0.502059
O6    O     O_R   0.490210 0.295500 0.332650 -0.497705
O7    O     O_R   0.509790 0.704500 0.667350 -0.499447
O8    O     O_R   0.437420 0.518430 0.622370 -0.512729
O9    O     O_R   0.562580 0.481570 0.377630 -0.508099
O10   O     O_R   0.423110 0.481600 0.377610 -0.458177
O11   O     O_R   0.576890 0.518400 0.622390 -0.501740
O12   O     O_2   0.200409 0.291476 0.512343 -0.436950

loop_
_geom_bond_atom_site_label_1
_geom_bond_atom_site_label_2
_ccdc_geom_bond_type
C41   N7    S    
H29   N10   S    
H5    N13   S    
C22   H28   S    
H22   N6    S    
N8    N13   S    
C39   C41   A    
C25   N8    D    
C23   C42   A    
C3    C36   A    
H31   N11   S    
C17   O9    A    
C17   O11   A    
C11   C14   A    
C3    C33   A    
H30   N11   S    
C29   N1    A    
C31   C40   A    
C13   N6    S    
H10   N14   S    
C25   H2    S    
C16   O8    A    
Cu2   O10   S    
C38   H7    S    
C39   H8    S    
C11   N5    S    
H19   N4    S    
H9    N14   S    
Cu1   Cu2   S    
C32   C41   A    
C31   C33   A    
H4    N12   S    
C28   N7    A    
H21   N5    S    
C16   O10   A    
C2    C34   A    
C4    C35   A    
C26   H34   S    
C23   C46   A    
Cu2   N8    S    
C20   H33   S    
C40   N1    S    
C42   C44   A    
C30   N7    A    
H24   N6    S    
Cu1   O7    S    
H23   N10   S    
C32   C35   A    
H11   N2    S    
C12   O7    A    
C1    O1    A    
C25   C26   S    
C30   O3    S    
C8    C18   A    
C31   H12   S    
C5    C9    A    
C44   N14   S    
C18   C44   A    
Cu2   O9    S    
C33   H15   S    
Cu2   O6    S    
C37   N11   S    
H17   N3    S    
C43   C45   A    
H6    N13   S    
C15   N4    S    
C4    C17   S    
C20   C22   D    
C18   H25   S    
C7    C19   A    
C13   C15   A    
C9    C34   A    
C22   C24   S    
C45   N2    S    
H16   N3    S    
C28   O2    S    
C7    C9    A    
C1    C20   S    
Cu1   O8    S    
C29   O4    S    
Cu1   N9    S    
C19   H26   S    
C34   C43   A    
C14   N3    S    
H13   N2    S    
H18   N4    S    
C5    C8    A    
C19   C45   A    
C24   H27   S    
C5    C11   A    
C6    C7    A    
C10   C23   A    
C28   C43   A    
Cu1   O11   S    
Cu1   O1    S    
C29   C46   A    
C2    C30   A    
C27   N1    A    
C26   N9    D    
C12   O5    A    
C37   C39   A    
N9    N12   S    
C38   C40   A    
C27   C42   A    
C36   N10   S    
C27   O12   S    
Cu2   O5    S    
C12   C21   S    
C21   H32   S    
C36   C38   A    
C35   H14   S    
C2    C14   A    
C32   H1    S    
C6    C10   A    
H3    N12   S    
C4    C37   A    
C8    C10   A    
C21   C24   D    
H20   N5    S    
C15   C46   A    
C1    O6    A    
C3    C16   S    
C6    C13   A    
