data_mof_unit_1135.cif
_audit_creation_date              2012-10-26T18:40:06-0400
_audit_creation_method            fapswitch 2.2
_symmetry_space_group_name_H-M    P1
_symmetry_Int_Tables_number       1
_space_group_crystal_system       triclinic
_cell_length_a                    8.71903
_cell_length_b                    15.137889
_cell_length_c                    13.864258
_cell_angle_alpha                 90.071367
_cell_angle_beta                  98.091709
_cell_angle_gamma                 90.065944
_cell_volume                      1811.69007658

loop_
_atom_site_label
_atom_site_type_symbol
_atom_type_description
_atom_site_fract_x
_atom_site_fract_y
_atom_site_fract_z
_atom_type_partial_charge
C1    C     C_R   0.499999 0.329891 0.499955 0.548012
C2    C     C_R   0.552640 0.576281 0.896638 -0.037216
C3    C     C_R   0.494103 0.500933 0.053877 0.008583
C4    C     C_R   0.497191 0.502514 0.945006 0.007306
C5    C     C_R   0.203638 0.499928 0.475038 0.553900
C6    C     C_R   0.796379 0.500015 0.524975 0.552938
C7    C     C_2   0.037730 0.499793 0.461318 -0.154666
C8    C     C_2   0.962323 0.500045 0.538746 -0.153730
C9    C     C_R   0.549900 0.095472 0.586368 -0.121219
C10   C     C_R   0.545448 0.904725 0.421146 -0.122388
C11   C     C_R   0.548506 0.187279 0.586449 -0.133006
C12   C     C_R   0.500225 0.670128 0.500077 0.547843
C13   C     C_R   0.544264 0.812917 0.420844 -0.131381
C14   C     C_R   0.500203 0.233457 0.499957 0.016661
C15   C     C_R   0.500685 0.766596 0.500200 0.014884
C16   C     C_R   0.452110 0.186887 0.413537 -0.130544
C17   C     C_R   0.457483 0.813077 0.579621 -0.132456
C18   C     C_R   0.451272 0.095063 0.413748 -0.121420
C19   C     C_R   0.456489 0.904889 0.579294 -0.120385
C20   C     C_R   0.500731 0.048601 0.500093 0.034831
C21   C     C_R   0.500924 0.951470 0.500187 0.034327
C22   C     C_R   0.206766 0.460586 0.035751 0.011184
C23   C     C_R   0.630129 0.520276 0.117877 -0.144658
C24   C     C_R   0.145109 0.516901 0.959241 -0.086375
C25   C     C_R   0.002795 0.497556 0.903218 -0.111615
C26   C     C_R   0.918313 0.423451 0.924534 -0.101383
C27   C     C_R   0.976836 0.367904 0.001282 -0.116997
C28   C     C_R   0.120432 0.386036 0.056428 -0.113413
C29   C     C_R   0.604279 0.659278 0.948911 0.011541
C30   C     C_R   0.509450 0.702190 0.008532 -0.084777
C31   C     C_R   0.560029 0.779482 0.058505 -0.113443
C32   C     C_R   0.704709 0.815278 0.048670 -0.106080
C33   C     C_R   0.798748 0.774061 0.988456 -0.110394
C34   C     C_R   0.445428 0.428494 0.887947 -0.154326
C35   C     C_R   0.748722 0.696678 0.938477 -0.106539
C36   C     C_R   0.630149 0.520904 0.219209 0.035039
C37   C     C_R   0.445476 0.429017 0.786623 0.026660
C38   C     C_R   0.367039 0.478780 0.198567 0.036631
C39   C     C_R   0.554984 0.571962 0.794859 0.031403
C40   C     C_R   0.358759 0.479879 0.095777 -0.036686
Cu1   Cu    Cu3+1 0.500000 0.499990 0.596430 0.927580
Cu2   Cu    Cu3+1 0.500000 0.500010 0.403570 0.934374
H1    H     H_    0.977516 0.499449 0.387137 0.114426
H2    H     H_    0.419077 0.939356 0.640360 0.104562
H3    H     H_    0.736624 0.535486 0.089441 0.121958
H4    H     H_    0.403932 0.370339 0.921673 0.110575
H5    H     H_    0.735672 0.538284 0.265821 0.123760
H6    H     H_    0.401621 0.372012 0.744458 0.128186
H7    H     H_    0.264409 0.462145 0.230096 0.128757
H8    H     H_    0.598416 0.627706 0.758204 0.127162
H9    H     H_    0.206809 0.575619 0.942467 0.103721
H10   H     H_    0.957961 0.540019 0.843123 0.104766
H11   H     H_    0.807708 0.408997 0.881466 0.124244
H12   H     H_    0.022617 0.500309 0.612953 0.128995
H13   H     H_    0.911301 0.310431 0.017736 0.105353
H14   H     H_    0.164748 0.341495 0.114813 0.093800
H15   H     H_    0.396548 0.676018 0.016605 0.103021
H16   H     H_    0.486883 0.811697 0.104800 0.101188
H17   H     H_    0.743701 0.875113 0.087428 0.101897
H18   H     H_    0.910598 0.802026 0.980551 0.102595
H19   H     H_    0.823242 0.665694 0.892331 0.092055
H20   H     H_    0.591199 0.061236 0.653528 0.103074
H21   H     H_    0.582903 0.939060 0.360062 0.101522
H22   H     H_    0.587310 0.222089 0.653808 0.118818
H23   H     H_    0.579357 0.778255 0.359138 0.126481
H24   H     H_    0.413033 0.221392 0.346157 0.121642
H25   H     H_    0.422364 0.778529 0.641330 0.123060
H26   H     H_    0.410141 0.060489 0.346644 0.101177
N1    N     N_R   0.500000 0.500020 0.258690 -0.230466
N2    N     N_R   0.500000 0.499980 0.741310 -0.232763
O1    O     O_R   0.500010 0.371450 0.581430 -0.515154
O2    O     O_R   0.499990 0.628550 0.418570 -0.496795
O3    O     O_R   0.500010 0.371460 0.418560 -0.499122
O4    O     O_R   0.499990 0.628540 0.581440 -0.516789
O5    O     O_R   0.274840 0.499990 0.562640 -0.492781
O6    O     O_R   0.725160 0.500010 0.437360 -0.508920
O7    O     O_R   0.274840 0.500000 0.399770 -0.514042
O8    O     O_R   0.725160 0.500000 0.600230 -0.498564

loop_
_geom_bond_atom_site_label_1
_geom_bond_atom_site_label_2
_ccdc_geom_bond_type
C23   H3    S    
C12   O4    A    
C34   C37   A    
Cu1   Cu2   S    
C3    C23   A    
C10   H21   S    
C28   H14   S    
C7    C8    D    
C38   H7    S    
C13   H23   S    
C19   H2    S    
C26   C27   A    
C1    O1    A    
C2    C29   S    
C31   H16   S    
C19   C21   A    
C30   C31   A    
C11   C14   A    
C27   H13   S    
C6    O8    A    
C18   H26   S    
C30   H15   S    
C36   H5    S    
C22   C24   A    
C17   C19   A    
Cu1   O4    S    
C2    C39   A    
C34   H4    S    
C7    H1    S    
Cu1   O1    S    
C24   H9    S    
C12   O2    A    
C38   N1    A    
C22   C28   A    
C37   N2    A    
C10   C21   A    
C4    C34   A    
C17   H25   S    
C9    H20   S    
C24   C25   A    
C11   H22   S    
C8    H12   S    
Cu1   O8    S    
C5    C7    S    
C6    C8    S    
C25   C26   A    
Cu2   N1    S    
C5    O5    A    
C2    C4    A    
C29   C30   A    
Cu1   O5    S    
C9    C20   A    
C31   C32   A    
C12   C15   S    
C22   C40   S    
Cu2   O2    S    
C35   H19   S    
C37   H6    S    
C9    C11   A    
C3    C40   A    
C33   H18   S    
C13   C15   A    
C14   C16   A    
C16   H24   S    
C5    O7    A    
C3    C4    S    
C26   H11   S    
C36   N1    A    
C15   C17   A    
Cu2   O3    S    
C10   C13   A    
C6    O6    A    
C29   C35   A    
Cu2   O6    S    
C1    O3    A    
C32   C33   A    
C25   H10   S    
C38   C40   A    
C33   C35   A    
C39   N2    A    
C18   C20   A    
C39   H8    S    
C20   C21   S    
Cu2   O7    S    
C16   C18   A    
C23   C36   A    
C27   C28   A    
C1    C14   S    
C32   H17   S    
Cu1   N2    S    
