data_mof_unit_3288.cif
_audit_creation_date              2012-10-26T20:15:01-0400
_audit_creation_method            fapswitch 2.2
_symmetry_space_group_name_H-M    P1
_symmetry_Int_Tables_number       1
_space_group_crystal_system       triclinic
_cell_length_a                    17.773042
_cell_length_b                    9.098797
_cell_length_c                    7.792742
_cell_angle_alpha                 89.53069
_cell_angle_beta                  89.9371
_cell_angle_gamma                 90.433291
_cell_volume                      1260.1108792

loop_
_atom_site_label
_atom_site_type_symbol
_atom_type_description
_atom_site_fract_x
_atom_site_fract_y
_atom_site_fract_z
_atom_type_partial_charge
C1    C     C_R   0.499920 0.220033 0.500431 0.568862
C2    C     C_R   0.846287 0.591562 0.383677 0.219375
C3    C     C_R   0.765666 0.433893 0.636348 0.325320
C4    C     C_R   0.236454 0.621369 0.427553 0.300452
C5    C     C_R   0.233395 0.391567 0.586137 0.319522
C6    C     C_R   0.767438 0.583022 0.377299 0.324265
C7    C     C_R   0.727269 0.503793 0.502434 -0.028871
C8    C     C_R   0.273720 0.502666 0.501848 -0.017687
C9    C     C_R   0.885191 0.521811 0.520571 -0.090452
C10   C     C_R   0.116313 0.518523 0.522322 -0.100115
C11   C     C_1   0.966769 0.524107 0.525144 0.200148
C12   C     C_R   0.499986 0.779964 0.499569 0.568041
C13   C     C_1   0.034819 0.523131 0.525654 0.193175
C14   C     C_1   0.499906 0.065359 0.500592 0.028053
C15   C     C_1   0.499928 0.934636 0.499407 0.027730
C16   C     C_R   0.355678 0.499229 0.500190 0.634034
C17   C     C_R   0.644656 0.500338 0.500105 0.613023
C18   C     C_R   0.843927 0.445555 0.649740 0.182531
C19   C     C_R   0.158369 0.635055 0.445323 0.173916
C20   C     C_R   0.154566 0.394742 0.591073 0.169800
Cu1   Cu    Cu3+1 0.500000 0.500000 0.669080 1.176467
Cu2   Cu    Cu3+1 0.500000 0.500000 0.330920 1.181134
F1    F     F_    0.726369 0.351766 0.752642 -0.555462
F2    F     F_    0.277244 0.726440 0.343452 -0.577728
F3    F     F_    0.271653 0.278997 0.660232 -0.570590
F4    F     F_    0.729168 0.656281 0.252811 -0.554399
H1    H     H_    0.807491 0.447058 0.015298 0.386851
H2    H     H_    0.205268 0.929503 0.494159 0.386841
H3    H     H_    0.122694 0.325460 0.943886 0.360152
H4    H     H_    0.939693 0.917930 0.212056 0.414293
N1    N     N_1   0.500000 0.500000 0.076820 -0.048100
N2    N     N_1   0.500000 0.500000 0.923180 -0.047939
O1    O     O_R   0.500000 0.288390 0.642760 -0.482329
O2    O     O_2   0.953662 0.457801 0.885273 -0.197353
O3    O     O_3   0.828128 0.347602 0.998004 -0.397333
O4    O     O_2   0.091726 0.785432 0.192791 -0.151839
O5    O     O_2   0.050292 0.838881 0.486303 -0.193368
O6    O     O_3   0.178884 0.941860 0.383247 -0.369381
O7    O     O_2   0.039313 0.203019 0.578510 -0.171226
O8    O     O_2   0.155339 0.112067 0.706031 -0.158974
O9    O     O_3   0.076623 0.292219 0.883720 -0.399436
O10   O     O_2   0.965722 0.621369 0.175039 -0.211945
O11   O     O_2   0.846851 0.718198 0.067091 -0.182868
O12   O     O_R   0.500000 0.711610 0.357240 -0.481250
O13   O     O_3   0.914806 0.862876 0.306787 -0.410446
O14   O     O_R   0.500000 0.711610 0.642760 -0.508929
O15   O     O_R   0.500000 0.288390 0.357240 -0.507214
O16   O     O_R   0.391250 0.500000 0.642840 -0.480664
O17   O     O_R   0.608750 0.500000 0.357160 -0.457329
O18   O     O_R   0.608750 0.500000 0.642840 -0.457188
O19   O     O_R   0.391250 0.500000 0.357160 -0.472382
O20   O     O_2   0.914609 0.214440 0.784582 -0.113203
S1    S     S_3+6 0.887880 0.364996 0.831291 0.176127
S2    S     S_3+6 0.116640 0.801881 0.375628 0.160683
S3    S     S_3+6 0.105812 0.244151 0.687258 0.163263
S4    S     S_3+6 0.894373 0.697134 0.224722 0.141941

loop_
_geom_bond_atom_site_label_1
_geom_bond_atom_site_label_2
_ccdc_geom_bond_type
C17   O18   A    
C5    C8    A    
C4    C19   A    
C16   O19   A    
C6    C7    A    
O3    S1    S    
C9    C11   S    
O11   S4    D    
H4    O13   S    
C3    F1    S    
N1    N2    T    
O6    S2    S    
C12   C15   S    
H2    O6    S    
C10   C19   A    
C4    C8    A    
Cu1   O16   S    
H1    O3    S    
C16   O16   A    
O9    S3    S    
Cu2   O15   S    
C1    O1    A    
C8    C16   S    
C5    C20   A    
C2    S4    S    
Cu1   Cu2   S    
C11   C13   T    
C6    F4    S    
H3    O9    S    
O2    S1    D    
C20   S3    S    
C5    F3    S    
O5    S2    D    
C19   S2    S    
C1    O15   A    
Cu1   O18   S    
C3    C7    A    
Cu2   O17   S    
C4    F2    S    
Cu1   N2    S    
Cu2   O12   S    
Cu1   O1    S    
Cu2   N1    S    
C9    C18   A    
O4    S2    D    
O20   S1    D    
C3    C18   A    
C12   O14   A    
Cu1   O14   S    
C17   O17   A    
C14   C15   T    
C12   O12   A    
C1    C14   S    
C18   S1    S    
O10   S4    D    
C2    C9    A    
O7    S3    D    
C2    C6    A    
O13   S4    S    
C10   C20   A    
Cu2   O19   S    
C7    C17   S    
C10   C13   S    
O8    S3    D    
