data_mof_unit_240.cif
_audit_creation_date              2012-12-10T20:21:43-0500
_audit_creation_method            fapswitch 2.2
_symmetry_space_group_name_H-M    P1
_symmetry_Int_Tables_number       1
_space_group_crystal_system       triclinic
_cell_length_a                    19.054764
_cell_length_b                    18.633308
_cell_length_c                    8.929921
_cell_angle_alpha                 89.925099
_cell_angle_beta                  90.904907
_cell_angle_gamma                 89.484605
_cell_volume                      3170.07078351

loop_
_atom_site_label
_atom_site_type_symbol
_atom_type_description
_atom_site_fract_x
_atom_site_fract_y
_atom_site_fract_z
_atom_type_partial_charge
C1    C     C_R   0.365482 0.500174 0.504965 0.907028
C2    C     C_R   0.556110 0.199787 0.577301 0.278896
C3    C     C_R   0.495815 0.841504 0.507947 0.008843
C4    C     C_R   0.505780 0.159137 0.496202 0.011049
C5    C     C_R   0.449968 0.963303 0.418862 0.382972
C6    C     C_R   0.534456 0.036219 0.630062 0.364179
C7    C     C_R   0.531427 0.959314 0.628364 0.380927
C8    C     C_R   0.445592 0.038292 0.433620 0.387781
C9    C     C_R   0.497400 0.076989 0.516860 -0.145672
C10   C     C_R   0.493896 0.922630 0.515002 -0.093856
C11   C     C_R   0.499860 0.500026 0.218682 0.920914
C12   C     C_R   0.634585 0.499595 0.503957 0.908088
C13   C     C_R   0.500163 0.499962 0.781317 0.914501
C14   C     C_1   0.499965 0.500016 0.065343 -0.199503
C15   C     C_1   0.500080 0.499928 0.934637 -0.209591
C16   C     C_R   0.740455 0.438140 0.601716 -0.305203
C17   C     C_R   0.248899 0.559978 0.505596 -0.291911
C18   C     C_R   0.263008 0.441111 0.613373 -0.302489
C19   C     C_R   0.751020 0.556962 0.493328 -0.286399
C20   C     C_R   0.812409 0.436021 0.634732 0.487652
C21   C     C_R   0.178145 0.561091 0.545065 0.488390
C22   C     C_R   0.192971 0.441274 0.653836 0.479652
C23   C     C_R   0.560737 0.727635 0.519898 0.392169
C24   C     C_R   0.822805 0.555955 0.525313 0.472622
C25   C     C_R   0.853020 0.496010 0.598843 -0.133050
C26   C     C_R   0.149890 0.500124 0.614260 -0.144215
C27   C     C_R   0.710058 0.497883 0.529776 -0.181365
C28   C     C_R   0.291003 0.500011 0.538119 -0.178686
C29   C     C_R   0.963521 0.544342 0.707260 -0.115881
C30   C     C_R   0.039298 0.440823 0.548633 -0.128169
C31   C     C_R   0.036470 0.545300 0.711361 -0.157325
C32   C     C_R   0.966736 0.439859 0.544577 -0.173543
C33   C     C_R   0.074228 0.494404 0.629228 0.193549
C34   C     C_R   0.461578 0.274329 0.395610 0.392100
C35   C     C_R   0.928774 0.492431 0.621244 0.195264
C36   C     C_3   0.825409 0.312642 0.649182 -0.307221
C37   C     C_3   0.156894 0.681888 0.565408 -0.302363
C38   C     C_3   0.172592 0.390643 0.879069 -0.305088
C39   C     C_3   0.880814 0.609592 0.336495 -0.272609
C40   C     C_3   0.637156 0.691591 0.701274 -0.265909
C41   C     C_3   0.349081 0.299456 0.324793 -0.286327
C42   C     C_3   0.369915 0.697435 0.281405 -0.311847
C43   C     C_3   0.574699 0.300557 0.833143 -0.277397
C44   C     C_3   0.436669 0.926992 0.179364 -0.274122
C45   C     C_R   0.437695 0.726036 0.481293 0.404810
C46   C     C_3   0.626064 0.048354 0.805907 -0.047175
C47   C     C_3   0.515222 0.904108 0.851216 -0.359393
C48   C     C_3   0.338822 0.084984 0.489570 -0.237595
C49   C     C_R   0.546997 0.275372 0.590530 0.391318
C50   C     C_R   0.560281 0.803936 0.509465 0.248405
C51   C     C_R   0.469538 0.198555 0.381709 0.237002
C52   C     C_R   0.433678 0.801303 0.503806 0.230034
H1    H     H_    0.707775 0.394214 0.636526 0.217561
H2    H     H_    0.773892 0.294473 0.690798 0.176027
H3    H     H_    0.865202 0.272107 0.685218 0.197586
H4    H     H_    0.202783 0.703515 0.505466 0.179711
H5    H     H_    0.169227 0.675836 0.687232 0.147591
H6    H     H_    0.113835 0.722096 0.554394 0.199773
H7    H     H_    0.142811 0.438683 0.917714 0.159629
H8    H     H_    0.228766 0.394346 0.914286 0.156632
H9    H     H_    0.150337 0.343044 0.935236 0.197491
H10   H     H_    0.833333 0.613867 0.262765 0.152376
H11   H     H_    0.910207 0.559033 0.312847 0.158890
H12   H     H_    0.270323 0.604769 0.445573 0.208866
H13   H     H_    0.915571 0.655000 0.308791 0.202055
H14   H     H_    0.594405 0.665085 0.763666 0.171453
H15   H     H_    0.645477 0.746881 0.744655 0.177792
H16   H     H_    0.686146 0.660462 0.723237 0.187137
H17   H     H_    0.336468 0.308369 0.444729 0.158869
H18   H     H_    0.334517 0.244059 0.291256 0.177695
H19   H     H_    0.316117 0.337215 0.257399 0.182241
H20   H     H_    0.416686 0.676877 0.221140 0.176005
H21   H     H_    0.359021 0.754283 0.249626 0.183730
H22   H     H_    0.324282 0.665371 0.243401 0.172442
H23   H     H_    0.295521 0.395088 0.642946 0.177775
H24   H     H_    0.590839 0.245107 0.865412 0.178909
H25   H     H_    0.517901 0.309109 0.855787 0.176089
H26   H     H_    0.604566 0.338119 0.905740 0.187599
H27   H     H_    0.662067 0.809594 0.490854 0.369135
H28   H     H_    0.439999 0.201023 0.170808 0.360889
H29   H     H_    0.332162 0.800219 0.530710 0.359948
H30   H     H_    0.653924 0.205091 0.645706 0.346007
H31   H     H_    0.486892 0.896046 0.185289 0.130252
H32   H     H_    0.445459 0.981978 0.134940 0.194389
H33   H     H_    0.401074 0.898929 0.099793 0.177264
H34   H     H_    0.727665 0.603605 0.439104 0.217175
H35   H     H_    0.658497 0.026291 0.713576 0.171261
H36   H     H_    0.621844 0.009052 0.898621 0.168468
H37   H     H_    0.654609 0.094904 0.853456 0.153700
H38   H     H_    0.473514 0.867761 0.808623 0.174849
H39   H     H_    0.491360 0.954191 0.895894 0.176180
H40   H     H_    0.542939 0.876143 0.944808 0.183153
H41   H     H_    0.360578 0.123713 0.572497 0.129652
H42   H     H_    0.323588 0.034357 0.546441 0.172978
H43   H     H_    0.290477 0.109478 0.440214 0.180850
H44   H     H_    0.934201 0.585065 0.766800 0.148727
H45   H     H_    0.068237 0.401850 0.483445 0.150170
H46   H     H_    0.063420 0.586722 0.774162 0.138786
H47   H     H_    0.940136 0.400179 0.476247 0.141389
H48   H     H_    0.825322 0.314044 0.524377 0.151022
N1    N     N_R   0.500000 0.689440 0.500000 -0.190863
N2    N     N_R   0.500000 0.310560 0.500000 -0.183418
O1    O     O_R   0.398180 0.560840 0.499960 -0.550318
O2    O     O_3   0.134050 0.617007 0.500258 -0.598697
O3    O     O_3   0.165624 0.381535 0.722896 -0.602898
O4    O     O_3   0.863206 0.614543 0.488916 -0.598088
O5    O     O_3   0.623312 0.691878 0.545607 -0.589794
O6    O     O_3   0.420279 0.313251 0.295581 -0.573018
O7    O     O_3   0.378160 0.689839 0.438047 -0.592780
O8    O     O_3   0.590551 0.315384 0.682422 -0.597237
O9    O     O_3   0.621710 0.842740 0.503492 -0.721308
O10   O     O_3   0.453352 0.164917 0.247837 -0.695214
O11   O     O_3   0.369980 0.836052 0.522318 -0.712600
O12   O     O_R   0.601820 0.439160 0.500040 -0.582719
O13   O     O_3   0.619599 0.168066 0.615158 -0.740944
O14   O     O_3   0.404645 0.929688 0.319879 -0.507808
O15   O     O_3   0.558423 0.071844 0.757919 -0.579712
O16   O     O_3   0.564479 0.919519 0.740055 -0.561260
O17   O     O_3   0.386418 0.071467 0.373357 -0.507923
O18   O     O_R   0.601820 0.560840 0.500040 -0.559121
O19   O     O_R   0.398180 0.439160 0.499960 -0.606733
O20   O     O_R   0.500000 0.560800 0.285330 -0.624669
O21   O     O_R   0.500000 0.439200 0.714670 -0.589013
O22   O     O_R   0.500000 0.560800 0.714670 -0.628277
O23   O     O_R   0.500000 0.439200 0.285330 -0.562385
O24   O     O_3   0.843593 0.379322 0.713332 -0.595977
Zn1   Zn    Zn3+2 0.500000 0.581210 0.500000 0.996099
Zn2   Zn    Zn3+2 0.500000 0.418790 0.500000 1.014274

loop_
_geom_bond_atom_site_label_1
_geom_bond_atom_site_label_2
_ccdc_geom_bond_type
C39   O4    S    
C21   C26   A    
C51   O10   S    
C48   H43   S    
C7    C10   A    
C47   H40   S    
C44   H31   S    
C6    C9    A    
O18   Zn1   S    
C46   H37   S    
C52   O11   S    
C43   H26   S    
C30   H45   S    
C34   C51   A    
C18   H23   S    
C48   H42   S    
C11   O23   A    
C42   O7    S    
H30   O13   S    
N2    Zn2   S    
C17   H12   S    
C13   O21   A    
C11   C14   S    
C45   O7    S    
C20   C25   A    
C31   H46   S    
O20   Zn1   S    
C16   H1    S    
C12   O18   A    
C21   O2    S    
C47   O16   S    
C8    C9    A    
C40   H15   S    
C1    C28   S    
C31   C33   A    
C43   O8    S    
C19   C27   A    
C1    O1    A    
C6    O15   S    
C12   O12   A    
C37   H6    S    
C41   H19   S    
C38   H9    S    
C19   H34   S    
C16   C27   A    
C37   H4    S    
C40   H14   S    
C39   H13   S    
C7    O16   S    
C3    C50   A    
C48   O17   S    
C46   H36   S    
C42   H22   S    
C48   H41   S    
C4    C51   A    
C32   C35   A    
C18   C28   A    
C24   C25   A    
O19   Zn2   S    
C49   N2    A    
C13   O22   A    
C23   C50   A    
C12   C27   S    
C45   C52   A    
C17   C21   A    
C46   O15   S    
C2    C4    A    
C20   O24   S    
C2    C49   A    
C29   H44   S    
O12   Zn2   S    
C2    O13   S    
C26   C33   S    
C16   C20   A    
C23   O5    S    
H28   O10   S    
C42   H20   S    
C36   H48   S    
C34   N2    A    
C45   N1    A    
C25   C35   S    
C40   O5    S    
C38   H8    S    
O22   Zn1   S    
C5    O14   S    
C22   C26   A    
C47   H38   S    
C11   O20   A    
C24   O4    S    
C44   H33   S    
O1    Zn1   S    
C41   H17   S    
C46   H35   S    
C43   H24   S    
C39   H10   S    
C42   H21   S    
C30   C33   A    
C18   C22   A    
C17   C28   A    
C47   H39   S    
C36   O24   S    
C44   H32   S    
C37   O2    S    
C3    C52   A    
C6    C7    A    
C43   H25   S    
C22   O3    S    
C39   H11   S    
C29   C35   A    
C32   H47   S    
H27   O9    S    
C34   O6    S    
C38   O3    S    
C13   C15   S    
C19   C24   A    
C5    C10   A    
C29   C31   A    
C3    C10   S    
C30   C32   A    
O21   Zn2   S    
C23   N1    A    
O23   Zn2   S    
C50   O9    S    
N1    Zn1   S    
C1    O19   A    
C36   H2    S    
C38   H7    S    
C41   O6    S    
C44   O14   S    
C40   H16   S    
H29   O11   S    
C36   H3    S    
C5    C8    A    
C14   C15   T    
C49   O8    S    
C4    C9    S    
C37   H5    S    
C8    O17   S    
C41   H18   S    
