data_mof_unit_579.cif
_audit_creation_date              2012-12-11T14:33:12-0500
_audit_creation_method            fapswitch 2.2
_symmetry_space_group_name_H-M    P1
_symmetry_Int_Tables_number       1
_space_group_crystal_system       triclinic
_cell_length_a                    6.947131
_cell_length_b                    13.737005
_cell_length_c                    17.949586
_cell_angle_alpha                 112.337775
_cell_angle_beta                  95.602908
_cell_angle_gamma                 90.400121
_cell_volume                      1575.05623961

loop_
_atom_site_label
_atom_site_type_symbol
_atom_type_description
_atom_site_fract_x
_atom_site_fract_y
_atom_site_fract_z
_atom_type_partial_charge
O1    O     O_R   0.484560 0.544530 0.414330 -0.535533
O2    O     O_R   0.197040 0.638810 0.585080 -0.538971
O3    O     O_R   0.026800 0.455470 0.585670 -0.540924
C1    C     C_R   0.374217 0.678910 0.610364 0.684635
O4    O     O_R   0.155000 0.556150 0.414940 -0.542383
O5    O     O_R   0.984450 0.372220 0.414320 -0.544327
C2    C     C_R   0.317614 0.565041 0.386561 0.758173
O6    O     O_R   0.526900 0.627780 0.585680 -0.539340
O7    O     O_3   0.339170 0.439750 0.499990 -0.374466
V1    V     V_3+5 0.064350 0.511180 0.500000 1.369325
O8    O     O_R   0.654880 0.361190 0.414920 -0.542761
C3    C     C_R   0.816315 0.323863 0.386547 0.651297
O9    O     O_R   0.696930 0.443850 0.585060 -0.540478
C4    C     C_R   0.873227 0.433858 0.612487 0.695626
V2    V     V_3+5 0.564340 0.488820 0.500000 1.373773
O10   O     O_3   0.839390 0.560250 0.500010 -0.371163
C5    C     C_R   0.041548 0.860684 0.822549 -0.051255
C6    C     C_R   0.906310 0.397705 0.679890 -0.053694
C7    C     C_R   0.921642 0.821075 0.682693 -0.127375
C8    C     C_R   0.973815 0.787740 0.745615 -0.145468
C9    C     C_R   0.052566 0.968537 0.836712 -0.211589
C10   C     C_R   0.997751 0.004993 0.773546 0.096418
C11   C     C_R   0.933333 0.928311 0.695750 0.120116
C12   C     C_R   0.002790 0.114208 0.784750 0.066552
C13   C     C_R   0.945242 0.144165 0.717662 0.065986
C14   C     C_R   0.885071 0.063934 0.641648 -0.178779
C15   C     C_R   0.879172 0.958615 0.631240 -0.218559
C16   C     C_R   0.063009 0.194436 0.860760 -0.178832
C17   C     C_R   0.068940 0.299753 0.871165 -0.219099
C18   C     C_R   0.014734 0.330058 0.806661 0.120754
C19   C     C_R   0.950251 0.253382 0.728870 0.096745
C20   C     C_R   0.026440 0.437293 0.819721 -0.127212
C21   C     C_R   0.974164 0.470637 0.756812 -0.145484
C22   C     C_R   0.895339 0.289847 0.665716 -0.211960
H1    H     H_    0.830179 0.899987 0.571774 0.119611
H2    H     H_    0.847043 0.237090 0.604692 0.093668
H3    H     H_    0.988722 0.553643 0.768097 0.091068
H4    H     H_    0.117983 0.358377 0.930626 0.118550
H5    H     H_    0.869778 0.762737 0.623583 0.138652
H6    H     H_    0.959292 0.704733 0.734331 0.091270
H7    H     H_    0.100818 0.021297 0.897739 0.093617
H8    H     H_    0.839953 0.079672 0.588426 0.125558
H9    H     H_    0.108170 0.178698 0.913977 0.124505
H10   H     H_    0.078391 0.495624 0.878822 0.138211
H11   H     H_    0.109979 0.226502 0.306514 0.111163
H12   H     H_    0.838030 0.030838 0.194446 0.200699
C23   C     C_2   0.136652 0.038117 0.183468 -0.385865
C24   C     C_2   0.974164 0.076800 0.217113 -0.095862
C25   C     C_2   0.809971 0.218397 0.318631 0.164103
C26   C     C_2   0.973519 0.180580 0.284665 -0.140412
H13   H     H_    0.273633 0.083160 0.205962 0.169448
C27   C     C_R   0.409943 0.785081 0.677232 -0.057807
C28   C     C_R   0.538521 0.473150 0.825453 -0.056731
C29   C     C_R   0.531645 0.886826 0.817147 -0.125035
C30   C     C_R   0.479585 0.790287 0.754353 -0.142157
C31   C     C_R   0.397927 0.880085 0.663437 -0.210314
C32   C     C_R   0.452438 0.980741 0.727177 0.097767
C33   C     C_R   0.518065 0.981372 0.804650 0.117430
C34   C     C_R   0.445792 0.080439 0.717413 0.065168
C35   C     C_R   0.502501 0.177801 0.785281 0.065636
C36   C     C_R   0.563570 0.172102 0.860567 -0.179095
C37   C     C_R   0.571401 0.076179 0.869731 -0.216511
C38   C     C_R   0.384704 0.086139 0.642129 -0.178531
C39   C     C_R   0.376875 0.182064 0.632965 -0.215945
C40   C     C_R   0.430240 0.276869 0.698044 0.117388
C41   C     C_R   0.495879 0.277499 0.775516 0.097778
C42   C     C_R   0.416699 0.371416 0.685545 -0.125456
C43   C     C_R   0.468843 0.467948 0.748334 -0.141775
C44   C     C_R   0.550452 0.378150 0.839253 -0.210475
H14   H     H_    0.621216 0.076228 0.928900 0.121055
H15   H     H_    0.599875 0.385605 0.900042 0.092493
H16   H     H_    0.452925 0.539196 0.736577 0.091232
H17   H     H_    0.327055 0.182016 0.573797 0.119714
H18   H     H_    0.584556 0.887554 0.876123 0.143192
H19   H     H_    0.495548 0.719038 0.766107 0.091040
H20   H     H_    0.348517 0.872629 0.602647 0.093063
H21   H     H_    0.607855 0.240989 0.914031 0.124423
H22   H     H_    0.340401 0.017253 0.588667 0.125000
H23   H     H_    0.363778 0.370695 0.626571 0.143078
H24   H     H_    0.334315 0.667415 0.194487 0.154378
H25   H     H_    0.614852 0.590794 0.308171 0.154423
C45   C     C_2   0.314142 0.602310 0.318854 -0.349975
C46   C     C_2   0.476478 0.610958 0.285376 -0.127886
H26   H     H_    0.773097 0.636060 0.207013 0.125405
C47   C     C_2   0.635003 0.655941 0.183768 -0.347489
C48   C     C_2   0.472718 0.647263 0.217269 -0.126394
H27   H     H_    0.176096 0.622212 0.295585 0.126320
O11   O     O_R   0.421600 0.630430 0.917010 -0.540559
O12   O     O_R   0.793840 0.702190 0.087630 -0.543492
O13   O     O_R   0.964010 0.886170 0.088190 -0.538315
C49   C     C_R   0.631332 0.693230 0.116063 0.761732
O14   O     O_R   0.751460 0.619510 0.917500 -0.539849
O15   O     O_R   0.921330 0.802900 0.916840 -0.542537
C50   C     C_R   0.574294 0.579332 0.892307 0.681172
O16   O     O_R   0.464290 0.713700 0.088350 -0.536996
O17   O     O_3   0.609200 0.818520 0.002630 -0.372808
V3    V     V_3+5 0.884140 0.747190 0.002530 1.375194
O18   O     O_R   0.251150 0.814630 0.917340 -0.542566
C51   C     C_R   0.074783 0.824537 0.889953 0.689758
O19   O     O_R   0.293530 0.897310 0.087470 -0.534510
C52   C     C_R   0.131880 0.934062 0.115906 0.772673
V4    V     V_3+5 0.384070 0.769710 0.002370 1.388144
O20   O     O_3   0.109180 0.698190 0.002460 -0.376851
O21   O     O_3   0.638729 0.157685 0.289127 -0.659454
H28   H     H_    0.533965 0.194296 0.321090 0.287128

loop_
_geom_bond_atom_site_label_1
_geom_bond_atom_site_label_2
_ccdc_geom_bond_type
C33   C37   A    
C13   C19   A    
C31   H20   S    
O17   V4    S    
C4    C6    S    
O2    C1    A    
C7    C8    A    
C1    O6    A    
C28   C44   A    
C25   O21   S    
C3    C25   S    
C47   C49   S    
C47   C48   D    
C14   C15   A    
C1    C27   S    
C23   C52   S    
C16   C17   A    
O5    C3    A    
C18   C19   A    
C8    H6    S    
C32   C34   A    
C41   C44   A    
C45   H27   S    
O18   C51   A    
C5    C8    A    
C31   C32   A    
C37   H14   S    
C44   H15   S    
C28   C43   A    
H24   C48   S    
C29   H18   S    
O8    V2    S    
C36   H21   S    
C40   C42   A    
C17   H4    S    
C39   H17   S    
O1    V2    S    
C11   C15   A    
O12   C49   A    
O7    V1    S    
O15   C51   A    
O13   V3    S    
C27   C30   A    
C30   H19   S    
C24   C26   S    
C35   C41   A    
C34   C35   A    
O9    C4    A    
V4    O20   S    
O19   V4    S    
O21   H28   S    
H25   C46   S    
O14   V3    S    
H12   C24   S    
O11   C50   A    
C42   C43   A    
C42   H23   S    
C12   C13   A    
O4    C2    A    
C23   H13   S    
C15   H1    S    
C13   C14   A    
O18   V4    S    
C21   H3    S    
O12   V3    S    
C35   C36   A    
C7    C11   A    
O13   C52   A    
C17   C18   A    
C6    C22   A    
C23   C24   D    
C43   H16   S    
O17   V3    S    
C46   C48   S    
O14   C50   A    
C20   H10   S    
C19   C22   A    
H26   C47   S    
C5    C51   S    
V3    O20   S    
O3    C4    A    
C7    H5    S    
C9    H7    S    
C25   C26   D    
O6    V2    S    
O9    V2    S    
C10   C12   A    
O2    V1    S    
O15   V3    S    
C14   H8    S    
C29   C33   A    
C29   C30   A    
C28   C50   S    
O1    C2    A    
C12   C16   A    
O5    V1    S    
O11   V4    S    
O8    C3    A    
O16   V4    S    
C16   H9    S    
C34   C38   A    
C20   C21   A    
O7    V2    S    
O4    V1    S    
O3    V1    S    
V1    O10   S    
C39   C40   A    
C18   C20   A    
C32   C33   A    
H11   C26   S    
O19   C52   A    
C22   H2    S    
C40   C41   A    
C36   C37   A    
C6    C21   A    
C5    C9    A    
C49   O16   A    
C38   C39   A    
C27   C31   A    
C2    C45   S    
C45   C46   D    
C10   C11   A    
C9    C10   A    
V2    O10   S    
C38   H22   S    
