data_mof_unit_4324.cif
_audit_creation_date              2012-10-26T19:22:34-0400
_audit_creation_method            fapswitch 2.2
_symmetry_space_group_name_H-M    P1
_symmetry_Int_Tables_number       1
_space_group_crystal_system       triclinic
_cell_length_a                    11.845125
_cell_length_b                    13.018615
_cell_length_c                    13.798779
_cell_angle_alpha                 86.368414
_cell_angle_beta                  94.35472
_cell_angle_gamma                 99.564704
_cell_volume                      2089.44608308

loop_
_atom_site_label
_atom_site_type_symbol
_atom_type_description
_atom_site_fract_x
_atom_site_fract_y
_atom_site_fract_z
_atom_type_partial_charge
C1    C     C_R   0.479248 0.299635 0.502807 0.538402
C2    C     C_R   0.853678 0.463790 0.548878 0.124048
C3    C     C_R   0.026022 0.533148 0.465253 -0.025468
C4    C     C_R   0.974330 0.470029 0.540431 -0.017298
C5    C     C_R   0.520879 0.500312 0.681921 0.544679
C6    C     C_R   0.479054 0.499912 0.318129 0.545331
C7    C     C_1   0.463527 0.503779 0.214627 -0.050563
C8    C     C_1   0.535798 0.497050 0.785541 -0.050951
C9    C     C_2   0.454236 0.513122 0.022537 0.015005
C10   C     C_2   0.543556 0.487750 0.977725 0.016508
C11   C     C_1   0.542194 0.493003 0.872948 -0.063198
C12   C     C_R   0.521075 0.700453 0.498785 0.534517
C13   C     C_1   0.456151 0.508071 0.127269 -0.065894
C14   C     C_R   0.533543 0.813984 0.499863 -0.025302
C15   C     C_R   0.467953 0.186167 0.507449 -0.020446
C16   C     C_R   0.348949 0.016188 0.523221 -0.005068
C17   C     C_R   0.655029 0.983849 0.495909 0.013985
C18   C     C_R   0.361327 0.124642 0.520039 -0.126671
C19   C     C_R   0.641627 0.875446 0.494086 -0.127163
C20   C     C_R   0.564662 0.139653 0.500421 -0.149165
C21   C     C_R   0.437071 0.860515 0.508433 -0.150955
C22   C     C_3   0.647279 0.452844 0.033496 -0.240428
C23   C     C_R   0.556451 0.031257 0.503219 0.041865
C24   C     C_3   0.744035 0.545568 0.048520 -0.294170
C25   C     C_3   0.847728 0.512109 0.106970 -0.465777
C26   C     C_3   0.349589 0.546546 0.967079 -0.240215
C27   C     C_3   0.256035 0.452072 0.948699 -0.293693
C28   C     C_3   0.149584 0.484658 0.894025 -0.468248
C29   C     C_3   0.230028 0.955489 0.537203 -0.260238
C30   C     C_3   0.166092 0.931216 0.438534 -0.296911
C31   C     C_3   0.051737 0.860013 0.451024 -0.463816
C32   C     C_3   0.775648 0.045146 0.490460 -0.250904
C33   C     C_3   0.825328 0.087065 0.589189 -0.293956
C34   C     C_R   0.446573 0.968649 0.511983 0.039171
C35   C     C_3   0.851618 0.000087 0.662787 -0.431939
C36   C     C_3   0.801109 0.395271 0.632794 -0.210469
C37   C     C_3   0.834700 0.445844 0.731209 -0.302114
C38   C     C_3   0.802058 0.368584 0.816073 -0.470504
C39   C     C_3   0.173033 0.551363 0.342565 -0.201581
C40   C     C_3   0.238826 0.661777 0.322397 -0.279577
C41   C     C_3   0.230034 0.694523 0.214281 -0.478257
C42   C     C_R   0.043927 0.411600 0.602345 -0.182855
C43   C     C_R   0.958984 0.595398 0.405505 -0.185894
C44   C     C_R   0.161567 0.419419 0.591321 0.243299
C45   C     C_R   0.841071 0.587281 0.414587 0.246630
C46   C     C_R   0.142268 0.528720 0.448115 0.121130
Cu1   Cu    Cu3+1 0.615220 0.507680 0.492970 0.942493
Cu2   Cu    Cu3+1 0.384780 0.492320 0.507030 0.946644
H1    H     H_    0.354439 0.811246 0.511265 0.131629
H2    H     H_    0.771091 0.580638 0.976660 0.160600
H3    H     H_    0.712712 0.605890 0.088215 0.166234
H4    H     H_    0.624753 0.413914 0.105028 0.150852
H5    H     H_    0.677673 0.393165 0.992491 0.132264
H6    H     H_    0.112227 0.537891 0.937677 0.150066
H7    H     H_    0.171689 0.524606 0.822790 0.157773
H8    H     H_    0.084206 0.414476 0.880615 0.135772
H9    H     H_    0.289485 0.396163 0.905124 0.164705
H10   H     H_    0.231277 0.411901 0.019304 0.160586
H11   H     H_    0.315553 0.602782 0.009837 0.131112
H12   H     H_    0.646157 0.189294 0.491657 0.127813
H13   H     H_    0.372385 0.588563 0.896850 0.149967
H14   H     H_    0.065956 0.785164 0.489302 0.160687
H15   H     H_    0.996026 0.897928 0.493672 0.145053
H16   H     H_    0.007591 0.843852 0.378431 0.130375
H17   H     H_    0.149936 0.005177 0.399287 0.161284
H18   H     H_    0.219130 0.893245 0.393258 0.158815
H19   H     H_    0.234274 0.883564 0.584085 0.137485
H20   H     H_    0.179694 0.001954 0.577252 0.130613
H21   H     H_    0.771730 0.945896 0.678921 0.167487
H22   H     H_    0.913358 0.955828 0.634450 0.140673
H23   H     H_    0.716503 0.838796 0.488796 0.131206
H24   H     H_    0.890256 0.034595 0.731611 0.128508
H25   H     H_    0.906266 0.141998 0.577827 0.140388
H26   H     H_    0.765167 0.130888 0.620364 0.155495
H27   H     H_    0.834647 0.996069 0.464864 0.128478
H28   H     H_    0.776019 0.110253 0.434452 0.116762
H29   H     H_    0.707726 0.342710 0.813025 0.156530
H30   H     H_    0.845636 0.299570 0.814018 0.143468
H31   H     H_    0.829887 0.406685 0.885511 0.141939
H32   H     H_    0.928202 0.474662 0.740155 0.150919
H33   H     H_    0.791716 0.514744 0.735419 0.186504
H34   H     H_    0.286616 0.161145 0.526680 0.130581
H35   H     H_    0.708436 0.374151 0.624716 0.207184
H36   H     H_    0.828092 0.317658 0.633609 0.085583
H37   H     H_    0.263379 0.638136 0.171410 0.155420
H38   H     H_    0.139389 0.698044 0.188966 0.141683
H39   H     H_    0.281652 0.772995 0.201858 0.141357
H40   H     H_    0.203553 0.718266 0.363512 0.144874
H41   H     H_    0.330607 0.666224 0.345222 0.206929
H42   H     H_    0.210420 0.488159 0.314956 0.166313
H43   H     H_    0.093683 0.541624 0.293443 0.100350
H44   H     H_    0.786420 0.637666 0.280656 0.202613
H45   H     H_    0.010095 0.358779 0.660444 0.094942
H46   H     H_    0.810650 0.729646 0.364197 0.192548
H47   H     H_    0.220271 0.374034 0.725616 0.204729
H48   H     H_    0.190806 0.278113 0.646189 0.190466
H49   H     H_    0.997004 0.651326 0.351099 0.096612
H50   H     H_    0.823364 0.478416 0.179900 0.160523
H51   H     H_    0.882379 0.453316 0.067988 0.146740
H52   H     H_    0.916009 0.580919 0.116918 0.131328
N1    N     N_R   0.788370 0.519230 0.482390 -0.195231
N2    N     N_R   0.211630 0.480770 0.517610 -0.191763
N3    N     N_3   0.776125 0.651731 0.352966 -0.552660
N4    N     N_3   0.227269 0.356281 0.653740 -0.553294
O1    O     O_R   0.581500 0.354430 0.495010 -0.535620
O2    O     O_R   0.418500 0.645570 0.504990 -0.520934
O3    O     O_R   0.386890 0.341450 0.506880 -0.476467
O4    O     O_R   0.613110 0.658550 0.493120 -0.473419
O5    O     O_R   0.611060 0.507430 0.631070 -0.524740
O6    O     O_R   0.388940 0.492570 0.368930 -0.523366
O7    O     O_R   0.416450 0.494450 0.642940 -0.454108
O8    O     O_R   0.583550 0.505550 0.357060 -0.455235

loop_
_geom_bond_atom_site_label_1
_geom_bond_atom_site_label_2
_ccdc_geom_bond_type
C15   C18   A    
Cu2   O6    S    
Cu1   N1    S    
C42   H45   S    
C19   H23   S    
C32   H27   S    
C21   H1    S    
C44   N4    S    
C10   C22   S    
C41   H38   S    
C46   N2    A    
C3    C43   A    
C26   C27   S    
C17   C23   A    
C4    C42   A    
C14   C21   A    
C36   C37   S    
C26   H13   S    
C30   C31   S    
C33   C35   S    
Cu2   O3    S    
C38   H31   S    
C36   H35   S    
Cu1   O8    S    
C9    C13   S    
C45   N3    S    
H44   N3    S    
C17   C19   A    
C29   H19   S    
C25   H51   S    
Cu2   O2    S    
C35   H22   S    
Cu1   O1    S    
C1    C15   S    
C40   H41   S    
C20   H12   S    
C29   C30   S    
C9    C10   D    
C39   H42   S    
C16   C34   A    
C24   H3    S    
C24   H2    S    
C6    O6    A    
C31   H14   S    
C37   H33   S    
C42   C44   A    
C14   C19   A    
C39   H43   S    
C28   H7    S    
C9    C26   S    
C22   H5    S    
C28   H8    S    
C15   C20   A    
C41   H39   S    
C37   H32   S    
C31   H15   S    
C24   C25   S    
C27   H9    S    
C39   C40   S    
C12   O4    A    
C28   H6    S    
C21   C34   A    
C5    O7    A    
C2    N1    A    
C16   C29   S    
Cu1   O5    S    
C2    C4    A    
C32   H28   S    
C37   C38   S    
C29   H20   S    
C25   H50   S    
C25   H52   S    
Cu1   Cu2   S    
C20   C23   A    
C23   C34   A    
Cu2   N2    S    
C43   C45   A    
C30   H18   S    
C45   N1    A    
C1    O3    A    
C39   C46   S    
C33   H25   S    
C40   C41   S    
C12   C14   S    
C35   H24   S    
H48   N4    S    
C22   C24   S    
C3    C4    A    
H47   N4    S    
C22   H4    S    
C26   H11   S    
C2    C36   S    
C44   N2    A    
C6    O8    A    
C31   H16   S    
C43   H49   S    
C27   H10   S    
H46   N3    S    
C5    C8    S    
C6    C7    S    
C38   H29   S    
C41   H37   S    
C3    C46   A    
C38   H30   S    
C32   C33   S    
C40   H40   S    
C12   O2    A    
C5    O5    A    
C36   H36   S    
C8    C11   T    
C18   H34   S    
C30   H17   S    
C10   C11   S    
C33   H26   S    
C7    C13   T    
Cu2   O7    S    
C35   H21   S    
C16   C18   A    
Cu1   O4    S    
C27   C28   S    
C17   C32   S    
C1    O1    A    
