data_mof_unit_3720.cif
_audit_creation_date              2012-12-11T15:20:36-0500
_audit_creation_method            fapswitch 2.2
_symmetry_space_group_name_H-M    P1
_symmetry_Int_Tables_number       1
_space_group_crystal_system       triclinic
_cell_length_a                    13.027325
_cell_length_b                    13.070412
_cell_length_c                    15.333412
_cell_angle_alpha                 116.183664
_cell_angle_beta                  63.206773
_cell_angle_gamma                 96.963041
_cell_volume                      2081.5472791

loop_
_atom_site_label
_atom_site_type_symbol
_atom_type_description
_atom_site_fract_x
_atom_site_fract_y
_atom_site_fract_z
_atom_type_partial_charge
C1    C     C_R   0.009320 0.833902 0.045032 -0.116596
C2    C     C_R   0.298994 0.596370 0.792088 -0.125970
C3    C     C_R   0.244430 0.478076 0.105380 -0.162632
C4    C     C_R   0.679070 0.467072 0.223453 -0.122921
C5    C     C_R   0.061358 0.279370 0.686170 0.598217
C6    C     C_R   0.336831 0.538474 0.072116 0.157720
C7    C     C_R   0.041268 0.170118 0.678266 -0.135255
C8    C     C_R   0.291651 0.578525 0.699553 -0.006804
C9    C     C_R   0.042631 0.145832 0.014233 0.040130
C10   C     C_R   0.040599 0.001117 0.414882 -0.209187
C11   C     C_R   0.028564 0.091168 0.509441 -0.140505
C12   C     C_R   0.670388 0.542468 0.325372 0.039950
C13   C     C_R   0.054230 0.073222 0.580972 0.162974
C14   C     C_R   0.086788 0.964090 0.560775 -0.182036
C15   C     C_R   0.093940 0.871748 0.466817 -0.188373
C16   C     C_R   0.740849 0.571561 0.940366 -0.149872
C17   C     C_R   0.070570 0.891641 0.394797 0.150523
C18   C     C_R   0.568223 0.648739 0.525793 -0.171404
C19   C     C_R   0.472131 0.660122 0.620349 -0.163657
C20   C     C_R   0.371806 0.611882 0.615097 0.148637
C21   C     C_R   0.360799 0.574840 0.519087 -0.187610
C22   C     C_R   0.456779 0.564099 0.424598 -0.168979
C23   C     C_R   0.638059 0.548812 0.008344 0.155790
C24   C     C_R   0.563760 0.589642 0.426065 0.147539
C25   C     C_2   0.432558 0.557061 0.097640 -0.206901
C26   C     C_2   0.526333 0.592107 0.037373 -0.193583
C27   C     C_2   0.863041 0.963223 0.056726 -0.279891
C28   C     C_R   0.008453 0.702812 0.305594 -0.138549
C29   C     C_2   0.824992 0.047456 0.158040 0.035281
C30   C     C_R   0.661039 0.468745 0.033832 -0.117897
C31   C     C_R   0.089495 0.802166 0.208729 -0.143372
C32   C     C_R   0.781427 0.557665 0.315669 -0.123846
C33   C     C_R   0.916855 0.750725 0.942341 -0.147824
C34   C     C_R   0.061042 0.799955 0.305307 0.055899
C35   C     C_R   0.930209 0.854974 0.015522 0.157830
C36   C     C_3   0.234521 0.259998 0.541032 -0.295338
C37   C     C_1   0.845107 0.045698 0.242427 0.068510
C38   C     C_R   0.323073 0.577102 0.007906 -0.111307
C39   C     C_R   0.967986 0.179358 0.780514 -0.226419
C40   C     C_R   0.194971 0.521412 0.700878 -0.061689
C41   C     C_R   0.074160 0.251851 0.068499 -0.123107
C42   C     C_R   0.971165 0.167681 0.977367 -0.098434
H1    H     H_    0.042506 0.896423 0.098227 0.101937
H2    H     H_    0.104708 0.950903 0.617748 0.125648
H3    H     H_    0.609540 0.427375 0.205461 0.082960
H4    H     H_    0.115932 0.785909 0.450891 0.116753
H5    H     H_    0.647561 0.676947 0.531002 0.108787
H6    H     H_    0.481431 0.695861 0.694503 0.105386
H7    H     H_    0.282487 0.543092 0.513309 0.111203
H8    H     H_    0.448418 0.526514 0.349880 0.105098
H9    H     H_    0.434663 0.518280 0.146541 0.122613
H10   H     H_    0.524428 0.635772 0.992272 0.121063
H11   H     H_    0.833731 0.971137 0.003897 0.123706
H12   H     H_    0.925472 0.111323 0.800674 0.131292
H13   H     H_    0.750801 0.616986 0.893598 0.089888
H14   H     H_    0.986000 0.669789 0.364716 0.088014
H15   H     H_    0.601548 0.417445 0.068915 0.082927
H16   H     H_    0.142732 0.860251 0.178162 0.091197
H17   H     H_    0.807559 0.607598 0.378596 0.092954
H18   H     H_    0.869399 0.739508 0.897292 0.091677
H19   H     H_    0.368926 0.639322 0.979662 0.080426
H20   H     H_    0.240181 0.167678 0.487347 0.163057
H21   H     H_    0.276523 0.272252 0.593774 0.145821
H22   H     H_    0.284816 0.302325 0.487765 0.174867
H23   H     H_    0.152953 0.511861 0.651407 0.139388
H24   H     H_    0.125013 0.268242 0.112011 0.097972
H25   H     H_    0.924176 0.105392 0.939529 0.084036
H26   H     H_    0.354517 0.650699 0.824727 0.087881
H27   H     H_    0.222447 0.447407 0.166077 0.092021
H28   H     H_    0.019915 0.016349 0.360492 0.136326
H29   H     H_    0.997424 0.174524 0.527115 0.159328
N1    N     N_R   0.037310 0.720000 0.995790 -0.048030
N2    N     N_R   0.824890 0.517960 0.936420 -0.043201
N3    N     N_R   0.003210 0.648190 0.211380 -0.035222
N4    N     N_R   0.774330 0.457010 0.995840 -0.043943
N5    N     N_R   0.053760 0.709140 0.151960 -0.035387
N6    N     N_R   0.853860 0.498840 0.211410 -0.040237
N7    N     N_R   0.974240 0.667310 0.936390 -0.043400
N8    N     N_R   0.225670 0.542990 0.004160 -0.045806
N9    N     N_1   0.860271 0.044581 0.310744 -0.107136
N10   N     N_R   0.946240 0.290860 0.848040 -0.066442
N11   N     N_R   0.146140 0.501160 0.788590 -0.047001
N12   N     N_R   0.025760 0.332690 0.063610 -0.042682
N13   N     N_R   0.962690 0.280000 0.004210 -0.040583
N14   N     N_R   0.209210 0.553840 0.847990 -0.046726
N15   N     N_R   0.175110 0.482040 0.063580 -0.040838
N16   N     N_R   0.996790 0.351810 0.788620 -0.094484
N17   N     N_R   0.790790 0.446160 0.152010 -0.038671
Ni1   Ni    Ni4+2 0.130310 0.630310 0.999970 0.201875
Ni2   Ni    Ni4+2 0.869690 0.369690 0.000030 0.206359
Ni3   Ni    Ni4+2 0.985640 0.509470 0.863740 0.223365
Ni4   Ni    Ni4+2 0.014360 0.490530 0.136260 0.209819
O1    O     O_3   0.119195 0.310775 0.602194 -0.654890

loop_
_geom_bond_atom_site_label_1
_geom_bond_atom_site_label_2
_ccdc_geom_bond_type
N6    Ni4   S    
C30   N4    A    
N16   Ni3   S    
C27   C29   D    
C36   H22   S    
C19   C20   A    
C3    C6    A    
C28   N3    A    
C18   H5    S    
C21   H7    S    
C28   H14   S    
N12   Ni4   S    
C9    C42   A    
C8    C20   S    
N3    N5    A    
C18   C24   A    
C31   H16   S    
C3    H27   S    
C2    H26   S    
C11   H29   S    
C33   N7    A    
C39   H12   S    
C38   N8    A    
C10   C17   A    
C41   N12   A    
C30   H15   S    
C2    N14   A    
C18   C19   A    
C23   C26   S    
N3    Ni4   S    
N1    N7    A    
N4    Ni2   S    
C32   N6    A    
C36   O1    S    
C1    H1    S    
N6    N17   A    
C6    C38   A    
C4    C12   A    
C36   H21   S    
N5    Ni1   S    
C22   H8    S    
C38   H19   S    
C28   C34   A    
C21   C22   A    
C12   C32   A    
C3    N15   A    
N2    N4    A    
N13   Ni2   S    
C36   H20   S    
C4    H3    S    
C37   N9    T    
C1    N1    A    
C16   N2    A    
C23   C30   A    
C40   N11   A    
C42   N13   A    
N2    Ni3   S    
C5    C7    A    
N14   Ni1   S    
C19   H6    S    
C27   C35   S    
C25   C26   D    
N11   Ni3   S    
C5    N16   A    
C25   H9    S    
C26   H10   S    
N12   N13   A    
C31   C34   A    
C39   N10   A    
N10   N16   A    
N10   Ni2   S    
C10   H28   S    
N17   Ni2   S    
C16   C23   A    
C40   H23   S    
C42   H25   S    
C22   C24   A    
C17   C34   S    
C1    C35   A    
C14   H2    S    
C15   C17   A    
C2    C8    A    
C5    O1    S    
C27   H11   S    
C41   H24   S    
C4    N17   A    
N7    Ni3   S    
C33   H18   S    
N11   N14   A    
C12   C24   S    
C9    C41   A    
C32   H17   S    
C16   H13   S    
N15   Ni4   S    
N1    Ni1   S    
C11   C13   A    
C31   N5    A    
C33   C35   A    
N8    Ni1   S    
C10   C11   A    
C6    C25   S    
C7    C13   S    
C20   C21   A    
C29   C37   S    
C7    C39   A    
C14   C15   A    
C8    C40   A    
C15   H4    S    
C13   C14   A    
N8    N15   A    
