data_mof_unit_4649.cif
_audit_creation_date              2012-12-10T18:12:43-0500
_audit_creation_method            fapswitch 2.2
_symmetry_space_group_name_H-M    P1
_symmetry_Int_Tables_number       1
_space_group_crystal_system       triclinic
_cell_length_a                    12.600541
_cell_length_b                    13.206214
_cell_length_c                    15.703098
_cell_angle_alpha                 90.686695
_cell_angle_beta                  103.030555
_cell_angle_gamma                 82.052168
_cell_volume                      2520.84130875

loop_
_atom_site_label
_atom_site_type_symbol
_atom_type_description
_atom_site_fract_x
_atom_site_fract_y
_atom_site_fract_z
_atom_type_partial_charge
C1    C     C_R   0.438791 0.691012 0.490998 0.844211
C2    C     C_R   0.599993 0.199915 0.523608 -0.087512
C3    C     C_R   0.333498 0.819871 0.562345 -0.198373
C4    C     C_R   0.501238 0.500436 0.661963 0.907525
C5    C     C_R   0.344264 0.903027 0.616794 -0.164938
C6    C     C_R   0.421897 0.966743 0.611743 -0.185882
C7    C     C_R   0.479086 0.957803 0.543396 0.071870
C8    C     C_R   0.471854 0.869926 0.491248 0.090398
C9    C     C_R   0.547891 0.029309 0.527502 0.023874
C10   C     C_R   0.626740 0.997567 0.476512 0.173520
C11   C     C_R   0.622016 0.907814 0.429565 -0.233210
C12   C     C_3   0.502545 0.499200 0.917692 0.212201
C13   C     C_R   0.539446 0.849829 0.431002 -0.206578
C14   C     C_R   0.534679 0.133726 0.551399 -0.076902
C15   C     C_R   0.690438 0.161299 0.489712 -0.233284
C16   C     C_R   0.561409 0.309153 0.513668 0.865414
C17   C     C_R   0.404378 0.798165 0.505493 -0.106850
C18   C     C_R   0.089876 0.342366 0.383883 -0.333545
C19   C     C_R   0.794009 0.640348 0.590847 -0.034079
C20   C     C_R   0.893226 0.679945 0.601223 -0.026272
C21   C     C_R   0.977552 0.625075 0.567574 -0.259089
C22   C     C_R   0.960420 0.534975 0.519879 -0.001502
C23   C     C_3   0.447560 0.421206 0.016077 -0.170685
C24   C     C_R   0.855190 0.503305 0.506165 0.230634
C25   C     C_R   0.041276 0.478469 0.481298 -0.008065
C26   C     C_R   0.012873 0.396323 0.425266 0.190740
C27   C     C_R   0.907739 0.369141 0.410614 -0.302270
C28   C     C_R   0.498785 0.499497 0.338008 0.891928
C29   C     C_R   0.830395 0.421625 0.450909 -0.203910
C30   C     C_R   0.149986 0.499557 0.496067 -0.045424
C31   C     C_R   0.195036 0.368698 0.399631 0.017111
C32   C     C_3   0.446652 0.587859 0.019155 -0.163583
C33   C     C_3   0.552636 0.575429 0.983713 -0.161327
C34   C     C_3   0.497675 0.497483 0.082101 0.213465
C35   C     C_1   0.503947 0.500742 0.751520 -0.190304
C36   C     C_1   0.496386 0.498156 0.248428 -0.188160
C37   C     C_3   0.396566 0.511610 0.951354 -0.166356
C38   C     C_R   0.445252 0.179662 0.593982 0.120724
C39   C     C_R   0.471980 0.223316 0.676814 -0.180189
C40   C     C_R   0.388685 0.268079 0.716546 -0.122376
C41   C     C_R   0.278381 0.270758 0.673576 -0.104604
C42   C     C_R   0.251061 0.228489 0.590853 -0.135938
C43   C     C_R   0.333971 0.183874 0.550655 -0.086849
C44   C     C_R   0.904646 0.782032 0.640370 0.132450
C45   C     C_3   0.553546 0.408775 0.980567 -0.175171
C46   C     C_R   0.860434 0.811478 0.713097 -0.164017
C47   C     C_R   0.865600 0.909824 0.746351 -0.131938
C48   C     C_R   0.914789 0.979763 0.707546 -0.098870
C49   C     C_R   0.959319 0.951404 0.635583 -0.135788
C50   C     C_R   0.954353 0.853202 0.602031 -0.156801
C51   C     C_3   0.603646 0.485023 0.048395 -0.160047
C52   C     C_1   0.504291 0.500296 0.827010 -0.100252
C53   C     C_1   0.496072 0.497433 0.172893 -0.086767
C54   C     C_R   0.703623 0.060176 0.465946 -0.192502
H1    H     H_    0.595671 0.638415 0.968348 0.130109
H2    H     H_    0.726822 0.681408 0.615100 0.150325
H3    H     H_    0.402789 0.660986 0.037026 0.130500
H4    H     H_    0.053878 0.656289 0.576758 0.133924
H5    H     H_    0.750676 0.398410 0.435495 0.210332
H6    H     H_    0.688241 0.474075 0.090250 0.133135
H7    H     H_    0.597292 0.335672 0.962527 0.127042
H8    H     H_    0.404516 0.358214 0.031406 0.130057
H9    H     H_    0.312007 0.522490 0.909434 0.131747
H10   H     H_    0.743025 0.211670 0.471658 0.153060
H11   H     H_    0.677643 0.886060 0.386835 0.144477
H12   H     H_    0.281597 0.764944 0.573925 0.145587
H13   H     H_    0.767255 0.033939 0.431238 0.133032
H14   H     H_    0.557183 0.222138 0.710576 0.118052
H15   H     H_    0.409646 0.300879 0.780621 0.131207
H16   H     H_    0.214052 0.305708 0.704338 0.120764
H17   H     H_    0.165577 0.230695 0.557728 0.133987
H18   H     H_    0.311869 0.152237 0.486158 0.117163
H19   H     H_    0.822063 0.758450 0.744268 0.116892
H20   H     H_    0.831147 0.931904 0.802144 0.123552
H21   H     H_    0.918255 0.055983 0.733158 0.120768
H22   H     H_    0.996881 0.005851 0.605255 0.126631
H23   H     H_    0.438713 0.019605 0.664164 0.153336
H24   H     H_    0.986947 0.833853 0.544839 0.122349
H25   H     H_    0.298307 0.913652 0.667520 0.145287
H26   H     H_    0.532394 0.785603 0.387496 0.154311
H27   H     H_    0.256157 0.327412 0.368819 0.131826
H28   H     H_    0.884996 0.306953 0.367676 0.149589
H29   H     H_    0.069140 0.280195 0.340373 0.142500
H30   H     H_    0.180469 0.557299 0.540311 0.123514
N1    N     N_R   0.222180 0.444680 0.455580 -0.096032
N2    N     N_R   0.776980 0.554790 0.543960 -0.136970
O1    O     O_R   0.366730 0.627160 0.478790 -0.619828
O2    O     O_R   0.544830 0.662520 0.507160 -0.612255
O3    O     O_R   0.410960 0.482330 0.609040 -0.603657
O4    O     O_R   0.589060 0.517690 0.637410 -0.615383
O5    O     O_R   0.455170 0.337480 0.492840 -0.601740
O6    O     O_R   0.633270 0.372840 0.521210 -0.643204
O7    O     O_R   0.410940 0.482310 0.362590 -0.610811
O8    O     O_R   0.589040 0.517670 0.390960 -0.627987
Zn1   Zn    Zn3+2 0.381080 0.476390 0.481050 0.948941
Zn2   Zn    Zn3+2 0.618920 0.523610 0.518950 0.928013

loop_
_geom_bond_atom_site_label_1
_geom_bond_atom_site_label_2
_ccdc_geom_bond_type
C19   H2    S    
C1    O1    A    
O2    Zn2   S    
C33   H1    S    
C8    C13   A    
C31   N1    A    
C27   C29   A    
C11   C13   A    
C41   C42   A    
C19   C20   A    
C18   C26   A    
C19   N2    A    
C7    C8    A    
C34   C51   S    
C43   H18   S    
C23   C45   S    
C38   C39   A    
C45   C51   S    
O6    Zn2   S    
C28   O8    A    
C39   H14   S    
C12   C37   S    
C24   C29   A    
C36   C53   T    
C20   C44   S    
C37   H9    S    
C23   H8    S    
C29   H5    S    
C22   C25   A    
O1    Zn1   S    
C15   H10   S    
C5    H25   S    
C2    C16   S    
C9    C10   A    
C1    O2    A    
C13   H26   S    
O7    Zn1   S    
C21   C22   A    
C48   H21   S    
C32   H3    S    
C2    C14   A    
C50   H24   S    
C12   C52   S    
C44   C46   A    
C4    O4    A    
C40   H15   S    
C15   C54   A    
C39   C40   A    
C6    H23   S    
C54   H13   S    
C25   C26   A    
C23   C37   S    
C28   O7    A    
C32   C34   S    
O3    Zn1   S    
C9    C14   A    
C14   C38   S    
C47   C48   A    
C23   C34   S    
C18   H29   S    
C26   C27   A    
C49   H22   S    
C32   C37   S    
C30   N1    A    
O8    Zn2   S    
C2    C15   A    
N2    Zn2   S    
C34   C53   S    
C48   C49   A    
C16   O6    A    
C22   C24   A    
C3    H12   S    
C42   C43   A    
C4    O3    A    
C44   C50   A    
C25   C30   A    
C7    C9    A    
C46   C47   A    
C40   C41   A    
C27   H28   S    
C47   H20   S    
C12   C45   S    
C3    C5    A    
O4    Zn2   S    
C6    C7    A    
C51   H6    S    
C33   C51   S    
C1    C17   S    
C8    C17   A    
C31   H27   S    
C32   C33   S    
C21   H4    S    
N1    Zn1   S    
C5    C6    A    
C45   H7    S    
C42   H17   S    
C3    C17   A    
C30   H30   S    
C10   C54   A    
C4    C35   S    
C10   C11   A    
O5    Zn1   S    
C38   C43   A    
C20   C21   A    
C28   C36   S    
C16   O5    A    
C49   C50   A    
C35   C52   T    
C18   C31   A    
C12   C33   S    
C24   N2    A    
C46   H19   S    
C11   H11   S    
C41   H16   S    
