data_mof_unit_1419.cif
_audit_creation_date              2012-12-11T17:36:13-0500
_audit_creation_method            fapswitch 2.2
_symmetry_space_group_name_H-M    P1
_symmetry_Int_Tables_number       1
_space_group_crystal_system       triclinic
_cell_length_a                    25.838442
_cell_length_b                    6.91018
_cell_length_c                    21.706105
_cell_angle_alpha                 89.999935
_cell_angle_beta                  96.05413
_cell_angle_gamma                 90.000767
_cell_volume                      3853.97250318

loop_
_atom_site_label
_atom_site_type_symbol
_atom_type_description
_atom_site_fract_x
_atom_site_fract_y
_atom_site_fract_z
_atom_type_partial_charge
O1    O     O_R   0.208650 0.594520 0.175450 -0.531899
O2    O     O_R   0.791350 0.405480 0.824550 -0.535383
O3    O     O_R   0.291350 0.094520 0.324550 -0.531901
O4    O     O_R   0.708650 0.905480 0.675450 -0.535384
O5    O     O_R   0.192980 0.260780 0.300160 -0.536872
O6    O     O_R   0.807020 0.739220 0.699840 -0.538265
O7    O     O_R   0.307020 0.760780 0.199840 -0.536871
O8    O     O_R   0.692980 0.239220 0.800160 -0.538264
C1    C     C_R   0.179264 0.432780 0.318857 0.693694
C2    C     C_R   0.821345 0.567064 0.681938 0.693865
C3    C     C_R   0.320736 0.932781 0.181143 0.693696
C4    C     C_R   0.678655 0.067063 0.818062 0.693864
O9    O     O_R   0.202550 0.264660 0.174420 -0.539368
O10   O     O_R   0.797450 0.735340 0.825580 -0.535829
O11   O     O_R   0.297450 0.764660 0.325580 -0.539363
O12   O     O_R   0.702550 0.235340 0.674420 -0.535826
O13   O     O_R   0.300990 0.096480 0.197920 -0.541223
O14   O     O_R   0.699010 0.903520 0.802080 -0.540766
O15   O     O_R   0.199010 0.596480 0.302080 -0.541222
O16   O     O_R   0.800990 0.403520 0.697920 -0.540767
C5    C     C_R   0.191145 0.433302 0.151101 0.721920
C6    C     C_R   0.808957 0.566662 0.848824 0.721609
C7    C     C_R   0.308855 0.933305 0.348899 0.721920
C8    C     C_R   0.691044 0.066660 0.651176 0.721612
O17   O     O_3   0.282290 0.427760 0.257860 -0.366509
O18   O     O_3   0.717710 0.572240 0.742140 -0.365818
O19   O     O_3   0.217710 0.927760 0.242140 -0.366511
O20   O     O_3   0.782290 0.072240 0.757860 -0.365821
V1    V     V_3+5 0.244010 0.152080 0.248540 1.442284
V2    V     V_3+5 0.755990 0.847920 0.751460 1.445227
V3    V     V_3+5 0.255990 0.652080 0.251460 1.442290
V4    V     V_3+5 0.744010 0.347920 0.748540 1.445230
C9    C     C_R   0.657508 0.061060 0.591866 -0.113602
C10   C     C_R   0.342315 0.938848 0.408258 -0.115296
C11   C     C_R   0.842492 0.561083 0.908134 -0.113610
C12   C     C_R   0.157685 0.438825 0.091741 -0.115297
C13   C     C_R   0.647326 0.122307 0.481454 0.404068
C14   C     C_R   0.352437 0.877395 0.518663 0.405754
C15   C     C_R   0.852691 0.622619 0.018530 0.404063
C16   C     C_R   0.147546 0.377090 0.981352 0.405749
C17   C     C_R   0.678535 0.113118 0.537765 -0.192783
C18   C     C_R   0.321253 0.886574 0.462323 -0.181668
C19   C     C_R   0.821476 0.613334 0.962225 -0.192757
C20   C     C_R   0.178735 0.386363 0.037687 -0.181632
C21   C     C_R   0.604237 0.018219 0.589786 -0.207224
C22   C     C_R   0.395571 0.981812 0.410399 -0.213202
C23   C     C_R   0.895758 0.518140 0.910221 -0.207222
C24   C     C_R   0.104434 0.481890 0.089595 -0.213205
C25   C     C_R   0.570742 0.029174 0.533287 0.043813
C26   C     C_R   0.429040 0.970774 0.466907 0.045289
C27   C     C_R   0.929258 0.529194 0.966713 0.043816
C28   C     C_R   0.070960 0.470755 0.033092 0.045291
C29   C     C_R   0.593412 0.081905 0.478681 0.039141
C30   C     C_R   0.406355 0.917929 0.521489 0.029013
C31   C     C_R   0.906600 0.582126 0.021308 0.039153
C32   C     C_R   0.093634 0.417711 0.978522 0.029025
C33   C     C_R   0.515629 0.992023 0.529278 0.080165
C34   C     C_R   0.484147 0.007939 0.470931 0.085728
C35   C     C_R   0.984367 0.491960 0.970726 0.080169
C36   C     C_R   0.015856 0.508003 0.029065 0.085732
C37   C     C_R   0.508853 0.059881 0.418459 -0.198831
C38   C     C_R   0.490917 0.940040 0.581744 -0.189794
C39   C     C_R   0.991162 0.560151 0.081525 -0.198830
C40   C     C_R   0.009068 0.439773 0.918272 -0.189794
C41   C     C_R   0.561925 0.095377 0.422326 -0.126720
C42   C     C_R   0.437837 0.904465 0.577858 -0.114954
C43   C     C_R   0.938094 0.595719 0.077655 -0.126715
C44   C     C_R   0.062145 0.404128 0.922161 -0.114949
H1    H     H_    0.577996 0.134937 0.380030 0.192672
H2    H     H_    0.421754 0.864835 0.620141 0.199603
H3    H     H_    0.922031 0.635442 0.119942 0.192669
H4    H     H_    0.078219 0.364337 0.879887 0.199601
H5    H     H_    0.409524 0.018737 0.366891 0.106187
H6    H     H_    0.590289 0.981445 0.633313 0.112845
H7    H     H_    0.090488 0.518947 0.133096 0.106198
H8    H     H_    0.909698 0.481229 0.866700 0.112852
H9    H     H_    0.280225 0.851448 0.460578 0.154690
H10   H     H_    0.719564 0.148096 0.539458 0.147505
H11   H     H_    0.219758 0.351151 0.039437 0.154678
H12   H     H_    0.780453 0.648400 0.960526 0.147511
H13   H     H_    0.488261 0.075220 0.373002 0.126858
H14   H     H_    0.511521 0.924685 0.627198 0.137083
H15   H     H_    0.011760 0.575607 0.126973 0.126858
H16   H     H_    0.988458 0.424303 0.872826 0.137080
C45   C     C_R   0.437611 0.819068 0.093487 -0.070765
C46   C     C_R   0.585752 0.187416 0.938002 -0.102846
C47   C     C_R   0.062388 0.319066 0.406515 -0.070761
C48   C     C_R   0.914248 0.687418 0.561998 -0.102848
H17   H     H_    0.466880 0.706924 0.092989 0.135142
H18   H     H_    0.578712 0.306767 0.968315 0.134782
H19   H     H_    0.033119 0.206921 0.407014 0.135143
H20   H     H_    0.921289 0.806769 0.531684 0.134784
C49   C     C_R   0.399145 0.801141 0.134246 -0.123674
C50   C     C_R   0.624532 0.206665 0.897763 -0.096976
C51   C     C_R   0.100855 0.301138 0.365756 -0.123663
C52   C     C_R   0.875469 0.706666 0.602236 -0.096980
H21   H     H_    0.399495 0.675524 0.164120 0.123797
H22   H     H_    0.646459 0.340307 0.898012 0.122434
H23   H     H_    0.100505 0.175518 0.335883 0.123798
H24   H     H_    0.853542 0.840306 0.601987 0.122431
C53   C     C_R   0.361450 0.946162 0.137382 -0.080216
C54   C     C_R   0.635733 0.053348 0.858867 -0.079918
C55   C     C_R   0.138551 0.446161 0.362618 -0.080219
C56   C     C_R   0.864267 0.553350 0.641134 -0.079914
C57   C     C_R   0.362286 0.106655 0.097539 -0.182056
C58   C     C_R   0.606607 0.881581 0.860541 -0.205663
C59   C     C_R   0.137714 0.606657 0.402460 -0.182059
C60   C     C_R   0.893394 0.381586 0.639459 -0.205657
H25   H     H_    0.332502 0.216860 0.098303 0.151872
H26   H     H_    0.615023 0.762094 0.830833 0.157242
H27   H     H_    0.167499 0.716864 0.401696 0.151872
H28   H     H_    0.884976 0.262099 0.669169 0.157239
C61   C     C_R   0.399510 0.123161 0.054715 -0.009551
C62   C     C_R   0.566959 0.860745 0.900143 0.009916
C63   C     C_R   0.100490 0.623166 0.445284 -0.009556
C64   C     C_R   0.933041 0.360750 0.599858 0.009914
C65   C     C_R   0.438518 0.979387 0.053744 0.038106
C66   C     C_R   0.556429 0.016563 0.939517 0.038946
C67   C     C_R   0.061482 0.479389 0.446256 0.038103
C68   C     C_R   0.943571 0.516567 0.560483 0.038946
C69   C     C_1   0.480405 0.995107 0.013889 0.056172
C70   C     C_1   0.515146 0.006735 0.980401 0.054806
C71   C     C_1   0.019595 0.495111 0.486111 0.056175
C72   C     C_1   0.984854 0.506740 0.519599 0.054808
Cl1   Cl    Cl    0.677891 0.189242 0.415675 -0.597723
Cl2   Cl    Cl    0.321836 0.810299 0.584399 -0.559681
Cl3   Cl    Cl    0.822140 0.689813 0.084294 -0.597742
Cl4   Cl    Cl    0.178134 0.309741 0.915631 -0.559707
C73   C     C_2   0.395275 0.288080 0.010486 0.776835
O21   O     O_2   0.375640 0.440479 0.024821 -0.550285
O22   O     O_R   0.411536 0.267260 0.951430 -0.649798
H29   H     H_    0.404477 0.387028 0.924886 0.326364
C74   C     C_2   0.537886 0.674401 0.899371 0.751780
O23   O     O_2   0.536771 0.567754 0.854250 -0.549943
O24   O     O_R   0.512626 0.617814 0.950304 -0.670079
H30   H     H_    0.495396 0.486628 0.944267 0.307931
C75   C     C_2   0.104725 0.788090 0.489510 0.776835
O25   O     O_2   0.124361 0.940489 0.475174 -0.550287
O26   O     O_R   0.088464 0.767278 0.548567 -0.649796
H31   H     H_    0.095524 0.887048 0.575110 0.326369
C76   C     C_2   0.962114 0.174410 0.600632 0.751785
O27   O     O_2   0.963230 0.067767 0.645754 -0.549939
O28   O     O_R   0.987375 0.117819 0.549699 -0.670079
H32   H     H_    0.004603 0.986635 0.555737 0.307933

loop_
_geom_bond_atom_site_label_1
_geom_bond_atom_site_label_2
_ccdc_geom_bond_type
O17   V3    S    
C48   C52   A    
O1    C5    A    
C47   H19   S    
O19   V1    S    
C9    C21   A    
O3    C7    A    
C10   C18   A    
C11   C23   A    
C25   C33   A    
C71   C72   T    
C5    C12   S    
O7    C3    A    
C6    C11   S    
C75   O26   S    
O5    C1    A    
C26   C30   A    
C61   C73   S    
C58   C62   A    
C36   C39   A    
O24   H30   S    
C40   C44   A    
C57   C61   A    
C23   H8    S    
C14   C18   A    
C76   O28   S    
C58   H26   S    
O4    C8    A    
C51   H23   S    
C44   H4    S    
C43   H3    S    
C50   H22   S    
O28   H32   S    
C16   Cl4   S    
O1    V3    S    
O13   V1    S    
O2    V4    S    
C66   C70   S    
O3    V1    S    
C65   C69   S    
C40   H16   S    
C46   C50   A    
C45   C49   A    
C1    O15   A    
C15   C31   A    
C48   H20   S    
C2    O16   A    
C16   C32   A    
C47   C51   A    
O2    C6    A    
C54   C58   A    
C10   C22   A    
C21   C25   A    
C48   C68   A    
C11   C19   A    
C16   C20   A    
O5    V1    S    
C1    C55   S    
C13   C29   A    
C34   C37   A    
O11   C7    A    
C38   H14   S    
O15   V3    S    
C35   C36   A    
O12   C8    A    
O17   V1    S    
C24   H7    S    
C47   C67   A    
O10   V2    S    
C14   Cl2   S    
C51   C55   A    
C13   Cl1   S    
C53   C57   A    
C39   C43   A    
O7    V3    S    
C38   C42   A    
O19   V3    S    
O8    V4    S    
C63   C75   S    
C33   C38   A    
C15   Cl3   S    
C46   C66   A    
C46   H18   S    
C49   C53   A    
C17   H10   S    
C45   H17   S    
O18   V4    S    
C15   C19   A    
C19   H12   S    
C32   C44   A    
C64   C68   A    
C39   H15   S    
C21   H6    S    
C26   C34   A    
C4    C54   S    
C37   C41   A    
C31   C43   A    
C14   C30   A    
O20   V4    S    
O8    C4    A    
C7    C10   S    
C35   C40   A    
O9    C5    A    
C3    C53   S    
C45   C65   A    
C59   C63   A    
C69   C70   T    
C62   C66   A    
C61   C65   A    
O6    V2    S    
O18   V2    S    
C63   C67   A    
C52   C56   A    
C74   O23   D    
C12   C20   A    
C27   C35   A    
O22   H29   S    
C49   H21   S    
C56   C60   A    
C29   C41   A    
C73   O21   D    
O16   V4    S    
O9    V1    S    
C57   H25   S    
C3    O13   A    
C59   H27   S    
C20   H11   S    
O6    C2    A    
C23   C27   A    
O26   H31   S    
O11   V3    S    
C30   C42   A    
C67   C71   S    
O12   V4    S    
C75   O25   D    
C22   C26   A    
C8    C9    S    
C9    C17   A    
C60   C64   A    
C2    C56   S    
C37   H13   S    
C76   O27   D    
O10   C6    A    
C33   C34   A    
C42   H2    S    
C41   H1    S    
C52   H24   S    
O20   V2    S    
C62   C74   S    
C12   C24   A    
C27   C31   A    
C13   C17   A    
C25   C29   A    
C68   C72   S    
O14   V2    S    
C64   C76   S    
C60   H28   S    
C24   C28   A    
C50   C54   A    
C18   H9    S    
C28   C36   A    
C4    O14   A    
C74   O24   S    
C55   C59   A    
C22   H5    S    
O4    V2    S    
C28   C32   A    
C73   O22   S    
