data_mof_unit_4237.cif
_audit_creation_date              2012-12-10T21:31:58-0500
_audit_creation_method            fapswitch 2.2
_symmetry_space_group_name_H-M    P1
_symmetry_Int_Tables_number       1
_space_group_crystal_system       triclinic
_cell_length_a                    15.47751
_cell_length_b                    16.147823
_cell_length_c                    16.535913
_cell_angle_alpha                 92.850798
_cell_angle_beta                  88.378344
_cell_angle_gamma                 110.121245
_cell_volume                      3875.47331432

loop_
_atom_site_label
_atom_site_type_symbol
_atom_type_description
_atom_site_fract_x
_atom_site_fract_y
_atom_site_fract_z
_atom_type_partial_charge
C1    C     C_R   0.502385 0.489349 0.346433 0.924728
C2    C     C_R   0.589672 0.513416 0.771407 -0.306338
C3    C     C_R   0.597374 0.568345 0.145118 -0.209450
C4    C     C_R   0.607245 0.528283 0.853225 -0.257299
C5    C     C_R   0.570745 0.490217 0.096373 0.112828
C6    C     C_R   0.547920 0.556849 0.903983 0.189992
C7    C     C_R   0.523566 0.407401 0.131455 0.381893
C8    C     C_R   0.475285 0.577095 0.871353 0.361906
C9    C     C_R   0.495138 0.408304 0.212931 0.417700
C10   C     C_R   0.459282 0.564423 0.787677 0.313811
C11   C     C_R   0.558786 0.770757 0.535095 -0.074783
C12   C     C_R   0.499575 0.511691 0.653282 0.963282
C13   C     C_R   0.459817 0.236280 0.447462 -0.039692
C14   C     C_R   0.571887 0.861141 0.543059 -0.117054
C15   C     C_R   0.445683 0.145879 0.435919 -0.113120
C16   C     C_R   0.326570 0.444864 0.504135 0.909099
C17   C     C_R   0.673514 0.555101 0.496986 0.897216
C18   C     C_R   0.509297 0.893414 0.506704 0.258781
C19   C     C_R   0.484850 0.105015 0.490463 0.254317
C20   C     C_R   0.436858 0.833119 0.461018 -0.316986
C21   C     C_R   0.535347 0.157177 0.555937 -0.310279
C22   C     C_R   0.428521 0.743249 0.452363 0.098449
C23   C     C_R   0.899091 0.391567 0.497738 -0.252846
C24   C     C_R   0.547123 0.247824 0.565287 0.093749
C25   C     C_R   0.226578 0.409454 0.512540 -0.112049
C26   C     C_R   0.773544 0.590230 0.502691 -0.120441
C27   C     C_R   0.079851 0.290175 0.501363 0.471388
C28   C     C_R   0.912897 0.699286 0.555800 0.496076
C29   C     C_R   0.176290 0.319267 0.501716 -0.303296
C30   C     C_R   0.820233 0.675305 0.534493 -0.312193
C31   C     C_R   0.181293 0.468753 0.531946 -0.245947
C32   C     C_R   0.820266 0.531258 0.487797 -0.279918
C33   C     C_R   0.085645 0.442265 0.531713 0.027365
C34   C     C_R   0.084999 0.589887 0.579289 -0.272178
C35   C     C_R   0.907720 0.548198 0.519035 0.020269
C36   C     C_R   0.034777 0.352608 0.511722 0.065144
C37   C     C_R   0.955114 0.634179 0.552630 0.059488
C38   C     C_R   0.040428 0.504744 0.543926 0.101142
C39   C     C_R   0.948172 0.481383 0.519181 0.094611
C40   C     C_R   0.389772 0.096204 0.366222 0.147200
C41   C     C_R   0.422952 0.043280 0.312654 -0.110655
C42   C     C_R   0.370769 0.998450 0.246143 -0.139011
C43   C     C_R   0.285708 0.006853 0.231859 -0.104828
C44   C     C_R   0.252626 0.060045 0.284096 -0.161341
C45   C     C_R   0.940668 0.327905 0.498178 -0.210666
C46   C     C_R   0.304093 0.104362 0.351097 -0.158272
C47   C     C_R   0.652066 0.920686 0.589053 0.131754
C48   C     C_R   0.713628 0.996492 0.553919 -0.145280
C49   C     C_R   0.789859 0.051678 0.597009 -0.151761
C50   C     C_R   0.805702 0.031428 0.675140 -0.091976
C51   C     C_R   0.745365 0.955938 0.710327 -0.124291
C52   C     C_R   0.668926 0.900627 0.667540 -0.169580
C53   C     C_R   0.355059 0.682953 0.401272 0.149112
C54   C     C_R   0.376806 0.649102 0.326757 -0.091933
C55   C     C_R   0.307148 0.591562 0.278287 -0.175877
C56   C     C_R   0.042921 0.653106 0.583806 -0.222432
C57   C     C_R   0.215122 0.569758 0.302766 -0.109888
C58   C     C_R   0.192700 0.606616 0.375135 -0.119094
C59   C     C_R   0.262421 0.663407 0.424186 -0.190646
C60   C     C_R   0.598972 0.298121 0.635660 0.149983
C61   C     C_R   0.687850 0.358571 0.624709 -0.115941
C62   C     C_R   0.744484 0.394443 0.691206 -0.168906
C63   C     C_R   0.712125 0.370314 0.769435 -0.136219
C64   C     C_R   0.622771 0.311242 0.781101 -0.129852
C65   C     C_R   0.566449 0.274862 0.714476 -0.160543
C66   C     C_3   0.032318 0.167888 0.415928 0.041110
C67   C     C_R   0.520760 0.487916 0.259828 -0.220106
C68   C     C_3   0.960122 0.075481 0.407444 -0.310882
C69   C     C_3   0.958869 0.035799 0.321662 -0.988429
C70   C     C_3   0.984330 0.844803 0.527459 0.074069
C71   C     C_3   0.077893 0.849688 0.490407 -0.379416
C72   C     C_3   0.111395 0.921591 0.428914 -0.936563
C73   C     C_3   0.494470 0.312214 0.011240 0.122934
C74   C     C_3   0.404527 0.324271 0.987232 -0.401574
C75   C     C_3   0.390239 0.310058 0.895931 -0.946366
C76   C     C_3   0.335774 0.537420 0.938026 0.137635
C77   C     C_3   0.315437 0.537042 0.029120 -0.351588
C78   C     C_R   0.513841 0.527305 0.739327 -0.186419
C79   C     C_3   0.227646 0.461593 0.050214 -1.008536
C80   C     C_3   0.350267 0.305956 0.224488 0.107026
C81   C     C_3   0.294984 0.337404 0.289786 -0.377474
C82   C     C_3   0.193244 0.307324 0.268778 -0.997325
C83   C     C_3   0.406128 0.670612 0.746422 0.135497
C84   C     C_3   0.337125 0.684439 0.689032 -0.347033
C85   C     C_3   0.352296 0.782189 0.681268 -0.967375
C86   C     C_R   0.572678 0.567176 0.225685 -0.327014
H1    H     H_    0.899839 0.259999 0.482346 0.172626
H2    H     H_    0.211393 0.271974 0.491838 0.160778
H3    H     H_    0.827751 0.367305 0.481513 0.141376
H4    H     H_    0.151798 0.608565 0.606500 0.147687
H5    H     H_    0.635631 0.491925 0.732414 0.207896
H6    H     H_    0.594937 0.628686 0.261545 0.189482
H7    H     H_    0.665100 0.514764 0.877404 0.182126
H8    H     H_    0.635306 0.631188 0.119389 0.183098
H9    H     H_    0.489715 0.037641 0.321564 0.134236
H10   H     H_    0.396670 0.957744 0.205266 0.131537
H11   H     H_    0.245635 0.972489 0.180096 0.127752
H12   H     H_    0.079826 0.717112 0.612007 0.189208
H13   H     H_    0.187176 0.067142 0.272593 0.126269
H14   H     H_    0.276947 0.144824 0.391214 0.112529
H15   H     H_    0.703201 0.012411 0.492922 0.132896
H16   H     H_    0.836857 0.109983 0.569725 0.158733
H17   H     H_    0.864835 0.074137 0.708353 0.136343
H18   H     H_    0.757809 0.940265 0.770821 0.133210
H19   H     H_    0.622631 0.842552 0.695771 0.113381
H20   H     H_    0.447538 0.668043 0.305781 0.135641
H21   H     H_    0.324589 0.564459 0.221546 0.138253
H22   H     H_    0.161195 0.525286 0.265172 0.131289
H23   H     H_    0.428487 0.266942 0.406213 0.183991
H24   H     H_    0.121335 0.591059 0.393245 0.143735
H25   H     H_    0.244431 0.691573 0.480192 0.127979
H26   H     H_    0.714173 0.374874 0.564523 0.139080
H27   H     H_    0.813568 0.440290 0.682014 0.155598
H28   H     H_    0.755905 0.397923 0.820968 0.132843
H29   H     H_    0.597637 0.292613 0.841601 0.124927
H30   H     H_    0.498536 0.226845 0.724074 0.130605
H31   H     H_    0.101476 0.163582 0.401945 0.149558
H32   H     H_    0.016285 0.210452 0.371731 0.142320
H33   H     H_    0.974954 0.031736 0.450732 0.225090
H34   H     H_    0.605839 0.745633 0.564214 0.153150
H35   H     H_    0.890998 0.079075 0.422435 0.215279
H36   H     H_    0.941921 0.077489 0.277604 0.269180
H37   H     H_    0.905968 0.968745 0.317867 0.266024
H38   H     H_    0.026812 0.030363 0.305565 0.259615
H39   H     H_    0.990816 0.910492 0.555775 0.177725
H40   H     H_    0.931690 0.831387 0.479187 0.128569
H41   H     H_    0.129517 0.863698 0.539236 0.231372
H42   H     H_    0.072228 0.785356 0.459535 0.216855
H43   H     H_    0.061470 0.908404 0.378858 0.266397
H44   H     H_    0.178667 0.922319 0.403161 0.280722
H45   H     H_    0.387624 0.855407 0.431599 0.170278
H46   H     H_    0.120514 0.987343 0.458378 0.266462
H47   H     H_    0.487129 0.242626 0.994634 0.157974
H48   H     H_    0.555612 0.350575 0.975820 0.148431
H49   H     H_    0.345770 0.275698 0.018638 0.216826
H50   H     H_    0.405029 0.391270 0.005901 0.224109
H51   H     H_    0.446393 0.360007 0.863260 0.280038
H52   H     H_    0.323618 0.316499 0.880336 0.261849
H53   H     H_    0.388958 0.243018 0.875696 0.260448
H54   H     H_    0.336195 0.470657 0.917382 0.131478
H55   H     H_    0.279375 0.549354 0.905801 0.170371
H56   H     H_    0.564956 0.127771 0.600200 0.175860
H57   H     H_    0.373871 0.529792 0.062082 0.226952
H58   H     H_    0.307869 0.600844 0.049565 0.231610
H59   H     H_    0.168072 0.467284 0.017986 0.274804
H60   H     H_    0.214063 0.464321 0.116380 0.263093
H61   H     H_    0.235159 0.396959 0.033231 0.265784
H62   H     H_    0.321546 0.232857 0.218214 0.185028
H63   H     H_    0.340913 0.330600 0.164593 0.117085
H64   H     H_    0.302399 0.310818 0.348843 0.223034
H65   H     H_    0.321636 0.410580 0.295768 0.211558
H66   H     H_    0.184120 0.333544 0.210023 0.271375
H67   H     H_    0.784479 0.470246 0.454996 0.161223
H68   H     H_    0.155719 0.332645 0.316509 0.266624
H69   H     H_    0.163581 0.234096 0.264918 0.258091
H70   H     H_    0.476731 0.702600 0.720845 0.126152
H71   H     H_    0.400597 0.702769 0.806471 0.173475
H72   H     H_    0.344217 0.654747 0.628205 0.240324
H73   H     H_    0.266194 0.650812 0.712281 0.221710
H74   H     H_    0.339459 0.811819 0.740433 0.266991
H75   H     H_    0.304070 0.789777 0.636094 0.263703
H76   H     H_    0.423825 0.817951 0.660948 0.275022
H77   H     H_    0.222352 0.537222 0.541705 0.166504
H78   H     H_    0.784446 0.721892 0.545717 0.166097
N1    N     N_2   0.579850 0.497403 0.012075 -0.198207
N2    N     N_2   0.552377 0.556157 0.988706 -0.151601
N3    N     N_R   0.489120 0.713640 0.490430 -0.110377
N4    N     N_R   0.510880 0.286360 0.509570 -0.116257
N5    N     N_2   0.521091 0.985263 0.519115 -0.179724
N6    N     N_2   0.469543 0.012287 0.479198 -0.185180
O1    O     O_R   0.503890 0.423710 0.387290 -0.586724
O2    O     O_3   0.958341 0.782915 0.589269 -0.655199
O3    O     O_3   0.509205 0.323301 0.095612 -0.631139
O4    O     O_3   0.419002 0.607147 0.922406 -0.652458
O5    O     O_3   0.443549 0.329869 0.247530 -0.613063
O6    O     O_3   0.385079 0.578998 0.754261 -0.648514
O7    O     O_R   0.496110 0.576290 0.612710 -0.615424
O8    O     O_R   0.496910 0.560910 0.381140 -0.627295
O9    O     O_R   0.503090 0.439090 0.618860 -0.607034
O10   O     O_R   0.373240 0.392210 0.504830 -0.632266
O11   O     O_R   0.626760 0.607790 0.495170 -0.630829
O12   O     O_R   0.366260 0.529410 0.498680 -0.608548
O13   O     O_R   0.633740 0.470590 0.501320 -0.620217
O14   O     O_3   0.029220 0.200839 0.496183 -0.659388
Zn1   Zn    Zn3+2 0.504660 0.408390 0.504100 0.945390
Zn2   Zn    Zn3+2 0.495340 0.591610 0.495900 0.926139

loop_
_geom_bond_atom_site_label_1
_geom_bond_atom_site_label_2
_ccdc_geom_bond_type
C25   C31   A    
C66   C68   S    
C6    N2    S    
C34   C56   A    
N1    N2    D    
C23   C45   A    
C27   C29   A    
C85   H75   S    
C41   C42   A    
C14   C18   A    
C2    C4    A    
C19   N6    S    
C56   H12   S    
C77   H57   S    
C81   C82   S    
C53   C59   A    
C72   H43   S    
C79   H59   S    
C53   C54   A    
C26   C32   A    
C42   H10   S    
C17   C26   S    
C69   H36   S    
C35   C37   A    
C21   H56   S    
O13   Zn1   S    
C68   H33   S    
O12   Zn2   S    
C38   C39   A    
C44   H13   S    
C8    O4    S    
C69   H37   S    
C81   H64   S    
C33   C36   A    
N5    N6    D    
C70   O2    S    
C27   O14   S    
C29   H2    S    
C13   H23   S    
C82   H69   S    
C15   C19   A    
C37   C56   A    
C28   O2    S    
C83   C84   S    
C68   C69   S    
C66   H31   S    
C12   C78   S    
C59   H25   S    
C31   C33   A    
C70   C71   S    
C85   H74   S    
C30   H78   S    
C79   H60   S    
C76   H55   S    
C70   H40   S    
C76   H54   S    
C12   O7    A    
C1    C67   S    
C50   H17   S    
C64   H29   S    
C34   C38   A    
C83   O6    S    
C3    C86   A    
C25   C29   A    
C85   H76   S    
C63   H28   S    
C71   H41   S    
C2    H5    S    
C11   H34   S    
C84   H73   S    
C44   C46   A    
C72   H46   S    
C22   C53   S    
C77   C79   S    
C73   C74   S    
C10   C78   A    
C80   H63   S    
C31   H77   S    
C10   O6    S    
C74   C75   S    
C54   H20   S    
C63   C64   A    
C51   C52   A    
C11   N3    A    
C32   C35   A    
C76   C77   S    
C24   N4    A    
C62   H27   S    
C4    C6    A    
C75   H51   S    
C49   H16   S    
C5    C7    A    
C84   H72   S    
C13   N4    A    
C6    C8    A    
C83   H70   S    
C69   H38   S    
C58   C59   A    
C81   H65   S    
N3    Zn2   S    
C1    O1    A    
O7    Zn2   S    
C4    H7    S    
C55   H21   S    
C60   C61   A    
C82   H68   S    
C35   C39   A    
C43   C44   A    
C9    C67   A    
C62   C63   A    
C2    C78   A    
O1    Zn1   S    
C1    O8    A    
C17   O13   A    
C16   O12   A    
C46   H14   S    
C47   C48   A    
C83   H71   S    
C24   C60   S    
C74   H49   S    
C57   H22   S    
C23   H3    S    
C50   C51   A    
C36   C45   A    
C84   C85   S    
C47   C52   A    
C74   H50   S    
C22   N3    A    
C70   H39   S    
C40   C41   A    
C73   H47   S    
C52   H19   S    
C26   C30   A    
C5    N1    S    
C13   C15   A    
C65   H30   S    
C71   H42   S    
C42   C43   A    
C40   C46   A    
C20   H45   S    
C18   N5    S    
C16   C25   S    
C7    C9    A    
C66   O14   S    
C34   H4    S    
C48   C49   A    
C67   C86   A    
N4    Zn1   S    
C45   H1    S    
C58   H24   S    
C43   H11   S    
C80   O5    S    
C20   C22   A    
C80   C81   S    
C3    C5    A    
C75   H52   S    
C68   H35   S    
C60   C65   A    
C54   C55   A    
C79   H61   S    
O11   Zn2   S    
C72   H44   S    
C14   C47   S    
O9    Zn1   S    
C27   C36   A    
C33   C38   A    
C64   C65   A    
C55   C57   A    
C51   H18   S    
C77   H58   S    
C71   C72   S    
C86   H6    S    
C57   C58   A    
C41   H9    S    
C28   C37   A    
C23   C39   A    
C48   H15   S    
C7    O3    S    
C76   O4    S    
C11   C14   A    
C28   C30   A    
C9    O5    S    
C3    H8    S    
C18   C20   A    
C73   O3    S    
C61   C62   A    
C15   C40   S    
O10   Zn1   S    
C32   H67   S    
O8    Zn2   S    
C17   O11   A    
C80   H62   S    
C12   O9    A    
C73   H48   S    
C8    C10   A    
C49   C50   A    
C66   H32   S    
C21   C24   A    
C75   H53   S    
C61   H26   S    
C82   H66   S    
C16   O10   A    
C19   C21   A    
