data_mof_unit_4023.cif
_audit_creation_date              2012-12-10T18:51:35-0500
_audit_creation_method            fapswitch 2.2
_symmetry_space_group_name_H-M    P1
_symmetry_Int_Tables_number       1
_space_group_crystal_system       triclinic
_cell_length_a                    10.637298
_cell_length_b                    9.866779
_cell_length_c                    10.528457
_cell_angle_alpha                 90.66921
_cell_angle_beta                  90.149634
_cell_angle_gamma                 90.128406
_cell_volume                      1104.94135617

loop_
_atom_site_label
_atom_site_type_symbol
_atom_type_description
_atom_site_fract_x
_atom_site_fract_y
_atom_site_fract_z
_atom_type_partial_charge
Br1   Br    Br    0.154002 0.354217 0.257986 -0.400913
Br2   Br    Br    0.846008 0.645830 0.741969 -0.400885
Br3   Br    Br    0.842496 0.356147 0.257968 -0.382104
Br4   Br    Br    0.157487 0.643872 0.741996 -0.382116
C1    C     C_R   0.872033 0.500389 0.500149 -0.280433
C2    C     C_3   0.480170 0.372062 0.036782 0.207411
C3    C     C_3   0.389098 0.454960 0.954142 -0.260894
C4    C     C_3   0.610860 0.545037 0.045853 -0.260903
C5    C     C_3   0.502515 0.502992 0.877356 -0.201305
C6    C     C_3   0.497444 0.497005 0.122643 -0.201287
C7    C     C_R   0.592954 0.072824 0.560349 -0.014053
C8    C     C_R   0.407041 0.927176 0.439654 -0.014046
C9    C     C_R   0.406953 0.070843 0.439819 -0.016870
C10   C     C_R   0.593039 0.929157 0.560187 -0.016868
C11   C     C_R   0.064277 0.436401 0.398500 0.217801
C12   C     C_R   0.127968 0.499608 0.499842 -0.280405
C13   C     C_R   0.935718 0.563619 0.601469 0.217799
C14   C     C_R   0.934355 0.436915 0.398610 0.215407
C15   C     C_R   0.065639 0.563095 0.601367 0.215413
C16   C     C_R   0.260338 0.499852 0.499558 0.990897
C17   C     C_R   0.739664 0.500147 0.500443 0.990917
C18   C     C_R   0.498259 0.499045 0.257408 0.969448
C19   C     C_R   0.501721 0.500955 0.742595 0.969440
C20   C     C_3   0.406923 0.579950 0.042085 0.183686
C21   C     C_3   0.593035 0.420047 0.957913 0.183665
C22   C     C_3   0.519786 0.627934 0.963217 0.207397
H1    H     H_    0.667330 0.127765 0.608803 0.162817
H2    H     H_    0.332661 0.872235 0.391205 0.162813
H3    H     H_    0.332453 0.124207 0.391570 0.179564
H4    H     H_    0.667530 0.875794 0.608444 0.179577
H5    H     H_    0.298764 0.418267 0.913209 0.224180
H6    H     H_    0.701200 0.581721 0.086783 0.224184
I1    I     I_    0.257170 0.704861 0.111538 -0.146582
I2    I     I_    0.742792 0.295138 0.888460 -0.146582
I3    I     I_    0.557703 0.832601 0.910462 -0.160396
I4    I     I_    0.442284 0.167383 0.089527 -0.160392
N1    N     N_R   0.500000 0.857200 0.500000 -0.098553
N2    N     N_R   0.500000 0.142800 0.500000 -0.098551
O1    O     O_R   0.316770 0.614620 0.499990 -0.602661
O2    O     O_R   0.683230 0.385380 0.500010 -0.602653
O3    O     O_R   0.683230 0.614620 0.500010 -0.610117
O4    O     O_R   0.316770 0.385380 0.499990 -0.610141
O5    O     O_R   0.499970 0.614650 0.313950 -0.619715
O6    O     O_R   0.500030 0.385350 0.686050 -0.619712
O7    O     O_R   0.500030 0.614650 0.686050 -0.583327
O8    O     O_R   0.499970 0.385350 0.313950 -0.583330
Zn1   Zn    Zn3+2 0.500000 0.653120 0.500000 1.026691
Zn2   Zn    Zn3+2 0.500000 0.346880 0.500000 1.026687

loop_
_geom_bond_atom_site_label_1
_geom_bond_atom_site_label_2
_ccdc_geom_bond_type
C2    C6    S    
C7    N2    A    
C16   O4    A    
C2    C3    S    
C19   O7    A    
C20   I1    S    
N1    Zn1   S    
C4    C22   S    
C11   C14   A    
N2    Zn2   S    
C18   O5    A    
C7    H1    S    
C21   I2    S    
C12   C16   S    
C6    C20   S    
O3    Zn1   S    
C5    C21   S    
O4    Zn2   S    
C6    C18   S    
Br2   C13   S    
C4    C21   S    
C9    N2    A    
C17   O2    A    
C10   H4    S    
C12   C15   A    
Br1   C11   S    
O1    Zn1   S    
C18   O8    A    
C2    I4    S    
C5    C22   S    
O8    Zn2   S    
O7    Zn1   S    
C7    C10   A    
C17   O3    A    
C2    C21   S    
C1    C13   A    
C11   C12   A    
C4    H6    S    
O6    Zn2   S    
C22   I3    S    
C3    H5    S    
C8    C9    A    
C8    H2    S    
Br3   C14   S    
C4    C6    S    
C9    H3    S    
C8    N1    A    
C3    C5    S    
C16   O1    A    
O2    Zn2   S    
C5    C19   S    
C1    C14   A    
C13   C15   A    
Br4   C15   S    
O5    Zn1   S    
C19   O6    A    
C3    C20   S    
C20   C22   S    
C10   N1    A    
C1    C17   S    
