data_mof_unit_2989.cif
_audit_creation_date              2013-03-05T15:46:34-0500
_audit_creation_method            fapswitch 2.2
_symmetry_space_group_name_H-M    P1
_symmetry_Int_Tables_number       1
_space_group_crystal_system       triclinic
_cell_length_a                    10.143996
_cell_length_b                    10.703763
_cell_length_c                    10.752484
_cell_angle_alpha                 91.017029
_cell_angle_beta                  95.779164
_cell_angle_gamma                 80.970358
_cell_volume                      1147.16215577

loop_
_atom_site_label
_atom_site_type_symbol
_atom_site_description
_atom_site_fract_x
_atom_site_fract_y
_atom_site_fract_z
_atom_type_partial_charge
O1    O     O_R   0.568940 0.489660 0.307530 -0.622621
O2    O     O_R   0.431060 0.510340 0.692470 -0.622221
O3    O     O_R   0.348880 0.522640 0.340350 -0.561138
O4    O     O_R   0.651120 0.477360 0.659650 -0.556856
C1    C     C_R   0.443278 0.511106 0.266680 0.812796
C2    C     C_R   0.556967 0.496655 0.733305 0.802301
O5    O     O_R   0.610030 0.300280 0.483580 -0.598771
O6    O     O_R   0.389970 0.699720 0.516420 -0.606897
O7    O     O_R   0.389970 0.333270 0.516400 -0.610229
O8    O     O_R   0.610030 0.666730 0.483600 -0.618014
C3    C     C_R   0.499921 0.260808 0.498954 0.867732
C4    C     C_R   0.500366 0.739347 0.503435 0.849673
Zn1   Zn    Zn3+2 0.646940 0.477980 0.478080 1.003214
Zn2   Zn    Zn3+2 0.353060 0.522020 0.521920 1.005322
H1    H     H_    0.360320 0.154093 0.895018 0.210489
H2    H     H_    0.612248 0.853930 0.096681 0.181449
C5    C     C_R   0.558459 0.114909 0.280710 -0.182853
C6    C     C_R   0.414723 0.891089 0.713689 -0.193364
C7    C     C_R   0.590809 0.042471 0.175037 0.029512
C8    C     C_R   0.373513 0.966634 0.815059 0.007824
C9    C     C_R   0.590892 0.912202 0.177865 -0.130629
C10   C     C_R   0.387989 0.093998 0.816698 -0.124841
C11   C     C_R   0.558641 0.855846 0.283871 -0.140901
C12   C     C_R   0.436147 0.146312 0.716502 -0.125003
C13   C     C_R   0.530675 0.927416 0.393128 0.085812
C14   C     C_R   0.465256 0.073911 0.608050 0.076034
C15   C     C_R   0.530937 0.057756 0.391610 0.049701
C16   C     C_R   0.459112 0.944465 0.607915 0.061141
C17   C     C_R   0.497645 0.872300 0.502062 -0.160642
C18   C     C_R   0.500495 0.128383 0.500004 -0.165349
H3    H     H_    0.554720 0.216080 0.274887 0.181528
H4    H     H_    0.410230 0.791254 0.718831 0.172607
H5    H     H_    0.553991 0.755929 0.277480 0.142628
H6    H     H_    0.447882 0.244765 0.725020 0.160561
H7    H     H_    0.391462 0.590938 0.889231 0.241534
H8    H     H_    0.599834 0.578829 0.116134 0.213662
C19   C     C_2   0.410390 0.525982 0.132764 0.144892
C20   C     C_2   0.592174 0.514656 0.866086 0.101742
C21   C     C_2   0.506116 0.559151 0.068130 -0.228817
C22   C     C_2   0.492223 0.563252 0.933739 -0.211299
H9    H     H_    0.891710 0.579129 0.580033 0.178541
H10   H     H_    0.108283 0.420900 0.419943 0.184104
N1    N     N_2   0.157300 0.551390 0.551120 -0.181790
N2    N     N_2   0.842700 0.448610 0.448880 -0.182867
C23   C     C_2   0.072597 0.489597 0.489226 -0.068932
C24   C     C_2   0.927399 0.510418 0.510764 -0.073772
H11   H     H_    0.879774 0.384175 0.383696 0.194222
H12   H     H_    0.120256 0.615811 0.616334 0.198263
C25   C     C_2   0.621596 0.103426 0.061065 0.920890
O9    O     O_2   0.670449 0.038953 0.977119 -0.602432
O10   O     O_R   0.593596 0.234898 0.048561 -0.790938
H13   H     H_    0.613164 0.264012 0.964204 0.363717
C26   C     C_2   0.311745 0.913808 0.917430 0.905703
O11   O     O_2   0.305635 0.969000 0.017779 -0.611554
O12   O     O_R   0.255433 0.803251 0.897821 -0.812271
H14   H     H_    0.215282 0.777267 0.974174 0.374279
N3    N     N_R   0.729081 0.480695 0.919571 0.226971
O13   O     O_R   0.803891 0.382003 0.877846 -0.336730
O14   O     O_R   0.785895 0.560133 0.991430 -0.348705
N4    N     N_R   0.284442 0.497123 0.074026 0.218196
O15   O     O_R   0.175014 0.529558 0.128105 -0.332991
O16   O     O_R   0.281952 0.422232 0.977394 -0.363612

loop_
_geom_bond_atom_site_label_1
_geom_bond_atom_site_label_2
_geom_bond_distance
_ccdc_geom_bond_type
O5    C3    1.281093 A    
H9    C24   1.085358 S    
C2    C20   1.453344 S    
C26   O11   1.223293 D    
H2    C9    1.083657 S    
C1    C19   1.450781 S    
C4    C17   1.419337 S    
C13   C15   1.395931 A    
C20   N3    1.442124 S    
N1    C23   1.290835 D    
N1    H12   1.030996 S    
C7    C25   1.481372 S    
C14   C16   1.396666 A    
N2    H11   1.030957 S    
O6    C4    1.279133 A    
O12   H14   1.014033 S    
C11   C13   1.419307 A    
H7    C22   1.083055 S    
O2    Zn2   1.920810 S    
C6    C16   1.424655 A    
C19   C21   1.343447 D    
C23   C24   1.495504 S    
Zn1   N2    2.016647 S    
C15   C18   1.411799 A    
C20   C22   1.340635 D    
O7    C3    1.283040 A    
C12   C14   1.418815 A    
N3    O13   1.301234 A    
O2    C2    1.294641 A    
O3    Zn2   1.948621 S    
O8    C4    1.287486 A    
N4    O15   1.301041 A    
O1    C1    1.292095 A    
O4    C2    1.291005 A    
C16   C17   1.417224 A    
C5    C7    1.401385 A    
C8    C10   1.393504 A    
C14   C18   1.410867 A    
C6    C8    1.403936 A    
C26   O12   1.396498 S    
C9    C11   1.389803 A    
C13   C17   1.413464 A    
C5    H3    1.080324 S    
C10   C12   1.387866 A    
N3    O14   1.301137 A    
C19   N4    1.442583 S    
C6    H4    1.079333 S    
H10   C23   1.085364 S    
O10   H13   1.012404 S    
C5    C15   1.421506 A    
O3    C1    1.292998 A    
O5    Zn1   1.998375 S    
O1    Zn1   1.920808 S    
N4    O16   1.301658 A    
C25   O9    1.223592 D    
C21   C22   1.438485 S    
O7    Zn2   1.997058 S    
Zn2   N1    2.016649 S    
O6    Zn2   1.998376 S    
C11   H5    1.078584 S    
C7    C9    1.395105 A    
H8    C21   1.083853 S    
H1    C10   1.083246 S    
C12   H6    1.080209 S    
O4    Zn1   1.948622 S    
C3    C18   1.416776 S    
N2    C24   1.290855 D    
C8    C26   1.481937 S    
C25   O10   1.397366 S    
O8    Zn1   1.997059 S    
