data_mof_unit_2604.cif
_audit_creation_date              2012-12-10T17:50:42-0500
_audit_creation_method            fapswitch 2.2
_symmetry_space_group_name_H-M    P1
_symmetry_Int_Tables_number       1
_space_group_crystal_system       triclinic
_cell_length_a                    14.741333
_cell_length_b                    14.574114
_cell_length_c                    15.840191
_cell_angle_alpha                 76.417172
_cell_angle_beta                  102.604215
_cell_angle_gamma                 115.127172
_cell_volume                      2967.64481901

loop_
_atom_site_label
_atom_site_type_symbol
_atom_type_description
_atom_site_fract_x
_atom_site_fract_y
_atom_site_fract_z
_atom_type_partial_charge
C1    C     C_R   0.880441 0.311791 0.514366 0.785639
C2    C     C_R   0.119538 0.688222 0.485908 0.779404
C3    C     C_R   0.776944 0.027978 0.508163 -0.191085
C4    C     C_R   0.220027 0.971557 0.492909 -0.192239
C5    C     C_R   0.845415 0.129675 0.507714 -0.208858
C6    C     C_R   0.152074 0.870008 0.490872 -0.208532
C7    C     C_R   0.711472 0.174413 0.525778 -0.226951
C8    C     C_R   0.289208 0.826031 0.479965 -0.225309
C9    C     C_R   0.638844 0.077965 0.510140 0.072321
C10   C     C_R   0.360399 0.922630 0.496885 0.072806
C11   C     C_R   0.674143 0.001391 0.511343 0.133495
C12   C     C_R   0.323826 0.998602 0.494031 0.134744
C13   C     C_R   0.533087 0.053840 0.498690 0.001706
C14   C     C_R   0.466236 0.947400 0.510435 0.002139
C15   C     C_R   0.508729 0.870760 0.536528 0.078246
C16   C     C_R   0.490385 0.130523 0.473610 0.079898
C17   C     C_R   0.608847 0.898764 0.524474 -0.265422
C18   C     C_R   0.389209 0.101332 0.483449 -0.267289
C19   C     C_R   0.713871 0.672359 0.357706 -0.335867
C20   C     C_R   0.300108 0.352350 0.661053 -0.333197
C21   C     C_R   0.786418 0.631159 0.368744 0.296267
C22   C     C_R   0.208077 0.360646 0.625209 0.300848
C23   C     C_R   0.999860 0.500548 0.659724 0.820387
C24   C     C_R   0.000201 0.499619 0.340251 0.823463
C25   C     C_R   0.723950 0.522924 0.499435 -0.038269
C26   C     C_R   0.290148 0.500487 0.518074 -0.040116
C27   C     C_R   0.640926 0.554694 0.483332 -0.024299
C28   C     C_R   0.383240 0.486096 0.547408 -0.026225
C29   C     C_R   0.639879 0.632852 0.411894 0.137710
C30   C     C_R   0.385964 0.411233 0.621353 0.134340
C31   C     C_R   0.557830 0.510886 0.533230 0.082498
C32   C     C_R   0.472498 0.540319 0.505336 0.080944
C33   C     C_R   0.479016 0.621997 0.435898 -0.249197
C34   C     C_R   0.556376 0.437892 0.609159 -0.240555
C35   C     C_R   0.562062 0.668356 0.391124 -0.198219
C36   C     C_R   0.472612 0.390548 0.653186 -0.194277
C37   C     C_3   0.974174 0.400508 0.041428 -0.025877
C38   C     C_3   0.023407 0.596041 0.958912 -0.025713
C39   C     C_3   0.904293 0.439372 0.967959 -0.026244
C40   C     C_3   0.093250 0.557017 0.032290 -0.025200
C41   C     C_1   0.998581 0.500922 0.748734 -0.218067
C42   C     C_1   0.000724 0.498297 0.251298 -0.211679
C43   C     C_3   0.063779 0.462461 0.987705 0.055815
C44   C     C_3   0.933655 0.533924 0.012500 0.058384
C45   C     C_3   0.994091 0.501413 0.914612 0.029334
C46   C     C_3   0.003436 0.495162 0.085625 0.028457
C47   C     C_1   0.996317 0.501405 0.823560 -0.096356
C48   C     C_1   0.002067 0.496631 0.176540 -0.097926
C49   C     C_R   0.812835 0.203196 0.518076 -0.056171
C50   C     C_R   0.186731 0.796832 0.483465 -0.058920
Cu1   Cu    Cu3+1 0.081740 0.475690 0.522610 0.917348
Cu2   Cu    Cu3+1 0.918260 0.524310 0.477390 0.915596
H1    H     H_    0.283596 0.558455 0.463607 0.127507
H2    H     H_    0.731784 0.466548 0.554929 0.128263
H3    H     H_    0.710266 0.731037 0.301845 0.134589
H4    H     H_    0.303002 0.293306 0.716799 0.138178
H5    H     H_    0.421017 0.652140 0.414737 0.123116
H6    H     H_    0.619284 0.415990 0.636330 0.127165
H7    H     H_    0.639231 0.840370 0.534885 0.147445
H8    H     H_    0.358162 0.159208 0.472951 0.139607
H9    H     H_    0.311697 0.774409 0.459520 0.136854
H10   H     H_    0.691207 0.226434 0.548007 0.140144
H11   H     H_    0.072816 0.849306 0.493361 0.146245
H12   H     H_    0.923394 0.150140 0.500805 0.136940
H13   H     H_    0.804179 0.970228 0.506254 0.131347
H14   H     H_    0.191528 0.028936 0.492962 0.128794
H15   H     H_    0.563226 0.730039 0.336910 0.135198
H16   H     H_    0.474060 0.333559 0.710897 0.138704
N1    N     N_R   0.795440 0.560790 0.443380 -0.182904
N2    N     N_R   0.204560 0.439210 0.556620 -0.181781
O1    O     O_R   0.977900 0.338120 0.529810 -0.594637
O2    O     O_R   0.022100 0.661880 0.470190 -0.589364
O3    O     O_R   0.839850 0.379180 0.491620 -0.582738
O4    O     O_R   0.160150 0.620820 0.508380 -0.583619
O5    O     O_R   0.069010 0.479460 0.640020 -0.583751
O6    O     O_R   0.930990 0.520540 0.359980 -0.591625
O7    O     O_R   0.930960 0.520530 0.601820 -0.577186
O8    O     O_R   0.069040 0.479470 0.398180 -0.575067
C51   C     C_R   0.795694 0.371009 0.940411 0.109394
C52   C     C_R   0.730380 0.319431 0.004555 -0.129199
C53   C     C_R   0.629845 0.255080 0.981623 -0.133291
C54   C     C_R   0.593527 0.241139 0.894502 -0.110588
C55   C     C_R   0.657712 0.291733 0.830268 -0.147055
C56   C     C_R   0.758145 0.356837 0.852814 -0.170880
H17   H     H_    0.757533 0.328617 0.072568 0.124148
H18   H     H_    0.580212 0.215726 0.031498 0.125282
H19   H     H_    0.515743 0.191042 0.876771 0.117999
H20   H     H_    0.629637 0.280338 0.762879 0.119588
H21   H     H_    0.805093 0.395397 0.801410 0.140439
C57   C     C_R   0.202302 0.623354 0.060634 0.108906
C58   C     C_R   0.266871 0.679319 0.996486 -0.132668
C59   C     C_R   0.368395 0.740090 0.020521 -0.135875
C60   C     C_R   0.406673 0.745249 0.108845 -0.108732
C61   C     C_R   0.343477 0.689392 0.173189 -0.140523
C62   C     C_R   0.241853 0.628494 0.149406 -0.172700
H22   H     H_    0.238538 0.675838 0.927713 0.126623
H23   H     H_    0.417436 0.783007 0.970629 0.126163
H24   H     H_    0.485356 0.792149 0.127466 0.117717
H25   H     H_    0.373366 0.692844 0.241661 0.124362
H26   H     H_    0.195871 0.584799 0.200832 0.144097
C63   C     C_3   0.116407 0.269209 0.657980 -0.360876
C64   C     C_3   0.074787 0.286079 0.731653 -0.276833
C65   C     C_3   0.047755 0.192787 0.804317 -0.930528
H27   H     H_    0.992808 0.123135 0.776636 0.263569
H28   H     H_    0.116863 0.179988 0.837936 0.252140
H29   H     H_    0.012934 0.206037 0.853332 0.242586
H30   H     H_    0.130928 0.353702 0.761624 0.224333
H31   H     H_    0.004397 0.298773 0.704182 0.227385
H32   H     H_    0.058014 0.238370 0.604119 0.189919
H33   H     H_    0.138238 0.202321 0.683423 0.159510
C66   C     C_3   0.840094 0.659778 0.288145 -0.359557
C67   C     C_3   0.947033 0.745450 0.295299 -0.280198
C68   C     C_3   0.970696 0.815841 0.207751 -0.923956
H34   H     H_    0.965567 0.770981 0.157891 0.252185
H35   H     H_    0.917077 0.854486 0.184328 0.251453
H36   H     H_    0.048643 0.875561 0.215957 0.252666
H37   H     H_    0.955614 0.793128 0.344261 0.215047
H38   H     H_    0.004188 0.711409 0.315070 0.236155
H39   H     H_    0.835405 0.592078 0.265016 0.198087
H40   H     H_    0.794269 0.687526 0.230621 0.164373
C69   C     C_R   0.945472 0.288140 0.080027 0.108239
C70   C     C_R   0.914468 0.215960 0.023363 -0.128949
C71   C     C_R   0.886028 0.111411 0.056748 -0.136104
C72   C     C_R   0.888426 0.077862 0.147031 -0.109682
C73   C     C_R   0.920105 0.148911 0.204017 -0.137215
C74   C     C_R   0.948775 0.253595 0.170870 -0.172486
H41   H     H_    0.911515 0.240647 0.953144 0.123288
H42   H     H_    0.861784 0.056385 0.012573 0.127405
H43   H     H_    0.865726 0.996888 0.172884 0.116092
H44   H     H_    0.922468 0.122852 0.274035 0.127904
H45   H     H_    0.973788 0.306291 0.216754 0.143619
C75   C     C_R   0.050871 0.708427 0.920822 0.106116
C76   C     C_R   0.081935 0.780120 0.977970 -0.131725
C77   C     C_R   0.106693 0.884351 0.944976 -0.133357
C78   C     C_R   0.100599 0.918125 0.854608 -0.114529
C79   C     C_R   0.069454 0.847601 0.797191 -0.139115
C80   C     C_R   0.044436 0.743206 0.829948 -0.170437
H46   H     H_    0.087059 0.755235 0.048239 0.126634
H47   H     H_    0.130539 0.938921 0.989510 0.128115
H48   H     H_    0.119744 0.998841 0.829053 0.120127
H49   H     H_    0.064254 0.873783 0.727128 0.127587
H50   H     H_    0.019098 0.690765 0.783780 0.145044
C81   C     C_3   0.860304 0.574087 0.031319 -0.394265
C82   C     C_3   0.798831 0.606930 0.947709 -0.328047
C83   C     C_3   0.727968 0.647252 0.969408 -0.856738
H51   H     H_    0.673955 0.586520 0.012313 0.253634
H52   H     H_    0.772026 0.715048 0.003121 0.252948
H53   H     H_    0.684372 0.670613 0.907976 0.244489
H54   H     H_    0.850099 0.668390 0.903257 0.231892
H55   H     H_    0.752894 0.540834 0.912514 0.231682
H56   H     H_    0.808130 0.513035 0.075458 0.194568
H57   H     H_    0.904598 0.640433 0.066496 0.194806
C84   C     C_3   0.136863 0.422377 0.968265 -0.392796
C85   C     C_3   0.196926 0.386964 0.051583 -0.331388
C86   C     C_3   0.266909 0.346063 0.029149 -0.851336
H58   H     H_    0.222250 0.279297 0.994294 0.254799
H59   H     H_    0.321738 0.407032 0.987056 0.255628
H60   H     H_    0.309613 0.320956 0.090369 0.241978
H61   H     H_    0.243397 0.451910 0.087956 0.232008
H62   H     H_    0.144738 0.325147 0.095128 0.231160
H63   H     H_    0.092517 0.357326 0.931526 0.199996
H64   H     H_    0.190020 0.484348 0.925386 0.198282
C87   C     C_3   0.458929 0.763896 0.589312 -0.379671
C88   C     C_3   0.422527 0.767336 0.671890 -0.336000
C89   C     C_3   0.371862 0.659346 0.721784 -0.835305
H65   H     H_    0.304322 0.612971 0.680120 0.277799
H66   H     H_    0.425518 0.620455 0.741747 0.252808
H67   H     H_    0.347299 0.664043 0.781565 0.231291
H68   H     H_    0.488215 0.813152 0.715481 0.214966
H69   H     H_    0.367325 0.804098 0.654876 0.231458
H70   H     H_    0.398255 0.709480 0.549668 0.190802
H71   H     H_    0.514550 0.727301 0.612248 0.197744
C90   C     C_3   0.541010 0.239329 0.424089 -0.380979
C91   C     C_3   0.578190 0.239989 0.340394 -0.326656
C92   C     C_3   0.630466 0.349526 0.294005 -0.849067
H72   H     H_    0.577889 0.389644 0.276161 0.250284
H73   H     H_    0.698148 0.393035 0.337144 0.280026
H74   H     H_    0.655097 0.347650 0.233205 0.231434
H75   H     H_    0.632370 0.202186 0.355310 0.231291
H76   H     H_    0.512587 0.196997 0.295112 0.213445
H77   H     H_    0.485525 0.276160 0.402359 0.191492
H78   H     H_    0.600635 0.292289 0.465803 0.191144

loop_
_geom_bond_atom_site_label_1
_geom_bond_atom_site_label_2
_ccdc_geom_bond_type
C16   C90   S    
C38   C40   S    
C80   H50   S    
C89   H65   S    
C91   H76   S    
C86   H59   S    
C64   C65   S    
C24   C42   S    
C88   H69   S    
C66   C67   S    
Cu1   O4    S    
C20   H4    S    
C83   H51   S    
C57   C58   A    
C71   C72   A    
C92   H73   S    
C20   C30   A    
C90   C91   S    
C40   C46   S    
C1    O1    A    
C22   C63   S    
C61   H25   S    
C15   C87   S    
C88   C89   S    
C19   C21   A    
Cu1   O5    S    
C51   C56   A    
C52   C53   A    
C27   C29   A    
C63   H32   S    
C54   H19   S    
C66   H39   S    
C70   H41   S    
C9    C13   A    
C91   C92   S    
C38   C45   S    
C82   H55   S    
Cu2   N1    S    
C2    C50   S    
C21   C66   S    
C58   H22   S    
C73   H44   S    
C40   C43   S    
C55   C56   A    
C75   C76   A    
C64   H31   S    
Cu1   N2    S    
C35   H15   S    
C4    C12   A    
C87   H70   S    
C53   H18   S    
C2    O4    A    
C8    H9    S    
C39   C45   S    
C68   H36   S    
C81   H56   S    
C55   H20   S    
C90   H77   S    
C76   H46   S    
C89   H66   S    
C13   C14   A    
C86   H60   S    
C5    C49   A    
C88   H68   S    
C3    H13   S    
Cu1   O1    S    
C2    O2    A    
C67   C68   S    
C83   H52   S    
C44   C46   S    
C59   H23   S    
C53   C54   A    
C92   H74   S    
C38   C44   S    
C45   C47   S    
C78   H48   S    
C46   C48   S    
C69   C70   A    
C27   C31   A    
Cu1   Cu2   S    
C63   C64   S    
C78   C79   A    
C25   H2    S    
C7    C49   A    
C4    C6    A    
Cu2   O3    S    
C10   C14   A    
C77   H47   S    
C62   H26   S    
C24   O6    A    
C3    C5    A    
C63   H33   S    
C23   O7    A    
C5    H12   S    
C21   N1    A    
C66   H40   S    
C38   C75   S    
C6    H11   S    
C37   C43   S    
C7    H10   S    
C85   H62   S    
C52   H17   S    
Cu2   O2    S    
C43   C45   S    
C31   C32   A    
C28   C32   A    
C73   C74   A    
C41   C47   T    
C31   C34   A    
C64   H30   S    
C65   H28   S    
C60   C61   A    
C42   C48   T    
C6    C50   A    
C87   H71   S    
C9    C11   A    
C85   C86   S    
C77   C78   A    
C10   C12   A    
C17   H7    S    
C37   C69   S    
C18   H8    S    
C81   H57   S    
C20   C22   A    
C90   H78   S    
C89   H67   S    
C76   C77   A    
C26   N2    A    
C25   N1    A    
C56   H21   S    
C12   C18   A    
Cu2   O7    S    
C19   C29   A    
C26   H1    S    
C8    C50   A    
C58   C59   A    
C83   H53   S    
C68   H34   S    
C24   O8    A    
C7    C9    A    
C11   C17   A    
C33   H5    S    
C82   H54   S    
C16   C18   A    
C23   O5    A    
C82   C83   S    
Cu2   O6    S    
C57   C62   A    
C36   H16   S    
C15   C17   A    
C39   C44   S    
C19   H3    S    
C25   C27   A    
C29   C35   A    
C26   C28   A    
C23   C41   S    
C30   C36   A    
C84   H64   S    
C1    O3    A    
C32   C33   A    
C28   C30   A    
C70   C71   A    
Cu1   O8    S    
C85   H61   S    
C37   C39   S    
C92   H72   S    
C67   H38   S    
C71   H42   S    
C67   H37   S    
C68   H35   S    
C74   H45   S    
C44   C81   S    
C60   H24   S    
C59   C60   A    
C33   C35   A    
C79   H49   S    
C72   H43   S    
C65   H29   S    
C34   C36   A    
C61   C62   A    
C87   C88   S    
C3    C11   A    
C51   C52   A    
C69   C74   A    
C65   H27   S    
C4    H14   S    
C8    C10   A    
C54   C55   A    
C13   C16   A    
C84   H63   S    
C86   H58   S    
C34   H6    S    
C14   C15   A    
C79   C80   A    
C75   C80   A    
C40   C57   S    
C37   C46   S    
C43   C84   S    
C1    C49   S    
C91   H75   S    
C22   N2    A    
C81   C82   S    
C39   C51   S    
C72   C73   A    
C84   C85   S    
