data_mof_unit_3848.cif
_audit_creation_date              2012-12-11T16:22:24-0500
_audit_creation_method            fapswitch 2.2
_symmetry_space_group_name_H-M    P1
_symmetry_Int_Tables_number       1
_space_group_crystal_system       triclinic
_cell_length_a                    19.614701
_cell_length_b                    6.931593
_cell_length_c                    17.756332
_cell_angle_alpha                 89.877917
_cell_angle_beta                  107.852159
_cell_angle_gamma                 90.162155
_cell_volume                      2297.91901965

loop_
_atom_site_label
_atom_site_type_symbol
_atom_type_description
_atom_site_fract_x
_atom_site_fract_y
_atom_site_fract_z
_atom_type_partial_charge
O1    O     O_R   0.561700 0.369960 0.440190 -0.539180
O2    O     O_R   0.061700 0.630040 0.940190 -0.536243
O3    O     O_R   0.413790 0.033680 0.407460 -0.537881
O4    O     O_R   0.913790 0.966320 0.907460 -0.538513
O5    O     O_R   0.438300 0.869760 0.559810 -0.541039
O6    O     O_R   0.938300 0.130240 0.059810 -0.536900
C1    C     C_R   0.385666 0.203030 0.386755 0.747318
C2    C     C_R   0.885790 0.796786 0.886538 0.743646
O7    O     O_R   0.559630 0.039830 0.430710 -0.543393
O8    O     O_R   0.059630 0.960170 0.930710 -0.540187
O9    O     O_R   0.585190 0.875950 0.583220 -0.547407
O10   O     O_R   0.085190 0.124050 0.083220 -0.547663
C3    C     C_R   0.581122 0.209207 0.415439 0.701052
C4    C     C_R   0.081025 0.791523 0.915719 0.698977
O11   O     O_R   0.414810 0.363770 0.416780 -0.542644
O12   O     O_R   0.914810 0.636230 0.916780 -0.542441
O13   O     O_3   0.508210 0.205480 0.550010 -0.370988
O14   O     O_3   0.008210 0.794520 0.050010 -0.373129
V1    V     V_3+5 0.498480 0.928140 0.490720 1.396518
V2    V     V_3+5 0.998480 0.071860 0.990720 1.405014
O15   O     O_R   0.586210 0.546600 0.592540 -0.537413
O16   O     O_R   0.086210 0.453400 0.092540 -0.538769
C5    C     C_R   0.614985 0.715056 0.613103 0.723398
C6    C     C_R   0.114877 0.285078 0.113288 0.719268
O17   O     O_R   0.440370 0.540460 0.569290 -0.538460
O18   O     O_R   0.940370 0.459540 0.069290 -0.542051
C7    C     C_R   0.416892 0.707989 0.582388 0.711854
C8    C     C_R   0.920509 0.290163 0.086168 0.712162
V3    V     V_3+5 0.501520 0.428910 0.509280 1.395860
V4    V     V_3+5 0.001520 0.571090 0.009280 1.404152
O19   O     O_3   0.491790 0.701440 0.449990 -0.370035
O20   O     O_3   0.991790 0.298560 0.949990 -0.367885
C9    C     C_R   0.319035 0.888172 0.722374 -0.199037
C10   C     C_R   0.765818 0.374496 0.166460 -0.195504
H1    H     H_    0.322332 0.012702 0.760112 0.135220
H2    H     H_    0.716839 0.458070 0.149397 0.136313
C11   C     C_R   0.366080 0.874490 0.677550 -0.214962
C12   C     C_R   0.812338 0.388459 0.121027 -0.211821
H3    H     H_    0.404828 0.989043 0.682164 0.138215
H4    H     H_    0.798302 0.482428 0.069740 0.126773
C13   C     C_R   0.364486 0.714919 0.628461 -0.096960
C14   C     C_R   0.874948 0.277935 0.139289 -0.085887
C15   C     C_R   0.312043 0.567737 0.622922 0.142064
C16   C     C_R   0.893202 0.157818 0.207589 0.145129
C17   C     C_R   0.264402 0.581467 0.669590 0.195141
C18   C     C_R   0.846541 0.147851 0.255513 0.196788
C19   C     C_R   0.268510 0.743336 0.719582 0.045783
C20   C     C_R   0.781080 0.252380 0.232463 0.053350
C21   C     C_R   0.238050 0.668770 0.842822 -0.182114
C22   C     C_R   0.719393 0.396209 0.322643 -0.192086
H5    H     H_    0.286921 0.585279 0.862864 0.128289
H6    H     H_    0.751113 0.525641 0.325252 0.131104
C23   C     C_R   0.192342 0.675159 0.889794 -0.171424
C24   C     C_R   0.671227 0.387529 0.366600 -0.169558
H7    H     H_    0.206945 0.597971 0.945566 0.115786
H8    H     H_    0.666907 0.511132 0.402063 0.131123
C25   C     C_R   0.128930 0.782847 0.865676 -0.076103
C26   C     C_R   0.630493 0.220115 0.366340 -0.092342
C27   C     C_R   0.111128 0.880896 0.793053 -0.171291
C28   C     C_R   0.637765 0.063163 0.319269 -0.169285
H9    H     H_    0.061509 0.961596 0.773507 0.118054
H10   H     H_    0.605901 0.934314 0.317483 0.126587
C29   C     C_R   0.155287 0.869912 0.743860 0.198431
C30   C     C_R   0.685082 0.071730 0.273490 0.192703
C31   C     C_R   0.220314 0.764992 0.769629 0.085563
C32   C     C_R   0.727623 0.238908 0.276599 0.085439
C33   C     C_2   0.713047 0.886802 0.712288 -0.135884
C34   C     C_2   0.212510 0.113450 0.212863 -0.136394
C35   C     C_2   0.687633 0.720870 0.672343 0.013510
C36   C     C_2   0.187347 0.279559 0.172872 0.015431
H11   H     H_    0.680012 0.015465 0.698890 0.116812
H12   H     H_    0.179343 0.984651 0.199356 0.117721
C37   C     C_2   0.784786 0.913544 0.772368 -0.143780
C38   C     C_2   0.284262 0.086488 0.272853 -0.142068
C39   C     C_2   0.815286 0.777659 0.825954 -0.316792
C40   C     C_2   0.314974 0.221869 0.326523 -0.315391
H13   H     H_    0.810617 0.053293 0.775189 0.137596
H14   H     H_    0.310005 0.947075 0.275405 0.137247
H15   H     H_    0.787165 0.643205 0.826553 0.150134
H16   H     H_    0.286917 0.355822 0.327427 0.149506
C41   C     C_3   0.733773 0.543020 0.678204 -0.766237
H17   H     H_    0.718245 0.463410 0.621203 0.197409
H18   H     H_    0.791130 0.581059 0.690371 0.221829
H19   H     H_    0.726581 0.444291 0.724485 0.198083
C42   C     C_3   0.233617 0.457952 0.179103 -0.767376
H20   H     H_    0.218019 0.539107 0.122380 0.194727
H21   H     H_    0.226689 0.555203 0.225777 0.198872
H22   H     H_    0.290905 0.420322 0.190939 0.221431
C43   C     C_3   0.306282 0.400577 0.565997 -0.750433
H23   H     H_    0.257318 0.312184 0.555914 0.205247
H24   H     H_    0.305095 0.456093 0.506890 0.190439
H25   H     H_    0.352564 0.302205 0.589120 0.216372
C44   C     C_3   0.963022 0.046024 0.228793 -0.765150
H26   H     H_    0.977557 0.975354 0.287421 0.208745
H27   H     H_    0.959349 0.930747 0.184467 0.224279
H28   H     H_    0.007900 0.144855 0.229526 0.184160
C45   C     C_3   0.209907 0.423731 0.665949 -0.815403
H29   H     H_    0.170653 0.418048 0.605762 0.212867
H30   H     H_    0.237783 0.283137 0.680717 0.219625
H31   H     H_    0.178689 0.443965 0.707735 0.218612
C46   C     C_3   0.867522 0.030232 0.331226 -0.815163
H32   H     H_    0.873940 0.876358 0.317541 0.211397
H33   H     H_    0.918585 0.086312 0.371972 0.212653
H34   H     H_    0.827874 0.036221 0.364088 0.216086
C47   C     C_3   0.129304 0.964144 0.663657 -0.820312
H35   H     H_    0.080145 0.889265 0.627331 0.213394
H36   H     H_    0.115836 0.117123 0.670361 0.215082
H37   H     H_    0.169343 0.960015 0.631167 0.220845
C48   C     C_3   0.688463 0.904238 0.220734 -0.816728
H38   H     H_    0.649478 0.789274 0.222721 0.205934
H39   H     H_    0.675872 0.954723 0.158596 0.215411
H40   H     H_    0.742652 0.839416 0.239480 0.219177

loop_
_geom_bond_atom_site_label_1
_geom_bond_atom_site_label_2
_ccdc_geom_bond_type
V4    O20   S    
C29   C31   A    
C44   H26   S    
C37   C39   D    
C5    C35   S    
O4    C2    A    
V1    O19   S    
C41   H19   S    
C45   H29   S    
C6    C36   S    
C42   H20   S    
C47   H36   S    
O9    V1    S    
C22   C24   A    
C21   C31   A    
C12   C14   A    
O3    C1    A    
C48   H39   S    
V2    O20   S    
C9    H1    S    
C25   C27   A    
C34   C38   S    
O13   V3    S    
C28   H10   S    
C2    O12   A    
O9    C5    A    
O7    C3    A    
C16   C44   S    
C45   H30   S    
O5    C7    A    
O7    V1    S    
O6    C8    A    
O8    V2    S    
C21   H5    S    
C22   H6    S    
O3    V1    S    
C33   C37   S    
C29   C47   S    
C33   H11   S    
C17   C19   A    
C46   H33   S    
V3    O19   S    
C13   C15   A    
C14   C16   A    
C47   H37   S    
C16   C18   A    
O11   V3    S    
C26   C28   A    
C18   C20   A    
C23   H7    S    
O17   V3    S    
C18   C46   S    
C24   H8    S    
C27   H9    S    
C42   H21   S    
C46   H32   S    
O8    C4    A    
C48   H40   S    
C23   C25   A    
C3    C26   S    
O15   V3    S    
C2    C39   S    
C41   H17   S    
C33   C35   D    
C30   C32   A    
C15   C17   A    
C7    C13   S    
C34   H12   S    
O10   V2    S    
O1    V3    S    
C15   C43   S    
C43   H25   S    
C22   C32   A    
C38   C40   D    
O14   V4    S    
O18   V4    S    
C44   H28   S    
O15   C5    A    
O17   C7    A    
C9    C19   A    
O16   C6    A    
O1    C3    A    
C45   H31   S    
C24   C26   A    
C42   H22   S    
C4    C25   S    
O16   V4    S    
C10   C12   A    
O18   C8    A    
C40   H16   S    
C41   H18   S    
C1    C40   S    
O5    V1    S    
C46   H34   S    
O6    V2    S    
C47   H35   S    
O10   C6    A    
C27   C29   A    
C28   C30   A    
O2    V4    S    
C11   H3    S    
C17   C45   S    
C48   H38   S    
C12   H4    S    
C30   C48   S    
C44   H27   S    
C39   H15   S    
C21   C23   A    
C1    O11   A    
C8    C14   S    
O13   V1    S    
C10   H2    S    
O14   V2    S    
C11   C13   A    
O2    C4    A    
C9    C11   A    
C35   C41   S    
O4    V2    S    
C10   C20   A    
C34   C36   D    
C43   H24   S    
C38   H14   S    
C37   H13   S    
C20   C32   S    
C43   H23   S    
C36   C42   S    
O12   V4    S    
C19   C31   S    
