data_mof_unit_4094.cif
_audit_creation_date              2012-12-10T19:33:09-0500
_audit_creation_method            fapswitch 2.2
_symmetry_space_group_name_H-M    P1
_symmetry_Int_Tables_number       1
_space_group_crystal_system       triclinic
_cell_length_a                    8.721569
_cell_length_b                    15.797798
_cell_length_c                    17.069249
_cell_angle_alpha                 96.38264
_cell_angle_beta                  90.851755
_cell_angle_gamma                 84.482776
_cell_volume                      2326.40229828

loop_
_atom_site_label
_atom_site_type_symbol
_atom_type_description
_atom_site_fract_x
_atom_site_fract_y
_atom_site_fract_z
_atom_type_partial_charge
C1    C     C_R   0.499896 0.489536 0.348564 0.849927
C2    C     C_R   0.502684 0.510219 0.651475 0.850931
C3    C     C_R   0.429148 0.756820 0.459938 0.043849
C4    C     C_R   0.569976 0.243267 0.540468 0.045608
C5    C     C_R   0.433178 0.845887 0.462285 -0.277930
C6    C     C_R   0.566073 0.154187 0.538039 -0.278976
C7    C     C_R   0.530917 0.888954 0.516520 0.384429
C8    C     C_R   0.469403 0.111014 0.483293 0.385528
C9    C     C_R   0.621667 0.839746 0.566634 -0.314140
C10   C     C_R   0.379563 0.160135 0.432758 -0.316312
C11   C     C_R   0.614107 0.750842 0.562322 0.049888
C12   C     C_R   0.386972 0.249055 0.437159 0.049906
C13   C     C_R   0.205398 0.521910 0.500891 0.886682
C14   C     C_R   0.794600 0.478083 0.498998 0.880579
C15   C     C_2   0.040476 0.533968 0.501409 -0.370841
C16   C     C_2   0.959515 0.466017 0.498334 -0.371422
C17   C     C_R   0.507285 0.482804 0.262596 -0.151001
C18   C     C_R   0.512250 0.515097 0.737481 -0.152339
C19   C     C_R   0.578784 0.543488 0.226240 -0.308130
C20   C     C_R   0.563042 0.441896 0.773295 -0.321031
C21   C     C_R   0.593130 0.536017 0.144623 0.407748
C22   C     C_R   0.577184 0.445613 0.855119 0.394487
C23   C     C_R   0.523612 0.469706 0.097846 0.181700
C24   C     C_R   0.529451 0.523151 0.902396 0.168382
C25   C     C_R   0.457082 0.406728 0.134201 0.377121
C26   C     C_R   0.484859 0.597243 0.866073 0.369329
C27   C     C_R   0.447511 0.414386 0.216819 -0.347391
C28   C     C_R   0.475067 0.592882 0.784034 -0.313964
Cu1   Cu    Cu3+1 0.492520 0.415770 0.496210 0.936524
Cu2   Cu    Cu3+1 0.507480 0.584230 0.503790 0.935279
H1    H     H_    0.985534 0.599005 0.504406 0.174780
H2    H     H_    0.014455 0.400978 0.495320 0.175104
H3    H     H_    0.595370 0.381764 0.737800 0.175903
H4    H     H_    0.628224 0.595644 0.261336 0.185749
H5    H     H_    0.389599 0.368645 0.245404 0.163040
H6    H     H_    0.436191 0.650125 0.757045 0.183789
H7    H     H_    0.644728 0.275700 0.582468 0.124725
H8    H     H_    0.353612 0.724462 0.418318 0.133263
H9    H     H_    0.638108 0.119930 0.578580 0.153954
H10   H     H_    0.360370 0.880219 0.422101 0.155596
H11   H     H_    0.698224 0.870228 0.609081 0.143090
H12   H     H_    0.303851 0.129572 0.389907 0.142030
H13   H     H_    0.684806 0.713879 0.601360 0.127676
H14   H     H_    0.317031 0.285944 0.397767 0.122689
N1    N     N_2   0.522017 0.462034 0.014317 -0.143805
N2    N     N_2   0.528501 0.530823 0.985966 -0.174922
N3    N     N_R   0.518730 0.710760 0.509500 -0.168803
N4    N     N_R   0.481270 0.289240 0.490500 -0.166515
N5    N     N_2   0.542060 0.979829 0.523077 -0.244662
N6    N     N_2   0.458302 0.020134 0.476705 -0.244422
O1    O     O_R   0.493000 0.421040 0.382520 -0.590164
O2    O     O_R   0.507000 0.578960 0.617480 -0.592428
O3    O     O_R   0.505640 0.563310 0.388930 -0.592208
O4    O     O_R   0.494360 0.436690 0.611070 -0.589274
O5    O     O_R   0.269980 0.445280 0.497530 -0.580254
O6    O     O_R   0.730020 0.554720 0.502470 -0.581994
O7    O     O_R   0.282610 0.587550 0.503940 -0.590623
O8    O     O_R   0.717390 0.412450 0.496060 -0.591946
O9    O     O_3   0.632912 0.372599 0.888172 -0.559716
C29   C     C_3   0.795638 0.365541 0.885797 0.080994
H15   H     H_    0.841773 0.421881 0.920125 0.125004
H16   H     H_    0.836912 0.360987 0.823850 0.094248
C30   C     C_3   0.860497 0.283932 0.920039 -0.324865
H17   H     H_    0.806325 0.228281 0.889684 0.217167
H18   H     H_    0.986586 0.273432 0.909103 0.173878
C31   C     C_3   0.832897 0.289069 0.008610 -0.790341
H19   H     H_    0.896153 0.340231 0.040423 0.229705
H20   H     H_    0.875155 0.227208 0.030150 0.224070
H21   H     H_    0.708243 0.302258 0.021705 0.285934
O10   O     O_3   0.669973 0.596249 0.111874 -0.590662
C32   C     C_3   0.819271 0.560331 0.087833 0.072111
H22   H     H_    0.854077 0.594645 0.038559 0.157521
H23   H     H_    0.823307 0.491499 0.064236 0.127688
C33   C     C_3   0.935692 0.572641 0.155346 -0.399885
H24   H     H_    0.931713 0.641663 0.177588 0.234167
H25   H     H_    0.905510 0.536805 0.204480 0.213645
C34   C     C_3   0.099117 0.540585 0.128249 -0.854448
H26   H     H_    0.106255 0.471207 0.107188 0.271294
H27   H     H_    0.180507 0.550463 0.178345 0.257852
H28   H     H_    0.133962 0.576287 0.079946 0.265758
O11   O     O_3   0.388934 0.343426 0.086627 -0.588903
C35   C     C_3   0.432063 0.261432 0.110249 0.048557
H29   H     H_    0.355807 0.249551 0.158711 0.142644
H30   H     H_    0.554744 0.254403 0.130131 0.133664
C36   C     C_3   0.411972 0.194203 0.040183 -0.299462
H31   H     H_    0.289426 0.198730 0.020850 0.222863
H32   H     H_    0.483979 0.206741 0.990293 0.239342
C37   C     C_3   0.458861 0.103939 0.061373 -0.949792
H33   H     H_    0.582212 0.097375 0.078971 0.258201
H34   H     H_    0.442025 0.056797 0.009410 0.261738
H35   H     H_    0.387094 0.089523 0.110555 0.258257
O12   O     O_3   0.439228 0.673224 0.911380 -0.588246
C38   C     C_3   0.568571 0.720210 0.925083 0.074863
H36   H     H_    0.607159 0.740879 0.868830 0.128164
H37   H     H_    0.665690 0.681399 0.951390 0.148075
C39   C     C_3   0.523875 0.799511 0.982784 -0.290668
H38   H     H_    0.428170 0.839573 0.957265 0.214570
H39   H     H_    0.483326 0.779417 0.038715 0.243184
C40   C     C_3   0.659854 0.852680 0.000657 -0.932451
H40   H     H_    0.756036 0.814238 0.027472 0.265046
H41   H     H_    0.623610 0.909513 0.042839 0.261564
H42   H     H_    0.700536 0.874901 0.945765 0.253884

loop_
_geom_bond_atom_site_label_1
_geom_bond_atom_site_label_2
_ccdc_geom_bond_type
C31   H20   S    
C30   H18   S    
C38   H36   S    
C23   N1    S    
C10   H12   S    
C14   O6    A    
C12   N4    A    
O11   C35   S    
C34   H26   S    
C33   H25   S    
C29   C30   S    
C19   C21   A    
C24   C26   A    
Cu1   O1    S    
C36   C37   S    
C31   H21   S    
C2    C18   S    
Cu1   O4    S    
C26   O12   S    
C15   C16   D    
C39   C40   S    
C29   H16   S    
C1    O3    A    
C11   N3    A    
C3    H8    S    
C33   C34   S    
C39   H39   S    
C11   H13   S    
O10   C32   S    
C18   C20   A    
C37   H33   S    
C36   H32   S    
C31   H19   S    
C30   C31   S    
O9    C29   S    
C38   H37   S    
C25   O11   S    
C10   C12   A    
C34   H27   S    
C14   O8    A    
Cu2   O3    S    
C33   H24   S    
Cu1   N4    S    
C17   C27   A    
Cu2   N3    S    
C18   C28   A    
C7    N5    S    
C4    C6    A    
C2    O4    A    
C22   O9    S    
C32   H23   S    
C6    C8    A    
Cu1   O5    S    
C27   H5    S    
C36   H31   S    
Cu2   O6    S    
C29   H15   S    
Cu1   Cu2   S    
C9    C11   A    
C40   H40   S    
C37   H35   S    
C39   H38   S    
Cu1   O8    S    
C1    O1    A    
C2    O2    A    
C20   H3    S    
C40   H41   S    
C37   H34   S    
C35   H29   S    
C38   C39   S    
C35   H30   S    
C13   C15   S    
C14   C16   S    
C16   H2    S    
C8    N6    S    
C5    C7    A    
C4    N4    A    
C34   H28   S    
C7    C9    A    
Cu2   O2    S    
C1    C17   S    
C20   C22   A    
C3    C5    A    
C19   H4    S    
C32   C33   S    
C15   H1    S    
C9    H11   S    
C25   C27   A    
C35   C36   S    
C26   C28   A    
C21   O10   S    
C24   N2    S    
C21   C23   A    
C32   H22   S    
C12   H14   S    
C3    N3    A    
O12   C38   S    
C17   C19   A    
C22   C24   A    
Cu2   O7    S    
C23   C25   A    
C30   H17   S    
N1    N2    D    
C40   H42   S    
C13   O7    A    
C4    H7    S    
C28   H6    S    
C8    C10   A    
N5    N6    D    
C5    H10   S    
C6    H9    S    
C13   O5    A    
