data_mof_unit_1252.cif
_audit_creation_date              2012-12-10T16:38:34-0500
_audit_creation_method            fapswitch 2.2
_symmetry_space_group_name_H-M    P1
_symmetry_Int_Tables_number       1
_space_group_crystal_system       triclinic
_cell_length_a                    10.861999
_cell_length_b                    10.919975
_cell_length_c                    17.81135
_cell_angle_alpha                 98.416556
_cell_angle_beta                  72.520558
_cell_angle_gamma                 99.092965
_cell_volume                      1978.77708906

loop_
_atom_site_label
_atom_site_type_symbol
_atom_type_description
_atom_site_fract_x
_atom_site_fract_y
_atom_site_fract_z
_atom_type_partial_charge
C1    C     C_R   0.157214 0.478822 0.518217 0.855953
C2    C     C_R   0.538286 0.356160 0.928720 -0.071119
C3    C     C_R   0.610017 0.297370 0.964537 -0.081301
C4    C     C_R   0.843738 0.521031 0.481678 0.840185
C5    C     C_R   0.620367 0.345641 0.040556 0.052130
C6    C     C_R   0.561317 0.453890 0.079342 0.103415
C7    C     C_R   0.676594 0.280367 0.082445 -0.165217
C8    C     C_R   0.663263 0.313580 0.162587 -0.174227
C9    C     C_R   0.540326 0.478643 0.161685 -0.255549
C10   C     C_2   0.983624 0.529420 0.471627 -0.072543
C11   C     C_2   0.022234 0.474734 0.522308 -0.319945
C12   C     C_R   0.315273 0.665406 0.843626 -0.275979
C13   C     C_2   0.550575 0.970038 0.480363 -0.108608
C14   C     C_2   0.451010 0.037094 0.521213 -0.172400
C15   C     C_R   0.466468 0.169188 0.517867 0.766447
C16   C     C_R   0.532421 0.833945 0.483180 0.896349
C17   C     C_R   0.564424 0.436468 0.287855 0.783941
C18   C     C_R   0.436752 0.563813 0.712357 0.802817
C19   C     C_R   0.410374 0.590385 0.798873 -0.018926
C20   C     C_R   0.591801 0.410373 0.202524 0.009845
C21   C     C_R   0.295558 0.693174 0.925490 0.038954
C22   C     C_2   0.364522 0.830909 0.066777 0.462427
C23   C     C_R   0.477477 0.534618 0.837573 -0.254710
C24   C     C_3   0.078484 0.597567 0.404373 -0.396562
C25   C     C_3   0.069928 0.738437 0.419448 -0.295342
C26   C     C_3   0.180032 0.809758 0.360569 -0.829325
C27   C     C_3   0.680968 0.040055 0.435495 -0.444393
C28   C     C_3   0.795067 0.964241 0.393966 -0.311599
C29   C     C_3   0.918436 0.049229 0.358012 -0.890373
C30   C     C_2   0.314863 0.985796 0.559014 0.453218
C31   C     C_2   0.662731 0.178355 0.927071 0.515001
C32   C     C_2   0.181677 0.758919 0.969921 0.424643
C33   C     C_3   0.567178 0.739675 0.112616 -0.392006
C34   C     C_R   0.449803 0.550149 0.920311 0.021437
C35   C     C_3   0.491140 0.793360 0.195830 -0.405525
C36   C     C_3   0.574829 0.818337 0.252936 -0.838934
C37   C     C_2   0.488497 0.284657 0.863677 0.472589
C38   C     C_R   0.376923 0.647668 0.962361 0.114944
C39   C     C_R   0.501228 0.477465 0.961099 -0.062115
C40   C     C_R   0.514287 0.527817 0.036887 0.027670
C41   C     C_R   0.483825 0.652288 0.066177 -0.011226
C42   C     C_R   0.401675 0.704913 0.034041 -0.034873
H1    H     H_    0.725983 0.199639 0.055033 0.129343
H2    H     H_    0.171847 0.911208 0.373650 0.266118
H3    H     H_    0.976189 0.758547 0.413995 0.225707
H4    H     H_    0.074290 0.772613 0.480494 0.271726
H5    H     H_    0.180351 0.581170 0.395744 0.203679
H6    H     H_    0.055323 0.560214 0.348037 0.203743
H7    H     H_    0.901967 0.103553 0.314552 0.262592
H8    H     H_    0.948592 0.114544 0.405063 0.270107
H9    H     H_    0.998238 0.991817 0.326944 0.261331
H10   H     H_    0.815205 0.912376 0.437362 0.233262
H11   H     H_    0.771689 0.898101 0.345140 0.255046
H12   H     H_    0.952630 0.427156 0.569896 0.152409
H13   H     H_    0.662616 0.089323 0.390191 0.202160
H14   H     H_    0.714556 0.111660 0.478570 0.235398
H15   H     H_    0.262277 0.029169 0.616023 0.038182
H16   H     H_    0.765264 0.171390 0.916353 0.018232
H17   H     H_    0.145678 0.819973 0.940546 0.071851
H18   H     H_    0.604721 0.730114 0.261585 0.278867
H19   H     H_    0.662958 0.883919 0.229510 0.262170
H20   H     H_    0.518565 0.860763 0.311190 0.249726
H21   H     H_    0.460481 0.884044 0.192276 0.228953
H22   H     H_    0.402208 0.729917 0.220738 0.216308
H23   H     H_    0.478032 0.546565 0.195665 0.153652
H24   H     H_    0.649006 0.693385 0.116011 0.228324
H25   H     H_    0.616396 0.819037 0.077619 0.211094
H26   H     H_    0.388507 0.287069 0.864641 0.057651
H27   H     H_    0.703477 0.260057 0.194210 0.126276
H28   H     H_    0.255767 0.701761 0.814938 0.157947
H29   H     H_    0.555092 0.481733 0.802389 0.189268
H30   H     H_    0.306563 0.846977 0.127736 0.062552
H31   H     H_    0.275642 0.793574 0.365372 0.273211
H32   H     H_    0.174445 0.779469 0.299245 0.240832
O1    O     O_3   0.500000 0.500000 0.500000 -0.487933
O2    O     O_R   0.470800 0.371790 0.332500 -0.631729
O3    O     O_R   0.380610 0.619380 0.674980 -0.647212
O4    O     O_R   0.632640 0.524780 0.317540 -0.647932
O5    O     O_R   0.515950 0.484050 0.674980 -0.635131
O6    O     O_2   0.398267 0.917164 0.025624 -0.532561
O7    O     O_2   0.257407 0.902603 0.524263 -0.577677
O8    O     O_2   0.591278 0.086258 0.911593 -0.483304
O9    O     O_2   0.122385 0.740006 0.038032 -0.596068
O10   O     O_2   0.559681 0.228771 0.806915 -0.541355
O11   O     O_R   0.535460 0.243030 0.556410 -0.629571
O12   O     O_R   0.437420 0.784080 0.535340 -0.603523
O13   O     O_R   0.223560 0.397520 0.472140 -0.641886
O14   O     O_R   0.803560 0.575360 0.436110 -0.658294
O15   O     O_R   0.209690 0.568800 0.556400 -0.613961
O16   O     O_R   0.763190 0.458310 0.535350 -0.640867
O17   O     O_R   0.414000 0.207090 0.472140 -0.635362
O18   O     O_R   0.613120 0.765800 0.436110 -0.677117
Zn1   Zn    Zn3+2 0.577310 0.422690 0.565550 0.977204
Zn2   Zn    Zn3+2 0.403760 0.371330 0.445150 0.968531
Zn3   Zn    Zn3+2 0.634990 0.589920 0.423760 0.939268
Zn4   Zn    Zn3+2 0.383940 0.616050 0.565540 0.999600

loop_
_geom_bond_atom_site_label_1
_geom_bond_atom_site_label_2
_ccdc_geom_bond_type
C1    O13   A    
C37   H26   S    
C41   C42   A    
C35   C36   S    
C1    C11   S    
C17   C20   S    
C6    C9    A    
C26   H2    S    
C7    C8    A    
C29   H7    S    
O1    Zn1   S    
C8    H27   S    
C8    C20   A    
C31   O8    D    
C31   H16   S    
C28   C29   S    
O5    Zn1   S    
C5    C6    A    
C27   H13   S    
O13   Zn2   S    
C26   H31   S    
C18   C19   S    
C26   H32   S    
O2    Zn2   S    
O11   Zn1   S    
C2    C39   A    
C21   C38   A    
C18   O5    A    
O1    Zn4   S    
C17   O2    A    
C37   O10   D    
C35   H22   S    
C7    H1    S    
C15   O11   A    
O14   Zn3   S    
C13   C14   D    
C16   O12   A    
C14   C30   S    
C36   H20   S    
C22   H30   S    
C33   H24   S    
C4    O16   A    
C29   H8    S    
C21   C32   S    
O1    Zn3   S    
C34   C39   A    
C24   H6    S    
C23   H29   S    
C24   C25   S    
C39   C40   A    
C5    C7    A    
C27   H14   S    
C10   C24   S    
C25   C26   S    
C12   C21   A    
O18   Zn3   S    
C30   H15   S    
C19   C23   A    
C9    C20   A    
O4    Zn3   S    
C23   C34   A    
C3    C5    A    
C3    C31   S    
C11   H12   S    
O12   Zn4   S    
C40   C41   A    
C16   O18   A    
C6    C40   A    
C4    C10   S    
C36   H19   S    
C25   H3    S    
C33   H25   S    
O16   Zn1   S    
C29   H9    S    
C32   O9    D    
C12   H28   S    
C1    O15   A    
C34   C38   A    
C24   H5    S    
C36   H18   S    
C28   H11   S    
C38   C42   A    
C4    O14   A    
O3    Zn4   S    
C33   C41   S    
O15   Zn4   S    
C2    C3    A    
C22   O6    D    
O17   Zn2   S    
C28   H10   S    
C2    C37   S    
C22   C42   S    
C30   O7    D    
C18   O3    A    
C12   C19   A    
C17   O4    A    
C33   C35   S    
C9    H23   S    
C10   C11   D    
C15   O17   A    
C13   C16   S    
C27   C28   S    
C14   C15   S    
C13   C27   S    
C35   H21   S    
C32   H17   S    
C25   H4    S    
O1    Zn2   S    
