data_mof_unit_1991.cif
_audit_creation_date              2012-12-10T17:57:25-0500
_audit_creation_method            fapswitch 2.2
_symmetry_space_group_name_H-M    P1
_symmetry_Int_Tables_number       1
_space_group_crystal_system       triclinic
_cell_length_a                    9.506396
_cell_length_b                    10.834699
_cell_length_c                    13.535624
_cell_angle_alpha                 89.694892
_cell_angle_beta                  73.090096
_cell_angle_gamma                 89.222029
_cell_volume                      1333.75194542

loop_
_atom_site_label
_atom_site_type_symbol
_atom_type_description
_atom_site_fract_x
_atom_site_fract_y
_atom_site_fract_z
_atom_type_partial_charge
C1    C     C_R   0.498987 0.737575 0.499980 0.832593
C2    C     C_R   0.442928 0.504907 0.976192 -0.042893
C3    C     C_R   0.478000 0.467973 0.871247 -0.028814
C4    C     C_R   0.549466 0.483388 0.030054 0.070928
C5    C     C_R   0.695364 0.446533 0.975712 0.065575
C6    C     C_R   0.725933 0.404848 0.873628 -0.038565
C7    C     C_R   0.614395 0.408140 0.825591 -0.135795
C8    C     C_R   0.513777 0.492086 0.137491 -0.200004
C9    C     C_R   0.769559 0.472963 0.131575 -0.177964
C10   C     C_R   0.377169 0.494612 0.813826 -0.093095
C11   C     C_R   0.591616 0.932831 0.541983 -0.275283
C12   C     C_R   0.422330 0.493703 0.699870 0.813367
C13   C     C_R   0.603099 0.060401 0.534302 0.442087
C14   C     C_R   0.508803 0.127238 0.488930 -0.206807
C15   C     C_R   0.419195 0.063347 0.439001 -0.038081
C16   C     C_R   0.411903 0.935012 0.447030 -0.182569
C17   C     C_R   0.498075 0.870709 0.498109 -0.130352
C18   C     C_R   0.895572 0.575626 0.566925 0.614519
C19   C     C_R   0.047370 0.575055 0.565332 -0.076763
C20   C     C_R   0.103004 0.427433 0.432974 -0.011874
C21   C     C_R   0.954416 0.427529 0.432884 -0.113766
C22   C     C_R   0.502942 0.261916 0.495669 0.795702
C23   C     C_R   0.577987 0.498281 0.300521 0.768108
C24   C     C_R   0.805669 0.448663 0.026500 -0.223315
C25   C     C_R   0.622357 0.489587 0.188119 -0.074513
C26   C     C_R   0.236350 0.540342 0.864767 -0.278509
C27   C     C_R   0.201577 0.576552 0.966974 -0.232083
C28   C     C_R   0.306094 0.568345 0.020714 0.446311
Cu1   Cu    Cu3+1 0.359340 0.499980 0.500000 0.957653
Cu2   Cu    Cu3+1 0.640660 0.500020 0.500000 1.006875
H1    H     H_    0.855749 0.472052 0.169219 0.163265
H2    H     H_    0.344233 0.884395 0.409567 0.187892
H3    H     H_    0.086918 0.634275 0.615062 0.105243
H4    H     H_    0.181876 0.369113 0.379193 0.138930
H5    H     H_    0.921271 0.368890 0.379402 0.142853
H6    H     H_    0.920023 0.430520 0.986289 0.135484
H7    H     H_    0.400469 0.493794 0.183607 0.212171
H8    H     H_    0.156180 0.557950 0.823380 0.176699
H9    H     H_    0.096054 0.620474 0.002608 0.163135
H10   H     H_    0.636091 0.361604 0.752211 0.208359
H11   H     H_    0.656747 0.881758 0.582264 0.184986
N1    N     N_R   0.147940 0.499970 0.499970 -0.170180
N2    N     N_R   0.852060 0.500060 0.499990 -0.189743
O1    O     O_R   0.381250 0.680340 0.500010 -0.596482
O2    O     O_R   0.618820 0.680370 0.500010 -0.539875
O3    O     O_R   0.323240 0.499950 0.650980 -0.573394
O4    O     O_R   0.560810 0.499980 0.650980 -0.539262
O5    O     O_R   0.381180 0.319630 0.499990 -0.591698
O6    O     O_R   0.618750 0.319660 0.499990 -0.544360
O7    O     O_R   0.439190 0.500020 0.349020 -0.600003
O8    O     O_R   0.676760 0.500050 0.349020 -0.593452
O9    O     O_3   0.698907 0.119877 0.577735 -0.574924
C29   C     C_3   0.845526 0.088688 0.521438 0.058835
H12   H     H_    0.872980 0.129279 0.442457 0.157633
H13   H     H_    0.865550 0.987240 0.514783 0.142430
C30   C     C_3   0.950089 0.139322 0.576676 -0.677964
H14   H     H_    0.916125 0.109907 0.658877 0.244272
H15   H     H_    0.063477 0.104852 0.539532 0.221933
H16   H     H_    0.949450 0.241029 0.571920 0.282409
C31   C     C_2   0.343974 0.126878 0.370502 0.333841
H17   H     H_    0.378995 0.217351 0.339098 0.078021
O10   O     O_2   0.244485 0.077416 0.345888 -0.592999
O11   O     O_3   0.789241 0.654130 0.629737 -0.562295
C32   C     C_3   0.826700 0.700184 0.716202 0.013540
H18   H     H_    0.912340 0.772069 0.691564 0.131643
H19   H     H_    0.864938 0.624622 0.758568 0.167884
C33   C     C_3   0.692007 0.760803 0.790467 -0.771751
H20   H     H_    0.598724 0.696068 0.810331 0.256363
H21   H     H_    0.717337 0.787589 0.862461 0.195556
H22   H     H_    0.659351 0.844844 0.754989 0.238934
C34   C     C_2   0.871093 0.351100 0.817398 0.301693
H23   H     H_    0.935229 0.298640 0.857823 0.080469
O12   O     O_2   0.921787 0.366812 0.724742 -0.578371
O13   O     O_3   0.273780 0.628886 0.114342 -0.606221
C35   C     C_3   0.336510 0.747427 0.098013 0.035171
H24   H     H_    0.276937 0.806852 0.055615 0.154545
H25   H     H_    0.455499 0.743301 0.053830 0.144380
C36   C     C_3   0.323653 0.806328 0.202028 -0.727908
H26   H     H_    0.382926 0.748695 0.245562 0.237474
H27   H     H_    0.372938 0.899547 0.190280 0.220961
H28   H     H_    0.206230 0.814983 0.247734 0.261204

loop_
_geom_bond_atom_site_label_1
_geom_bond_atom_site_label_2
_ccdc_geom_bond_type
C22   O5    A    
Cu2   O8    S    
Cu1   N1    S    
C15   C31   S    
Cu2   O2    S    
C4    C8    A    
C28   O13   S    
C9    C25   A    
C29   H12   S    
C26   C27   A    
C24   H6    S    
C3    C7    A    
C5    C6    A    
C36   H27   S    
C18   O11   S    
C15   C16   A    
C30   H14   S    
C31   O10   D    
C18   C19   A    
C21   N2    A    
C27   H9    S    
C16   C17   A    
C7    H10   S    
C19   N1    A    
C20   H4    S    
C10   C26   A    
C13   C14   A    
C8    C25   A    
C12   O4    A    
Cu1   O7    S    
C29   H13   S    
C6    C34   S    
O13   C35   S    
Cu1   O5    S    
C33   H20   S    
C32   C33   S    
Cu2   O4    S    
C12   O3    A    
C19   H3    S    
C34   O12   D    
C36   H26   S    
C26   H8    S    
C23   O7    A    
C31   H17   S    
C33   H21   S    
C32   H19   S    
C2    C4    A    
C35   H24   S    
Cu1   Cu2   S    
C13   O9    S    
C1    O1    A    
C23   O8    A    
C35   H25   S    
C10   C12   S    
C22   O6    A    
Cu2   O6    S    
Cu1   O1    S    
Cu2   N2    S    
C8    H7    S    
O9    C29   S    
C29   C30   S    
C11   C17   A    
C4    C5    A    
C20   N1    A    
C9    C24   A    
C6    C7    A    
C21   H5    S    
C16   H2    S    
C1    C17   S    
C30   H16   S    
Cu1   O3    S    
C33   H22   S    
C32   H18   S    
C14   C22   S    
C2    C3    A    
C34   H23   S    
C3    C10   A    
C18   N2    A    
C11   C13   A    
C36   H28   S    
C1    O2    A    
C5    C24   A    
C30   H15   S    
C11   H11   S    
C23   C25   S    
C35   C36   S    
C9    H1    S    
O11   C32   S    
C20   C21   A    
C27   C28   A    
C14   C15   A    
C2    C28   A    
