data_mof_unit_4941.cif
_audit_creation_date              2012-12-11T15:33:38-0500
_audit_creation_method            fapswitch 2.2
_symmetry_space_group_name_H-M    P1
_symmetry_Int_Tables_number       1
_space_group_crystal_system       triclinic
_cell_length_a                    27.148614
_cell_length_b                    7.207005
_cell_length_c                    22.752424
_cell_angle_alpha                 90.000795
_cell_angle_beta                  101.159987
_cell_angle_gamma                 90.00021
_cell_volume                      4367.56378249

loop_
_atom_site_label
_atom_site_type_symbol
_atom_type_description
_atom_site_fract_x
_atom_site_fract_y
_atom_site_fract_z
_atom_type_partial_charge
O1    O     O_R   0.207310 0.594030 0.676830 -0.532450
O2    O     O_R   0.792690 0.405970 0.323170 -0.532451
O3    O     O_R   0.292690 0.094030 0.823170 -0.532451
O4    O     O_R   0.707310 0.905970 0.176830 -0.532451
O5    O     O_R   0.197320 0.262370 0.795700 -0.540208
O6    O     O_R   0.802680 0.737630 0.204300 -0.540208
O7    O     O_R   0.302680 0.762370 0.704300 -0.540208
O8    O     O_R   0.697320 0.237630 0.295700 -0.540208
C1    C     C_R   0.184719 0.432414 0.811956 0.708523
C2    C     C_R   0.815281 0.567586 0.188043 0.708523
C3    C     C_R   0.315281 0.932413 0.688044 0.708521
C4    C     C_R   0.684719 0.067587 0.311956 0.708521
O9    O     O_R   0.201410 0.264250 0.675590 -0.534961
O10   O     O_R   0.798590 0.735750 0.324410 -0.534961
O11   O     O_R   0.298590 0.764250 0.824410 -0.534960
O12   O     O_R   0.701410 0.235750 0.175590 -0.534960
O13   O     O_R   0.296810 0.094940 0.702210 -0.538627
O14   O     O_R   0.703190 0.905060 0.297790 -0.538627
O15   O     O_R   0.203190 0.594940 0.797790 -0.538628
O16   O     O_R   0.796810 0.405060 0.202210 -0.538628
C5    C     C_R   0.189787 0.432514 0.653483 0.685875
C6    C     C_R   0.810213 0.567486 0.346517 0.685876
C7    C     C_R   0.310213 0.932517 0.846517 0.685876
C8    C     C_R   0.689787 0.067483 0.153483 0.685876
O17   O     O_3   0.281300 0.427390 0.758870 -0.373526
O18   O     O_3   0.718700 0.572610 0.241130 -0.373526
O19   O     O_3   0.218700 0.927390 0.741130 -0.373527
O20   O     O_3   0.781300 0.072610 0.258870 -0.373527
V1    V     V_3+5 0.244190 0.152150 0.748350 1.417345
V2    V     V_3+5 0.755810 0.847850 0.251650 1.417345
V3    V     V_3+5 0.255810 0.652150 0.751650 1.417345
V4    V     V_3+5 0.744190 0.347850 0.248350 1.417345
C9    C     C_R   0.654837 0.062508 0.095146 -0.039453
C10   C     C_R   0.345163 0.937492 0.904854 -0.039453
C11   C     C_R   0.845163 0.562520 0.404854 -0.039458
C12   C     C_R   0.154837 0.437479 0.595146 -0.039458
C13   C     C_R   0.639270 0.124955 0.988790 -0.153643
C14   C     C_R   0.360730 0.875042 0.011210 -0.153643
C15   C     C_R   0.860734 0.625034 0.511207 -0.153644
C16   C     C_R   0.139266 0.374966 0.488793 -0.153644
C17   C     C_R   0.672143 0.116116 0.043817 -0.160693
C18   C     C_R   0.327857 0.883881 0.956183 -0.160693
C19   C     C_R   0.827861 0.616176 0.456181 -0.160689
C20   C     C_R   0.172139 0.383824 0.543819 -0.160689
C21   C     C_R   0.603798 0.018244 0.091113 -0.210263
C22   C     C_R   0.396202 0.981757 0.908887 -0.210263
C23   C     C_R   0.896201 0.518229 0.408888 -0.210264
C24   C     C_R   0.103799 0.481771 0.591112 -0.210265
C25   C     C_R   0.569064 0.029450 0.035455 0.086004
C26   C     C_R   0.430936 0.970550 0.964545 0.086004
C27   C     C_R   0.930936 0.529457 0.464545 0.086002
C28   C     C_R   0.069063 0.470543 0.535455 0.086003
C29   C     C_R   0.588144 0.083543 0.984185 0.132816
C30   C     C_R   0.411856 0.916455 0.015815 0.132816
C31   C     C_R   0.911859 0.583597 0.515813 0.132816
C32   C     C_R   0.088141 0.416403 0.484187 0.132816
C33   C     C_R   0.516250 0.991550 0.028856 0.056578
C34   C     C_R   0.483750 0.008450 0.971144 0.056578
C35   C     C_R   0.983750 0.491537 0.471145 0.056577
C36   C     C_R   0.016250 0.508463 0.528855 0.056577
C37   C     C_R   0.505183 0.062070 0.921987 -0.181420
C38   C     C_R   0.494817 0.937929 0.078012 -0.181420
C39   C     C_R   0.994820 0.562127 0.578010 -0.181419
C40   C     C_R   0.005180 0.437873 0.421990 -0.181419
C41   C     C_R   0.556164 0.098307 0.928528 -0.191109
C42   C     C_R   0.443836 0.901690 0.071472 -0.191110
C43   C     C_R   0.943840 0.598384 0.571468 -0.191109
C44   C     C_R   0.056160 0.401615 0.428532 -0.191109
H1    H     H_    0.570726 0.139643 0.889354 0.133062
H2    H     H_    0.429274 0.860354 0.110646 0.133062
H3    H     H_    0.929280 0.639755 0.610641 0.133062
H4    H     H_    0.070720 0.360245 0.389359 0.133062
H5    H     H_    0.407524 0.019743 0.867680 0.097951
H6    H     H_    0.592476 0.980261 0.132320 0.097950
H7    H     H_    0.092479 0.519789 0.632317 0.097954
H8    H     H_    0.907521 0.480211 0.367683 0.097954
H9    H     H_    0.288754 0.847554 0.953522 0.113932
H10   H     H_    0.711247 0.152441 0.046478 0.113932
H11   H     H_    0.211242 0.347476 0.546481 0.113935
H12   H     H_    0.788758 0.652523 0.453519 0.113935
H13   H     H_    0.653797 0.166972 0.949679 0.123460
H14   H     H_    0.346203 0.833022 0.050321 0.123460
H15   H     H_    0.846209 0.667087 0.550316 0.123459
H16   H     H_    0.153791 0.332913 0.449684 0.123459
H17   H     H_    0.483498 0.078070 0.877394 0.128939
H18   H     H_    0.516502 0.921928 0.122606 0.128940
H19   H     H_    0.016506 0.578149 0.622602 0.128939
H20   H     H_    0.983494 0.421851 0.377398 0.128939
C45   C     C_R   0.631505 0.884078 0.370555 -0.161077
C46   C     C_R   0.368495 0.115922 0.629445 -0.161077
C47   C     C_R   0.868495 0.384077 0.129444 -0.161077
C48   C     C_R   0.131505 0.615923 0.870556 -0.161077
H21   H     H_    0.648162 0.756488 0.358546 0.149316
H22   H     H_    0.351838 0.243512 0.641454 0.149315
H23   H     H_    0.851838 0.256486 0.141452 0.149315
H24   H     H_    0.148163 0.743514 0.858548 0.149315
C49   C     C_R   0.595636 0.872557 0.407060 -0.197772
C50   C     C_R   0.404364 0.127443 0.592939 -0.197772
C51   C     C_R   0.904364 0.372555 0.092938 -0.197769
C52   C     C_R   0.095636 0.627445 0.907062 -0.197769
H25   H     H_    0.586047 0.736750 0.421737 0.227290
H26   H     H_    0.413953 0.263250 0.578263 0.227290
H27   H     H_    0.913953 0.236748 0.078261 0.227290
H28   H     H_    0.086047 0.763252 0.921740 0.227290
C53   C     C_R   0.572665 0.032992 0.424552 -0.103771
C54   C     C_R   0.427335 0.967008 0.575448 -0.103771
C55   C     C_R   0.927334 0.532990 0.075448 -0.103772
C56   C     C_R   0.072666 0.467009 0.924552 -0.103772
C57   C     C_R   0.586759 0.206546 0.404031 0.651134
C58   C     C_R   0.413241 0.793454 0.595969 0.651134
C59   C     C_R   0.913241 0.706545 0.095970 0.651133
C60   C     C_R   0.086759 0.293455 0.904030 0.651133
C61   C     C_R   0.622839 0.217673 0.367472 -0.239778
C62   C     C_R   0.377161 0.782327 0.632528 -0.239778
C63   C     C_R   0.877161 0.717671 0.132529 -0.239778
C64   C     C_R   0.122838 0.282329 0.867471 -0.239778
H29   H     H_    0.632773 0.353175 0.352798 0.147528
H30   H     H_    0.367227 0.646824 0.647202 0.147528
H31   H     H_    0.867227 0.853174 0.147203 0.147528
H32   H     H_    0.132773 0.146826 0.852796 0.147529
C65   C     C_R   0.645796 0.056768 0.350228 -0.132980
C66   C     C_R   0.354204 0.943232 0.649772 -0.132981
C67   C     C_R   0.854204 0.556767 0.149772 -0.132981
C68   C     C_R   0.145796 0.443233 0.850228 -0.132980
N1    N     N_R   0.512210 0.168757 0.482198 -0.165450
N2    N     N_R   0.487790 0.831243 0.517802 -0.165450
N3    N     N_R   0.987791 0.668756 0.017804 -0.165450
N4    N     N_R   0.012209 0.331244 0.982196 -0.165450
N5    N     N_R   0.478423 0.152787 0.517383 -0.251700
N6    N     N_R   0.521577 0.847213 0.482617 -0.251700
N7    N     N_R   0.021578 0.652787 0.982620 -0.251702
N8    N     N_R   0.978422 0.347213 0.017380 -0.251702
C69   C     C_R   0.465377 0.983638 0.536073 0.521154
C70   C     C_R   0.534623 0.016361 0.463927 0.521154
C71   C     C_R   0.034623 0.483639 0.963927 0.521155
C72   C     C_R   0.965377 0.516361 0.036073 0.521155
F1    F     F_    0.565908 0.366396 0.419110 -0.672023
F2    F     F_    0.434093 0.633604 0.580890 -0.672023
F3    F     F_    0.934092 0.866395 0.080892 -0.672024
F4    F     F_    0.065907 0.133605 0.919108 -0.672024

loop_
_geom_bond_atom_site_label_1
_geom_bond_atom_site_label_2
_ccdc_geom_bond_type
N1    C70   A    
O17   V3    S    
C51   H27   S    
O1    C5    A    
O19   V1    S    
C9    C21   A    
C16   H16   S    
O3    C7    A    
C10   C18   A    
O1    V3    S    
O15   V3    S    
C59   F3    S    
C33   C38   A    
C5    C12   S    
O7    C3    A    
C6    C11   S    
C38   H18   S    
C35   C40   A    
C26   C30   A    
C36   C39   A    
C40   C44   A    
O2    V4    S    
O9    V1    S    
C23   H8    S    
C14   C18   A    
N7    C71   A    
C48   C68   A    
C54   C58   A    
O4    C8    A    
C25   C29   A    
N8    C72   A    
C44   H4    S    
N2    N6    A    
C48   H24   S    
C1    C68   S    
O13   V1    S    
C57   F1    S    
O3    V1    S    
C60   F4    S    
C28   C36   A    
C1    O15   A    
C54   C69   S    
C15   C31   A    
C4    C65   S    
N2    C69   A    
C2    O16   A    
C16   C32   A    
O2    C6    A    
C10   C22   A    
C11   C19   A    
C58   C62   A    
C16   C20   A    
C43   H3    S    
C57   C61   A    
C13   C29   A    
C34   C37   A    
O11   C7    A    
C11   C23   A    
C35   C36   A    
O12   C8    A    
C47   C67   A    
C14   H14   S    
C45   H21   S    
C46   C66   A    
C24   H7    S    
C13   H13   S    
N6    C70   A    
O10   V2    S    
N4    N8    A    
C46   H22   S    
O5    V1    S    
C39   C43   A    
C52   C56   A    
O7    V3    S    
C38   C42   A    
C26   C34   A    
C58   F2    S    
C63   C67   A    
N3    C72   A    
C56   C71   S    
C2    C67   S    
N4    C71   A    
C17   H10   S    
O18   V4    S    
C23   C27   A    
C52   H28   S    
C19   H12   S    
C32   C44   A    
C47   H23   S    
O4    V2    S    
C64   H32   S    
C45   C49   A    
C21   H6    S    
O8    V4    S    
O5    C1    A    
C55   C72   S    
C37   C41   A    
C31   C43   A    
C14   C30   A    
C21   C25   A    
O8    C4    A    
C7    C10   S    
O9    C5    A    
C62   H30   S    
C37   H17   S    
C61   H29   S    
O6    V2    S    
C63   H31   S    
N1    N5    A    
O14   V2    S    
N5    C69   A    
C12   C20   A    
C3    C66   S    
C27   C35   A    
C60   C64   A    
C29   C41   A    
C48   C52   A    
O16   V4    S    
C53   C57   A    
C3    O13   A    
C64   C68   A    
C39   H19   S    
C55   C59   A    
C20   H11   S    
O6    C2    A    
C25   C33   A    
C15   C19   A    
O11   V3    S    
C30   C42   A    
O12   V4    S    
C51   C55   A    
C22   C26   A    
C8    C9    S    
C50   C54   A    
C9    C17   A    
O10   C6    A    
O20   V2    S    
C49   C53   A    
C50   H26   S    
C33   C34   A    
C42   H2    S    
C45   C65   A    
C41   H1    S    
C46   C50   A    
C12   C24   A    
C27   C31   A    
C13   C17   A    
N3    N7    A    
C15   H15   S    
C62   C66   A    
C56   C60   A    
C24   C28   A    
C61   C65   A    
C18   H9    S    
C4    O14   A    
C59   C63   A    
C47   C51   A    
C40   H20   S    
C22   H5    S    
C49   H25   S    
C28   C32   A    
C53   C70   S    
