data_mof_unit_13.cif
_audit_creation_date              2013-03-05T16:33:48-0500
_audit_creation_method            fapswitch 2.2
_symmetry_space_group_name_H-M    P1
_symmetry_Int_Tables_number       1
_space_group_crystal_system       triclinic
_cell_length_a                    15.969446
_cell_length_b                    10.823247
_cell_length_c                    9.551803
_cell_angle_alpha                 90.396255
_cell_angle_beta                  90.318456
_cell_angle_gamma                 90.0693
_cell_volume                      1650.87938311

loop_
_atom_site_label
_atom_site_type_symbol
_atom_site_description
_atom_site_fract_x
_atom_site_fract_y
_atom_site_fract_z
_atom_type_partial_charge
O1    O     O_R   0.500000 0.319640 0.618810 -0.580939
O2    O     O_R   0.500010 0.319680 0.381230 -0.538006
C1    C     C_R   0.496538 0.262243 0.499068 0.815586
O3    O     O_R   0.380300 0.499950 0.618760 -0.587214
O4    O     O_R   0.380310 0.499990 0.381180 -0.587733
C2    C     C_R   0.341320 0.499626 0.499568 0.813700
Cu1   Cu    Cu3+1 0.500000 0.499980 0.640670 0.930988
Cu2   Cu    Cu3+1 0.500000 0.500020 0.359330 0.959509
O5    O     O_R   0.499990 0.680320 0.618770 -0.584703
O6    O     O_R   0.500000 0.680360 0.381190 -0.579504
O7    O     O_R   0.619690 0.500010 0.618820 -0.593956
O8    O     O_R   0.619700 0.500050 0.381240 -0.565393
C3    C     C_R   0.497495 0.737565 0.500373 0.821750
C4    C     C_R   0.658680 0.499991 0.500251 0.818893
H1    H     H_    0.077358 0.420872 0.698124 0.160858
C5    C     C_R   0.956919 0.456439 0.607988 -0.240956
H2    H     H_    0.924097 0.423425 0.699420 0.169820
C6    C     C_R   0.912603 0.501056 0.492497 0.000106
C7    C     C_R   0.955324 0.542015 0.372347 0.298131
C8    C     C_R   0.043921 0.537515 0.370231 0.165675
C9    C     C_R   0.087389 0.494968 0.489525 0.070744
C10   C     C_R   0.043871 0.454007 0.606810 -0.223226
C11   C     C_1   0.822928 0.500322 0.497361 0.043590
C12   C     C_1   0.177084 0.496687 0.494973 -0.000862
C13   C     C_1   0.252181 0.498188 0.498111 -0.191469
C14   C     C_1   0.747831 0.500010 0.499959 -0.162892
C15   C     C_R   0.481884 0.064547 0.622429 0.009890
C16   C     C_R   0.484365 0.129045 0.496376 -0.138033
C17   C     C_R   0.472469 0.061570 0.369493 0.245861
C18   C     C_R   0.474908 0.932356 0.372738 -0.269549
H3    H     H_    0.471030 0.881507 0.274752 0.174263
C19   C     C_R   0.486183 0.870118 0.500013 -0.172569
C20   C     C_R   0.480878 0.937450 0.624565 0.107974
C21   C     C_3   0.532775 0.934028 0.756043 0.081169
C22   C     C_3   0.534652 0.074896 0.751957 -0.427243
H4    H     H_    0.595572 0.891563 0.740814 0.107004
H5    H     H_    0.501717 0.121951 0.839480 0.209196
H6    H     H_    0.598034 0.112576 0.730027 0.166484
C23   C     C_R   0.573288 0.502212 0.074690 0.224608
N1    N     N_R   0.500520 0.500930 0.147930 -0.179758
C24   C     C_R   0.427450 0.489098 0.073369 -0.078449
H7    H     H_    0.368364 0.481322 0.126975 0.146930
C25   C     C_R   0.427384 0.489831 0.925121 -0.089885
H8    H     H_    0.368181 0.483097 0.870595 0.150083
N2    N     N_R   0.500520 0.500890 0.852020 -0.200912
C26   C     C_R   0.573923 0.498300 0.927325 0.190125
C27   C     C_3   0.643088 0.592521 0.923476 -0.012671
C28   C     C_3   0.638239 0.600739 0.082130 -0.441004
H9    H     H_    0.625923 0.678076 0.866393 0.147207
H10   H     H_    0.695749 0.569343 0.137570 0.258462
H11   H     H_    0.612667 0.690299 0.120298 0.176195
N3    N     N_2   0.722640 0.539616 0.880950 -0.399668
H12   H     H_    0.719984 0.468884 0.808415 0.271870
C29   C     C_3   0.788361 0.628575 0.855967 -0.565952
H13   H     H_    0.848737 0.579668 0.841680 0.238541
H14   H     H_    0.794915 0.692675 0.946761 0.266103
H15   H     H_    0.774114 0.682185 0.759968 0.196619
N4    N     N_R   0.909124 0.586538 0.253284 0.108024
O9    O     O_R   0.850924 0.669393 0.269300 -0.388045
O10   O     O_R   0.923106 0.541483 0.129006 -0.391728
N5    N     N_2   0.089612 0.582964 0.253346 -0.413815
H16   H     H_    0.060901 0.653691 0.199657 0.286989
C30   C     C_3   0.123500 0.488575 0.161717 -0.636840
H17   H     H_    0.072126 0.434515 0.111790 0.251459
H18   H     H_    0.164986 0.424869 0.220509 0.221598
H19   H     H_    0.161166 0.532757 0.078426 0.211820
N6    N     N_2   0.463292 0.121303 0.237907 -0.396588
H20   H     H_    0.490478 0.074191 0.155599 0.259399
C31   C     C_3   0.378313 0.158063 0.205806 -0.656539
H21   H     H_    0.337586 0.075200 0.194333 0.210892
H22   H     H_    0.377321 0.209875 0.105870 0.214630
H23   H     H_    0.353217 0.219088 0.289643 0.231357
N7    N     N_2   0.489060 0.884542 0.877548 -0.412180
H24   H     H_    0.504926 0.794365 0.898840 0.254344
C32   C     C_3   0.399960 0.906602 0.893583 -0.648967
H25   H     H_    0.380098 0.875691 0.998962 0.213554
H26   H     H_    0.364062 0.853201 0.813552 0.227480
H27   H     H_    0.384948 0.006240 0.884532 0.227771

loop_
_geom_bond_atom_site_label_1
_geom_bond_atom_site_label_2
_geom_bond_distance
_ccdc_geom_bond_type
C30   H18   1.109964 S    
N7    C32   1.451826 S    
N7    H24   1.030006 S    
C3    C19   1.446227 S    
C7    C8    1.415992 A    
C25   H8    1.079007 S    
Cu1   Cu2   2.687307 S    
C27   H9    1.111670 S    
N2    C26   1.372301 A    
C15   C20   1.375972 A    
Cu1   O7    1.923896 S    
Cu1   N2    2.018700 S    
C16   C17   1.422366 A    
C22   H5    1.111103 S    
C21   C22   1.525678 S    
C18   H3    1.083907 S    
O7    C4    1.295447 A    
C2    C13   1.423555 S    
N4    O10   1.300771 A    
N5    C30   1.448024 S    
C6    C7    1.412114 A    
C24   H7    1.079519 S    
C11   C14   1.199652 T    
C8    N5    1.427114 S    
C31   H22   1.110482 S    
O5    C3    1.293699 A    
C26   C27   1.503170 S    
H1    C10   1.083954 S    
C5    H2    1.083556 S    
C28   H10   1.112286 S    
C30   H19   1.110544 S    
C17   N6    1.424302 S    
C9    C10   1.396184 A    
C24   C25   1.416111 A    
C31   H21   1.111662 S    
O3    Cu1   1.921809 S    
N3    C29   1.445339 S    
C28   H11   1.112207 S    
C7    N4    1.438409 S    
C29   H14   1.111255 S    
N6    H20   1.032165 S    
C22   H6    1.112305 S    
C12   C13   1.199558 T    
O3    C2    1.294504 A    
C23   N1    1.359823 A    
C15   C22   1.496536 S    
N4    O9    1.301206 A    
C6    C11   1.433087 S    
N6    C31   1.446482 S    
C31   H23   1.111324 S    
C32   H25   1.110697 S    
C17   C18   1.399662 A    
C32   H26   1.111426 S    
C27   C28   1.519833 S    
Cu2   O8    1.921806 S    
C20   C21   1.501510 S    
C4    C14   1.423710 S    
C25   N2    1.369608 A    
C23   C26   1.408041 A    
Cu2   O6    1.961565 S    
N1    C24   1.369075 A    
O8    C4    1.293014 A    
N3    H12   1.029638 S    
Cu1   O5    1.964481 S    
C29   H13   1.109118 S    
C1    C16   1.454478 S    
C5    C10   1.388962 A    
O1    Cu1   1.961565 S    
O2    Cu2   1.964479 S    
O6    C3    1.292956 A    
O4    Cu2   1.923896 S    
C27   N3    1.452956 S    
C19   C20   1.393883 A    
O2    C1    1.291015 A    
C18   C19   1.404747 A    
O4    C2    1.293964 A    
C21   H4    1.113503 S    
N5    H16   1.030963 S    
C32   H27   1.108868 S    
C21   N7    1.462156 S    
C30   H17   1.110619 S    
C8    C9    1.411221 A    
C5    C6    1.396596 A    
C9    C12   1.433126 S    
C15   C16   1.396670 A    
Cu2   N1    2.019407 S    
O1    C1    1.298660 A    
C23   C28   1.487803 S    
C29   H15   1.111133 S    
