data_mof_unit_3829.cif
_audit_creation_date              2012-12-11T14:48:02-0500
_audit_creation_method            fapswitch 2.2
_symmetry_space_group_name_H-M    P1
_symmetry_Int_Tables_number       1
_space_group_crystal_system       triclinic
_cell_length_a                    11.520378
_cell_length_b                    11.464861
_cell_length_c                    19.511067
_cell_angle_alpha                 90.025702
_cell_angle_beta                  89.547573
_cell_angle_gamma                 59.572547
_cell_volume                      2221.98467573

loop_
_atom_site_label
_atom_site_type_symbol
_atom_type_description
_atom_site_fract_x
_atom_site_fract_y
_atom_site_fract_z
_atom_type_partial_charge
C1    C     C_R   0.619826 0.091471 0.606973 0.517074
C2    C     C_1   0.603105 0.770646 0.676309 -0.007182
C3    C     C_1   0.148286 0.187986 0.863384 0.001635
C4    C     C_1   0.229553 0.143215 0.735797 -0.028856
C5    C     C_1   0.189915 0.163123 0.805300 -0.027194
C6    C     C_1   0.260385 0.131137 0.676030 -0.007199
C7    C     C_1   0.700824 0.207332 0.855050 0.006458
C8    C     C_1   0.654271 0.158223 0.730928 -0.025698
C9    C     C_1   0.676967 0.186661 0.797936 -0.027543
C10   C     C_1   0.637799 0.129984 0.673905 0.005061
C11   C     C_R   0.581442 0.631360 0.306929 -0.143040
C12   C     C_R   0.579085 0.804762 0.605356 0.523354
C13   C     C_R   0.578063 0.627556 0.237267 -0.137768
C14   C     C_R   0.669862 0.645444 0.197907 0.019497
C15   C     C_R   0.768096 0.663390 0.229212 -0.110295
C16   C     C_R   0.772986 0.668668 0.300478 -0.013119
C17   C     C_R   0.668525 0.665186 0.338723 0.026814
C18   C     C_R   0.226736 0.251789 0.289500 -0.135046
C19   C     C_R   0.199875 0.267103 0.220570 -0.138958
C20   C     C_R   0.157470 0.186906 0.188310 0.033110
C21   C     C_R   0.159512 0.079050 0.223642 -0.137164
C22   C     C_R   0.186839 0.063233 0.293409 -0.137656
C23   C     C_R   0.298936 0.119220 0.605297 0.523448
C24   C     C_R   0.214610 0.153883 0.327186 0.032509
C25   C     C_R   0.803426 0.090154 0.310166 -0.136283
C26   C     C_R   0.824403 0.118987 0.244014 -0.128072
C27   C     C_R   0.718674 0.222788 0.206988 0.029992
C28   C     C_R   0.593825 0.305116 0.239197 -0.136533
C29   C     C_R   0.572415 0.276082 0.305794 -0.137915
C30   C     C_R   0.675725 0.164572 0.340392 0.028209
C31   C     C_R   0.085189 0.229509 0.929386 0.544635
C32   C     C_R   0.682438 0.607850 0.930236 0.543269
C33   C     C_R   0.735873 0.228052 0.922178 0.557428
C34   C     C_R   0.646308 0.114829 0.403149 0.559468
C35   C     C_R   0.087077 0.233059 0.123860 0.542154
C36   C     C_R   0.683343 0.609006 0.126668 0.540740
C37   C     C_R   0.741104 0.237699 0.134462 0.560599
C38   C     C_R   0.621498 0.733433 0.404178 0.555746
C39   C     C_R   0.252194 0.137463 0.398849 0.563114
C40   C     C_1   0.660003 0.668610 0.864100 0.002934
C41   C     C_1   0.621457 0.743450 0.736213 -0.029728
C42   C     C_1   0.642085 0.707629 0.805851 -0.026932
Cr1   Cr    Cr6+3 0.404720 0.198220 0.499960 1.018730
Cr2   Cr    Cr6+3 0.698290 0.897110 0.500380 1.011464
Cr3   Cr    Cr6+3 0.396970 0.904720 0.499610 1.026934
Cr4   Cr    Cr6+3 0.926180 0.152240 0.028110 1.021514
Cr5   Cr    Cr6+3 0.921340 0.452070 0.027460 1.023290
Cr6   Cr    Cr6+3 0.626260 0.447120 0.028700 1.027603
H1    H     H_    0.506194 0.620706 0.335467 0.134882
H2    H     H_    0.921689 0.054924 0.220437 0.120924
H3    H     H_    0.511143 0.386954 0.212027 0.119350
H4    H     H_    0.504369 0.607533 0.214567 0.133775
H5    H     H_    0.841256 0.670870 0.197422 0.129868
H6    H     H_    0.256646 0.317887 0.313120 0.132131
H7    H     H_    0.204436 0.347334 0.193619 0.128646
H8    H     H_    0.133967 0.011346 0.198180 0.118355
H9    H     H_    0.184549 0.982255 0.320808 0.121098
H10   H     H_    0.885222 0.004839 0.336046 0.122411
O1    O     O_R   0.267740 0.231990 0.575440 -0.491084
O2    O     O_R   0.685970 0.784630 0.430010 -0.512117
O3    O     O_R   0.502530 0.766960 0.423990 -0.514166
O4    O     O_R   0.288330 0.026310 0.429250 -0.492117
O5    O     O_3   0.499990 0.000020 0.499980 -0.299378
O6    O     O_R   0.821500 0.119550 0.952820 -0.492945
O7    O     O_R   0.037130 0.162750 0.957360 -0.506647
O8    O     O_R   0.056440 0.344950 0.951330 -0.498538
O9    O     O_R   0.797900 0.560570 0.957460 -0.489278
O10   O     O_R   0.596140 0.579600 0.952720 -0.508434
O11   O     O_R   0.639070 0.321380 0.958660 -0.479944
O12   O     O_R   0.527280 0.186680 0.570530 -0.497219
O13   O     O_R   0.821240 0.124490 0.104360 -0.508146
O14   O     O_R   0.036900 0.167320 0.097830 -0.524074
O15   O     O_R   0.056190 0.349890 0.102870 -0.518752
O16   O     O_R   0.797670 0.565150 0.097930 -0.504084
O17   O     O_R   0.595880 0.584540 0.104260 -0.531893
O18   O     O_R   0.638830 0.325960 0.099140 -0.494297
O19   O     O_3   0.824590 0.350480 0.028090 -0.284210
O20   O     O_R   0.728090 0.003480 0.576380 -0.494061
O21   O     O_R   0.682970 0.789220 0.570490 -0.492853
O22   O     O_R   0.499290 0.771920 0.575530 -0.493738
O23   O     O_R   0.285330 0.030900 0.569730 -0.491628
O24   O     O_R   0.270980 0.227040 0.423900 -0.524161
O25   O     O_R   0.530280 0.182090 0.430050 -0.498800
O26   O     O_R   0.731330 0.998530 0.424830 -0.528677
H11   H     H_    0.473111 0.335952 0.328528 0.117551
C43   C     C_3   0.883884 0.683312 0.334652 -0.235188
C44   C     C_3   0.013234 0.634369 0.291846 -0.328604
C45   C     C_3   0.127189 0.625641 0.335156 -0.457319
H12   H     H_    0.097732 0.726502 0.357040 0.154096
H13   H     H_    0.151968 0.552128 0.377470 0.164025
H14   H     H_    0.218490 0.591124 0.302611 0.132220
H15   H     H_    0.045386 0.533216 0.269960 0.174617
H16   H     H_    0.994400 0.706176 0.249333 0.156460
H17   H     H_    0.843986 0.791360 0.347276 0.189112
H18   H     H_    0.912345 0.623508 0.382788 0.168234

loop_
_geom_bond_atom_site_label_1
_geom_bond_atom_site_label_2
_ccdc_geom_bond_type
C31   O8    A    
C44   C45   S    
Cr1   O25   S    
C41   C42   S    
Cr6   O18   S    
C19   C20   A    
Cr6   O11   S    
C2    C12   S    
C22   H9    S    
Cr1   O5    S    
C23   O1    A    
C26   C27   A    
C18   C24   A    
C15   H5    S    
C28   C29   A    
Cr2   O2    S    
C26   H2    S    
C14   C36   S    
C28   H3    S    
C2    C41   T    
C15   C16   A    
C12   O21   A    
C44   H16   S    
Cr3   O4    S    
C24   C39   S    
C7    C9    T    
C18   C19   A    
C43   H17   S    
C20   C35   S    
C35   O15   A    
C16   C17   A    
Cr5   O8    S    
C29   H11   S    
Cr1   O1    S    
C32   O10   A    
C38   O3    A    
C40   C42   T    
C13   C14   A    
C16   C43   S    
C1    O20   A    
C7    C33   S    
Cr6   O17   S    
C34   O26   A    
Cr5   O9    S    
Cr2   O5    S    
C30   C34   S    
Cr5   O15   S    
Cr4   O7    S    
C4    C6    T    
C43   C44   S    
C8    C9    S    
C3    C5    T    
C25   C26   A    
Cr3   O5    S    
Cr4   O6    S    
Cr6   O19   S    
C29   C30   A    
C11   H1    S    
C36   O17   A    
C21   H8    S    
C13   H4    S    
C45   H14   S    
C20   C21   A    
Cr6   O10   S    
C3    C31   S    
Cr4   O13   S    
C36   O16   A    
C32   O9    A    
C38   O2    A    
C8    C10   T    
C37   O18   A    
C45   H13   S    
C35   O14   A    
Cr1   O12   S    
C37   O13   A    
C22   C24   A    
C34   O25   A    
Cr5   O19   S    
C44   H15   S    
C19   H7    S    
C25   C30   A    
C31   O7    A    
C39   O4    A    
C11   C17   A    
C23   O23   A    
Cr4   O14   S    
Cr2   O21   S    
Cr3   O23   S    
C1    C10   S    
Cr5   O16   S    
C4    C5    S    
Cr2   O26   S    
Cr4   O19   S    
C33   O11   A    
C1    O12   A    
Cr2   O20   S    
C11   C13   A    
C27   C37   S    
C33   O6    A    
C6    C23   S    
C12   O22   A    
Cr3   O3    S    
Cr3   O22   S    
C17   C38   S    
C32   C40   S    
C43   H18   S    
C18   H6    S    
C45   H12   S    
C39   O24   A    
C25   H10   S    
C27   C28   A    
Cr1   O24   S    
C14   C15   A    
C21   C22   A    
