data_mof_unit_3157.cif
_audit_creation_date              2012-12-11T15:54:00-0500
_audit_creation_method            fapswitch 2.2
_symmetry_space_group_name_H-M    P1
_symmetry_Int_Tables_number       1
_space_group_crystal_system       triclinic
_cell_length_a                    10.679301
_cell_length_b                    10.726391
_cell_length_c                    17.055981
_cell_angle_alpha                 80.578038
_cell_angle_beta                  99.244745
_cell_angle_gamma                 118.901062
_cell_volume                      1679.82675191

loop_
_atom_site_label
_atom_site_type_symbol
_atom_type_description
_atom_site_fract_x
_atom_site_fract_y
_atom_site_fract_z
_atom_type_partial_charge
C1    C     C_R   0.384302 0.284023 0.631899 0.510336
C2    C     C_1   0.333560 0.186843 0.781528 -0.027249
C3    C     C_1   0.336305 0.663549 0.277633 0.017146
C4    C     C_R   0.413990 0.620225 0.601633 0.583368
C5    C     C_1   0.323472 0.672662 0.206910 0.011782
C6    C     C_R   0.809190 0.656686 0.152144 0.020136
C7    C     C_R   0.788832 0.532354 0.202304 -0.047486
C8    C     C_R   0.779389 0.525568 0.281704 -0.027928
C9    C     C_R   0.780849 0.753473 0.262768 -0.083072
C10   C     C_R   0.789280 0.760980 0.181029 0.350289
C11   C     C_3   0.872396 0.449457 0.218872 -0.185135
C12   C     C_R   0.517142 0.719119 0.732486 0.335975
C13   C     C_3   0.859065 0.441461 0.306555 -0.196687
C14   C     C_R   0.790281 0.641054 0.314633 -0.045227
C15   C     C_R   0.338637 0.185124 0.154740 0.013323
C16   C     C_R   0.776410 0.618752 0.626981 0.583167
C17   C     C_R   0.260381 0.242953 0.179116 -0.159808
C18   C     C_R   0.265604 0.254588 0.258362 0.048246
C19   C     C_R   0.448275 0.179875 0.290642 -0.125757
C20   C     C_R   0.445614 0.169470 0.209886 0.349040
C21   C     C_3   0.104896 0.208735 0.164774 -0.147388
C22   C     C_3   0.112082 0.221546 0.252570 0.730556
C23   C     C_R   0.498205 0.736729 0.808677 0.090275
C24   C     C_R   0.346870 0.208397 0.315927 -0.038365
C25   C     C_R   0.891037 0.701606 0.856063 0.575025
C26   C     C_R   0.317581 0.706206 0.898854 0.592954
C27   C     C_R   0.286592 0.118453 0.858384 0.541938
C28   C     C_R   0.354379 0.233188 0.397190 0.580701
C29   C     C_R   0.883272 0.689228 0.082058 0.563243
C30   C     C_R   0.313033 0.700439 0.123795 0.545541
C31   C     C_R   0.287945 0.111443 0.083506 0.556653
C32   C     C_R   0.365537 0.653957 0.360667 0.559386
C33   C     C_R   0.765602 0.619247 0.397362 0.571992
C34   C     C_3   0.100796 0.474363 0.777726 0.328991
C35   C     C_R   0.359930 0.654979 0.838020 -0.019521
C36   C     C_R   0.259545 0.536312 0.798196 -0.082093
C37   C     C_R   0.280925 0.518104 0.723959 -0.114296
C38   C     C_3   0.124258 0.452991 0.696455 0.343133
C39   C     C_R   0.402318 0.619218 0.686012 0.010371
C40   C     C_1   0.821446 0.656168 0.706262 0.101253
C41   C     C_1   0.849027 0.683974 0.774025 0.086251
C42   C     C_1   0.364496 0.233637 0.714285 -0.031811
Cr1   Cr    Cr6+3 0.608440 0.389080 0.519680 1.079396
Cr2   Cr    Cr6+3 0.288640 0.400090 0.490760 1.110549
Cr3   Cr    Cr6+3 0.602940 0.710800 0.489510 1.102346
Cr4   Cr    Cr6+3 0.052530 0.947560 0.964210 1.095580
Cr5   Cr    Cr6+3 0.059970 0.626800 0.992920 1.057512
Cr6   Cr    Cr6+3 0.373320 0.938440 0.995370 1.140366
F1    F     F_    0.643617 0.809126 0.701166 -0.615465
F2    F     F_    0.535273 0.127294 0.188291 -0.611209
F3    F     F_    0.095671 0.335581 0.267156 -0.636777
F4    F     F_    0.027023 0.093854 0.295407 -0.602640
F5    F     F_    0.054530 0.575657 0.772672 -0.584000
F6    F     F_    0.091925 0.537735 0.634927 -0.546264
F7    F     F_    0.790656 0.875110 0.132385 -0.608105
H1    H     H_    0.812822 0.343505 0.194788 0.226272
H2    H     H_    0.985934 0.513601 0.204658 0.190968
H3    H     H_    0.789722 0.331286 0.332922 0.179272
H4    H     H_    0.963631 0.501526 0.341720 0.172117
H5    H     H_    0.524537 0.159283 0.333333 0.160619
H6    H     H_    0.031212 0.098207 0.149222 0.218848
H7    H     H_    0.089171 0.294155 0.125018 0.134074
H8    H     H_    0.037866 0.373395 0.814895 0.087342
H9    H     H_    0.077117 0.339014 0.685257 0.094198
H10   H     H_    0.771212 0.836827 0.285355 0.216113
I1    I     I_    0.681258 0.903721 0.867080 -0.170059
O1    O     O_R   0.754020 0.497590 0.609930 -0.465856
O2    O     O_R   0.406180 0.826930 0.920660 -0.485839
O3    O     O_R   0.358620 0.062870 0.901950 -0.486654
O4    O     O_R   0.481420 0.271390 0.600630 -0.466486
O5    O     O_R   0.163910 0.085460 0.050210 -0.532875
O6    O     O_R   0.935200 0.815170 0.045770 -0.436729
O7    O     O_R   0.916120 0.596690 0.069430 -0.540642
O8    O     O_R   0.192310 0.631200 0.086170 -0.526123
O9    O     O_R   0.406770 0.819480 0.096420 -0.441622
O10   O     O_R   0.359170 0.055960 0.064880 -0.433309
O11   O     O_3   0.161940 0.837600 0.984160 -0.287405
O12   O     O_R   0.295080 0.533620 0.397890 -0.465026
O13   O     O_R   0.263810 0.254550 0.589590 -0.495336
O14   O     O_R   0.300820 0.531200 0.560890 -0.472552
O15   O     O_R   0.491480 0.744020 0.564270 -0.421602
O16   O     O_R   0.726290 0.693800 0.583010 -0.488050
O17   O     O_R   0.747830 0.500190 0.434090 -0.498531
O18   O     O_R   0.475680 0.273800 0.437630 -0.512792
O19   O     O_R   0.257620 0.257160 0.413750 -0.428068
O20   O     O_R   0.485280 0.746620 0.388440 -0.504307
O21   O     O_R   0.720550 0.696220 0.420010 -0.497217
O22   O     O_3   0.500010 0.499990 0.499980 -0.349644
O23   O     O_R   0.163320 0.092900 0.874450 -0.509932
O24   O     O_R   0.934650 0.822080 0.882840 -0.472550
O25   O     O_R   0.915520 0.604140 0.893670 -0.476825
O26   O     O_R   0.191760 0.638110 0.923230 -0.464330

loop_
_geom_bond_atom_site_label_1
_geom_bond_atom_site_label_2
_ccdc_geom_bond_type
C8    C13   S    
C28   O18   A    
Cr1   O17   S    
Cr5   O26   S    
Cr6   O10   S    
C19   C20   A    
Cr6   O3    S    
C14   C33   S    
C12   F1    S    
C7    C8    A    
Cr4   O23   S    
C7    C11   S    
C12   C23   A    
C25   O24   A    
C18   C24   A    
Cr1   O22   S    
C23   I1    S    
C36   C37   A    
Cr3   O21   S    
C4    O14   A    
Cr4   O6    S    
C30   O8    A    
C29   O7    A    
C26   O26   A    
C20   F2    S    
C4    O15   A    
Cr3   O16   S    
C27   O23   A    
C2    C27   S    
C9    C10   A    
C21   H6    S    
C27   O3    A    
C29   O6    A    
C31   O5    A    
C34   C38   S    
C21   C22   S    
Cr1   O18   S    
Cr6   O9    S    
C38   H9    S    
C15   C20   A    
C25   O25   A    
Cr2   O14   S    
Cr3   O22   S    
Cr5   O7    S    
C25   C41   S    
C13   H3    S    
C17   C21   S    
C35   C36   A    
Cr6   O11   S    
C9    C14   A    
C37   C38   S    
C1    C42   S    
C38   F6    S    
C4    C39   S    
C32   O20   A    
C16   O16   A    
C17   C18   A    
C21   H7    S    
C16   O1    A    
Cr6   O2    S    
C10   F7    S    
C33   O17   A    
Cr4   O5    S    
C16   C40   S    
Cr4   O24   S    
C40   C41   T    
Cr1   O4    S    
C23   C35   A    
C1    O13   A    
Cr5   O11   S    
Cr2   O19   S    
C22   F4    S    
C5    C30   S    
C15   C17   A    
C8    C14   A    
C18   C22   S    
Cr5   O25   S    
Cr2   O13   S    
Cr3   O15   S    
C24   C28   S    
Cr5   O8    S    
C3    C5    T    
C6    C10   A    
Cr4   O11   S    
C15   C31   S    
C6    C7    A    
C13   H4    S    
C19   H5    S    
C1    O4    A    
C26   O2    A    
C12   C39   A    
Cr2   O12   S    
C19   C24   A    
C33   O21   A    
C37   C39   A    
Cr2   O22   S    
C30   O9    A    
C11   C13   S    
C31   O10   A    
C2    C42   T    
C34   H8    S    
Cr3   O20   S    
C34   C36   S    
C3    C32   S    
C9    H10   S    
C32   O12   A    
C26   C35   S    
C6    C29   S    
C34   F5    S    
Cr1   O1    S    
C28   O19   A    
C11   H2    S    
C11   H1    S    
C22   F3    S    
