data_mof_unit_2712.cif
_audit_creation_date              2012-12-11T14:21:18-0500
_audit_creation_method            fapswitch 2.2
_symmetry_space_group_name_H-M    P1
_symmetry_Int_Tables_number       1
_space_group_crystal_system       triclinic
_cell_length_a                    11.540086
_cell_length_b                    11.515172
_cell_length_c                    19.571387
_cell_angle_alpha                 90.359928
_cell_angle_beta                  90.262215
_cell_angle_gamma                 60.039036
_cell_volume                      2253.16625831

loop_
_atom_site_label
_atom_site_type_symbol
_atom_type_description
_atom_site_fract_x
_atom_site_fract_y
_atom_site_fract_z
_atom_type_partial_charge
C1    C     C_R   0.640598 0.117156 0.599290 0.542721
C2    C     C_1   0.653529 0.149280 0.668627 0.004772
C3    C     C_R   0.669704 0.668837 0.192505 0.039702
C4    C     C_R   0.613746 0.743549 0.598019 0.549608
C5    C     C_R   0.539641 0.743230 0.218500 -0.065107
C6    C     C_R   0.522006 0.730458 0.287787 -0.034263
C7    C     C_R   0.762447 0.631774 0.306608 -0.139807
C8    C     C_R   0.782001 0.607719 0.237044 0.228747
C9    C     C_R   0.427259 0.806694 0.174901 -0.138525
C10   C     C_R   0.303348 0.824891 0.195572 0.325728
C11   C     C_R   0.289157 0.791225 0.262074 0.289594
C12   C     C_1   0.651409 0.683812 0.664286 0.001843
C13   C     C_R   0.397092 0.745443 0.307913 -0.131209
C14   C     C_R   0.634131 0.692050 0.332423 -0.007907
C15   C     C_R   0.157177 0.185852 0.188500 0.036844
C16   C     C_R   0.241173 0.145079 0.598261 0.551448
C17   C     C_R   0.249256 0.225990 0.207498 -0.066668
C18   C     C_R   0.272351 0.235625 0.277678 0.027398
C19   C     C_R   0.165025 0.101873 0.301797 -0.160254
C20   C     C_R   0.110021 0.129041 0.236696 0.243619
C21   C     C_R   0.303129 0.273994 0.157926 -0.097950
C22   C     C_R   0.342784 0.364817 0.175969 -0.111535
C23   C     C_1   0.126014 0.199264 0.859167 0.006865
C24   C     C_R   0.335241 0.402958 0.243563 -0.051989
C25   C     C_R   0.307304 0.336408 0.295666 0.281090
C26   C     C_R   0.246938 0.151919 0.323420 -0.028730
C27   C     C_R   0.671720 0.191723 0.195312 0.034624
C28   C     C_R   0.647565 0.110799 0.402445 0.533701
C29   C     C_R   0.721180 0.059387 0.217645 0.001303
C30   C     C_R   0.751149 0.033110 0.287176 -0.098994
C31   C     C_R   0.628036 0.273244 0.313165 0.201525
C32   C     C_R   0.632299 0.297463 0.243197 0.233261
C33   C     C_R   0.759290 0.950980 0.171327 0.217973
C34   C     C_1   0.171409 0.170187 0.727681 -0.030401
C35   C     C_R   0.858510 0.822257 0.190826 -0.001206
C36   C     C_R   0.910985 0.799027 0.256628 0.282178
C37   C     C_R   0.854927 0.902946 0.305130 -0.086434
C38   C     C_R   0.681588 0.140330 0.335000 -0.030315
C39   C     C_R   0.081359 0.231375 0.928458 0.524025
C40   C     C_R   0.613655 0.740147 0.402046 0.551051
C41   C     C_R   0.708546 0.546822 0.922692 0.548526
C42   C     C_R   0.708180 0.206815 0.930069 0.542745
C43   C     C_R   0.084330 0.234302 0.124578 0.587137
C44   C     C_R   0.684179 0.612324 0.124997 0.586094
C45   C     C_1   0.149597 0.182630 0.798875 -0.029600
C46   C     C_R   0.707724 0.212043 0.126943 0.658204
C47   C     C_R   0.298368 0.119174 0.393542 0.564658
C48   C     C_1   0.697937 0.581995 0.851916 0.003721
C49   C     C_1   0.672524 0.645449 0.722534 -0.029175
C50   C     C_1   0.688367 0.609700 0.792139 -0.030625
C51   C     C_1   0.195488 0.160528 0.667416 0.002980
C52   C     C_1   0.678252 0.191842 0.860657 0.003920
C53   C     C_1   0.658940 0.167129 0.728958 -0.030061
C54   C     C_1   0.665623 0.181306 0.800222 -0.031315
Cr1   Cr    Cr6+3 0.404720 0.198220 0.499960 1.071907
Cr2   Cr    Cr6+3 0.698290 0.897110 0.500380 1.018951
Cr3   Cr    Cr6+3 0.396970 0.904720 0.499610 1.020225
Cr4   Cr    Cr6+3 0.926180 0.151990 0.028120 1.087843
Cr5   Cr    Cr6+3 0.921330 0.451820 0.027470 1.056370
Cr6   Cr    Cr6+3 0.626260 0.446870 0.028710 1.051972
H1    H     H_    0.897186 0.740400 0.154323 0.161751
H2    H     H_    0.589852 0.481572 0.259283 0.364394
H3    H     H_    0.035838 0.669810 0.321808 0.316240
H4    H     H_    0.902980 0.882555 0.354430 0.143827
H5    H     H_    0.439322 0.829053 0.122578 0.107954
H6    H     H_    0.970984 0.476350 0.250776 0.346683
H7    H     H_    0.223768 0.886013 0.105802 0.306028
H8    H     H_    0.171630 0.784043 0.330570 0.288402
H9    H     H_    0.302679 0.251338 0.104155 0.133874
H10   H     H_    0.982710 0.070940 0.260588 0.338480
H11   H     H_    0.384083 0.710224 0.356598 0.156563
H12   H     H_    0.135568 0.049442 0.337250 0.140871
H13   H     H_    0.847212 0.597937 0.340906 0.131222
H14   H     H_    0.372262 0.411353 0.137089 0.157037
H15   H     H_    0.354408 0.483699 0.255722 0.169645
H16   H     H_    0.315992 0.459083 0.362955 0.331007
H17   H     H_    0.608974 0.347332 0.405138 0.334973
H18   H     H_    0.737753 0.887560 0.082226 0.319206
O1    O     O_R   0.267740 0.231960 0.575440 -0.499966
O2    O     O_R   0.596130 0.579390 0.952730 -0.509531
O3    O     O_R   0.639060 0.321160 0.958670 -0.519354
O4    O     O_R   0.527280 0.186640 0.570530 -0.496252
O5    O     O_R   0.821240 0.124200 0.104370 -0.434331
O6    O     O_R   0.036890 0.167040 0.097840 -0.445113
O7    O     O_R   0.056180 0.349610 0.102880 -0.481351
O8    O     O_R   0.797660 0.564870 0.097950 -0.454166
O9    O     O_R   0.595880 0.584250 0.104270 -0.485260
O10   O     O_R   0.638830 0.325670 0.099150 -0.468507
O11   O     O_3   0.824590 0.350230 0.028100 -0.291178
O12   O     O_R   0.685970 0.784660 0.430010 -0.504276
O13   O     O_R   0.728090 0.003450 0.576380 -0.504242
O14   O     O_R   0.682970 0.789190 0.570490 -0.490189
O15   O     O_R   0.499290 0.771880 0.575530 -0.502803
O16   O     O_R   0.285330 0.030870 0.569730 -0.490654
O17   O     O_R   0.270980 0.227080 0.423890 -0.427047
O18   O     O_R   0.530280 0.182120 0.430050 -0.466730
O19   O     O_R   0.731330 0.998570 0.424830 -0.539355
O20   O     O_3   0.296748 0.384245 0.361360 -0.647884
O21   O     O_3   0.576358 0.380216 0.358417 -0.740143
O22   O     O_3   0.700986 0.973922 0.107285 -0.711644
O23   O     O_R   0.502530 0.767000 0.423990 -0.532831
O24   O     O_3   0.599840 0.423219 0.220060 -0.681942
O25   O     O_3   0.015888 0.673492 0.272285 -0.664656
O26   O     O_3   0.908717 0.521427 0.212160 -0.638222
O27   O     O_3   0.197070 0.867954 0.150824 -0.603881
O28   O     O_3   0.168138 0.805391 0.281342 -0.656958
O29   O     O_3   0.007767 0.104255 0.219871 -0.617582
O30   O     O_R   0.288330 0.026350 0.429250 -0.517941
O31   O     O_3   0.499990 0.000020 0.499980 -0.277360
O32   O     O_R   0.821500 0.119340 0.952830 -0.499431
O33   O     O_R   0.037130 0.162530 0.957360 -0.510500
O34   O     O_R   0.056440 0.344740 0.951340 -0.519784
O35   O     O_R   0.797900 0.560360 0.957470 -0.499902

loop_
_geom_bond_atom_site_label_1
_geom_bond_atom_site_label_2
_ccdc_geom_bond_type
C28   O19   A    
C23   C45   T    
C27   C29   A    
C19   C20   A    
C18   C26   A    
C16   C51   S    
C41   O2    A    
C12   C49   T    
Cr6   O10   S    
C7    C8    A    
C7    H13   S    
C53   C54   S    
C18   C25   A    
C34   C51   T    
C36   O25   S    
C36   C37   A    
H10   O29   S    
C5    C6    A    
H16   O20   S    
C29   C33   A    
C30   C38   A    
C1    C2    S    
Cr5   O11   S    
C19   C26   A    
C40   O23   A    
Cr2   O13   S    
Cr3   O31   S    
C35   C36   A    
C31   O21   S    
C4    C12   S    
C44   O9    A    
C9    C10   A    
C20   O29   S    
C4    O14   A    
C39   O33   A    
C1    O13   A    
Cr3   O15   S    
C21   C22   A    
Cr1   O31   S    
C43   O6    A    
C19   H12   S    
C42   O3    A    
H8    O28   S    
Cr2   O19   S    
C44   O8    A    
Cr6   O9    S    
C52   C54   T    
Cr5   O34   S    
C46   O10   A    
C7    C14   A    
C15   C20   A    
C3    C44   S    
Cr4   O33   S    
C43   O7    A    
H6    O26   S    
C24   C25   A    
Cr1   O17   S    
C3    C8    A    
H7    O27   S    
C13   H11   S    
C1    O4    A    
Cr6   O11   S    
C17   C21   A    
C4    O15   A    
C30   C37   A    
C21   H9    S    
Cr5   O7    S    
C5    C9    A    
C29   C30   A    
Cr4   O6    S    
C6    C14   A    
Cr1   O1    S    
Cr6   O3    S    
C31   C32   A    
C28   C38   S    
Cr5   O35   S    
C11   O28   S    
C17   C18   A    
C35   H1    S    
C34   C45   S    
Cr1   O4    S    
C8    O26   S    
C26   C47   S    
C27   C46   S    
H3    O25   S    
C39   O34   A    
C49   C50   S    
Cr3   O16   S    
H18   O22   S    
C32   O24   S    
C22   H14   S    
Cr2   O31   S    
C37   H4    S    
C15   C17   A    
Cr6   O2    S    
Cr2   O12   S    
C27   C32   A    
Cr4   O32   S    
C41   O35   A    
Cr1   O18   S    
C3    C5    A    
C2    C53   T    
C24   H15   S    
Cr3   O23   S    
C16   O16   A    
C31   C38   A    
C28   O18   A    
C16   O1    A    
C33   O22   S    
C42   O32   A    
Cr5   O8    S    
C15   C43   S    
Cr4   O5    S    
C6    C13   A    
C11   C13   A    
C23   C39   S    
C48   C50   T    
C33   C35   A    
C41   C48   S    
H17   O21   S    
C22   C24   A    
Cr4   O11   S    
C9    H5    S    
C10   C11   A    
C14   C40   S    
C46   O5    A    
C25   O20   S    
Cr2   O14   S    
Cr3   O30   S    
C47   O30   A    
C47   O17   A    
C10   O27   S    
C40   O12   A    
C42   C52   S    
H2    O24   S    
