data_mof_unit_3496.cif
_audit_creation_date              2012-12-10T20:29:23-0500
_audit_creation_method            fapswitch 2.2
_symmetry_space_group_name_H-M    P1
_symmetry_Int_Tables_number       1
_space_group_crystal_system       triclinic
_cell_length_a                    18.629833
_cell_length_b                    18.717046
_cell_length_c                    18.807535
_cell_angle_alpha                 109.594881
_cell_angle_beta                  109.462225
_cell_angle_gamma                 109.318994
_cell_volume                      5050.74599985

loop_
_atom_site_label
_atom_site_type_symbol
_atom_type_description
_atom_site_fract_x
_atom_site_fract_y
_atom_site_fract_z
_atom_type_partial_charge
C1    C     C_R   0.381434 0.501779 0.380057 0.870255
C2    C     C_R   0.783019 0.823961 0.832613 -0.114450
C3    C     C_R   0.332017 0.294053 0.785922 -0.115525
C4    C     C_R   0.081192 0.328031 0.817618 0.447766
C5    C     C_R   0.999785 0.314649 0.811740 -0.206483
C6    C     C_R   0.920164 0.239478 0.741879 -0.069341
C7    C     C_R   0.922761 0.177824 0.678615 -0.255934
C8    C     C_R   0.002979 0.189193 0.685596 -0.144923
C9    C     C_R   0.083131 0.263116 0.755593 -0.130410
C10   C     C_R   0.783012 0.157239 0.741014 -0.144587
C11   C     C_R   0.700274 0.142213 0.729849 -0.142057
C12   C     C_R   0.667149 0.193686 0.708627 -0.105190
C13   C     C_R   0.824024 0.821962 0.577264 -0.256568
C14   C     C_R   0.716534 0.260045 0.698268 -0.127080
C15   C     C_R   0.799336 0.275346 0.709572 -0.137590
C16   C     C_R   0.833246 0.224382 0.731490 0.169496
C17   C     C_R   0.812485 0.811362 0.496428 -0.064195
C18   C     C_R   0.736086 0.740751 0.418110 0.035776
C19   C     C_R   0.678264 0.676180 0.423216 -0.264048
C20   C     C_R   0.689959 0.686558 0.503893 -0.083599
C21   C     C_R   0.760953 0.762258 0.582243 -0.011671
C22   C     C_R   0.626888 0.723865 0.284185 -0.210217
C23   C     C_R   0.597244 0.711780 0.200201 0.016143
C24   C     C_R   0.650469 0.711009 0.162606 -0.309253
C25   C     C_R   0.622624 0.620236 0.502645 0.845309
C26   C     C_R   0.735333 0.724128 0.209826 0.592749
C27   C     C_R   0.763021 0.734151 0.293445 -0.175763
C28   C     C_R   0.709633 0.734356 0.331314 0.030783
C29   C     C_R   0.444551 0.809740 0.518053 -0.135766
C30   C     C_R   0.376289 0.726826 0.448841 -0.159022
C31   C     C_R   0.394098 0.669506 0.396507 0.142467
C32   C     C_R   0.480860 0.696756 0.413684 -0.119029
C33   C     C_R   0.548872 0.779934 0.482690 -0.120864
C34   C     C_R   0.530793 0.836235 0.535023 -0.102982
C35   C     C_R   0.255904 0.578885 0.255769 -0.261573
C36   C     C_R   0.621948 0.501473 0.619652 0.913279
C37   C     C_R   0.186911 0.498270 0.183865 -0.069668
C38   C     C_R   0.182000 0.419162 0.176040 -0.003226
C39   C     C_R   0.247909 0.422650 0.241448 -0.259216
C40   C     C_R   0.316727 0.503251 0.313816 -0.079052
C41   C     C_R   0.321342 0.582502 0.321935 0.000267
C42   C     C_R   0.051213 0.273238 0.110089 -0.136263
C43   C     C_R   0.984648 0.190915 0.038476 -0.138715
C44   C     C_R   0.977869 0.167030 0.956684 -0.110184
C45   C     C_R   0.037715 0.225379 0.946416 -0.125594
C46   C     C_R   0.103789 0.308160 0.017646 -0.143333
C47   C     C_R   0.378800 0.379918 0.498938 0.882159
C48   C     C_R   0.110787 0.332607 0.099908 0.122875
C49   C     C_R   0.201241 0.512919 0.552733 -0.139789
C50   C     C_R   0.218162 0.446854 0.557913 -0.144784
C51   C     C_R   0.221117 0.389509 0.489450 0.136400
C52   C     C_R   0.205730 0.398328 0.415310 -0.139611
C53   C     C_R   0.187775 0.463880 0.410002 -0.126589
C54   C     C_R   0.186068 0.521431 0.478829 -0.103878
C55   C     C_R   0.174227 0.252237 0.493535 -0.266318
C56   C     C_R   0.186354 0.183503 0.497114 -0.080756
C57   C     C_R   0.261375 0.179039 0.500896 0.024660
C58   C     C_R   0.782075 0.882119 0.801744 -0.152439
C59   C     C_R   0.323593 0.244638 0.500717 -0.264073
C60   C     C_R   0.311616 0.313564 0.497639 -0.078258
C61   C     C_R   0.236845 0.318295 0.494292 -0.007221
C62   C     C_R   0.346630 0.124363 0.578437 -0.277373
C63   C     C_R   0.360047 0.055686 0.583631 0.608032
C64   C     C_R   0.304347 0.970877 0.511484 -0.195643
C65   C     C_R   0.234713 0.953620 0.437203 -0.224981
C66   C     C_R   0.220113 0.021185 0.433691 -0.125434
C67   C     C_R   0.276048 0.106914 0.504276 0.081825
C68   C     C_R   0.779531 0.517467 0.611505 -0.157865
C69   C     C_R   0.775125 0.861953 0.720262 -0.156775
C70   C     C_R   0.851779 0.517991 0.604485 -0.139380
C71   C     C_R   0.910023 0.505969 0.661534 -0.147908
C72   C     C_R   0.897598 0.495854 0.727328 -0.164657
C73   C     C_R   0.826261 0.498208 0.737619 0.095534
C74   C     C_R   0.764575 0.505630 0.676963 0.022105
C75   C     C_R   0.690041 0.501477 0.684013 -0.254952
C76   C     C_R   0.676305 0.489552 0.749017 0.517771
C77   C     C_R   0.739538 0.487225 0.810942 -0.339512
C78   C     C_R   0.813915 0.492251 0.806109 -0.202500
C79   C     C_R   0.998426 0.877834 0.380371 0.895477
C80   C     C_R   0.769532 0.783430 0.669144 0.136404
C81   C     C_R   0.879448 0.877944 0.497665 0.866225
C82   C     C_R   0.001113 0.121204 0.619883 0.908865
C83   C     C_R   0.120301 0.118686 0.498673 0.878763
C84   C     C_R   0.999519 0.379854 0.879106 0.916553
C85   C     C_R   0.120278 0.498843 0.118838 0.880309
C86   C     C_R   0.999630 0.620215 0.119718 0.910708
C87   C     C_R   0.879879 0.496570 0.876679 0.888512
C88   C     C_R   0.063798 0.755670 0.544058 -0.139540
C89   C     C_R   0.069956 0.769221 0.477077 -0.109380
C90   C     C_R   0.995128 0.724317 0.394342 0.162846
C91   C     C_R   0.772344 0.726396 0.701537 -0.113757
C92   C     C_R   0.915233 0.662767 0.378514 -0.124356
C93   C     C_R   0.909171 0.649726 0.445751 -0.146143
C94   C     C_R   0.983322 0.696434 0.528582 -0.107316
C95   C     C_R   0.003359 0.677356 0.258828 0.491235
C96   C     C_R   0.000727 0.686663 0.186870 -0.193221
C97   C     C_R   0.001698 0.760264 0.181323 -0.057565
C98   C     C_R   0.001789 0.822348 0.246910 -0.219861
C99   C     C_R   0.999706 0.811357 0.315913 -0.103306
C100  C     C_R   0.000726 0.739024 0.323108 -0.130392
C101  C     C_R   0.066197 0.850690 0.123235 -0.155492
C102  C     C_R   0.777765 0.746010 0.782331 -0.108897
C103  C     C_R   0.064725 0.864032 0.054043 -0.143978
C104  C     C_R   0.997571 0.800639 0.968699 -0.116486
C105  C     C_R   0.931619 0.724074 0.952539 -0.117506
C106  C     C_R   0.932343 0.710684 0.021487 -0.125505
C107  C     C_R   0.000319 0.773523 0.107424 0.144170
C108  C     C_R   0.304963 0.276690 0.842123 -0.157262
C109  C     C_R   0.223865 0.266736 0.832313 -0.066361
C110  C     C_R   0.168801 0.273011 0.765323 0.176696
C111  C     C_R   0.196175 0.290127 0.708824 -0.180616
C112  C     C_R   0.278010 0.301478 0.719833 -0.118210
H1    H     H_    0.787599 0.839159 0.895335 0.126360
H2    H     H_    0.624742 0.699348 0.096617 0.142625
H3    H     H_    0.826732 0.742363 0.329241 0.121144
H4    H     H_    0.583546 0.900524 0.588460 0.123867
H5    H     H_    0.430551 0.853559 0.558366 0.140550
H6    H     H_    0.309684 0.707114 0.436200 0.111396
H7    H     H_    0.495501 0.653845 0.373225 0.099533
H8    H     H_    0.615560 0.801001 0.495444 0.139571
H9    H     H_    0.258510 0.639151 0.260374 0.150662
H10   H     H_    0.245090 0.362190 0.236425 0.156468
H11   H     H_    0.786083 0.942519 0.840643 0.121878
H12   H     H_    0.056156 0.290945 0.173289 0.123243
H13   H     H_    0.938539 0.145494 0.046455 0.125061
H14   H     H_    0.926583 0.103160 0.901383 0.115527
H15   H     H_    0.033034 0.206174 0.883303 0.133456
H16   H     H_    0.150028 0.352785 0.009110 0.162293
H17   H     H_    0.172474 0.572269 0.474651 0.121184
H18   H     H_    0.199432 0.557231 0.605823 0.123887
H19   H     H_    0.229231 0.440479 0.615247 0.118618
H20   H     H_    0.206567 0.353875 0.361434 0.105920
H21   H     H_    0.174663 0.469916 0.352415 0.136828
H22   H     H_    0.773214 0.907080 0.696612 0.116188
H23   H     H_    0.116168 0.254848 0.491107 0.157459
H24   H     H_    0.381824 0.242287 0.503433 0.152653
H25   H     H_    0.390236 0.191237 0.631426 0.121233
H26   H     H_    0.314794 0.917776 0.513266 0.135945
H27   H     H_    0.192060 0.887669 0.382256 0.154356
H28   H     H_    0.165785 0.006967 0.375836 0.113262
H29   H     H_    0.736580 0.527286 0.565471 0.144937
H30   H     H_    0.862062 0.526877 0.553990 0.129261
H31   H     H_    0.769499 0.666648 0.663831 0.091737
H32   H     H_    0.965111 0.504501 0.654855 0.129451
H33   H     H_    0.943493 0.484306 0.768294 0.143011
H34   H     H_    0.730925 0.482757 0.863848 0.183954
H35   H     H_    0.978557 0.686266 0.580572 0.124076
H36   H     H_    0.121396 0.791171 0.607987 0.120043
H37   H     H_    0.132669 0.815168 0.489746 0.122662
H38   H     H_    0.857597 0.625412 0.314313 0.142127
H39   H     H_    0.847054 0.603302 0.433608 0.136452
H40   H     H_    0.002002 0.879169 0.243496 0.150689
H41   H     H_    0.777163 0.700452 0.805604 0.129445
H42   H     H_    0.118886 0.900199 0.189057 0.125455
H43   H     H_    0.115761 0.923449 0.066588 0.133112
H44   H     H_    0.996558 0.810835 0.915101 0.133233
H45   H     H_    0.880063 0.674964 0.886514 0.133487
H46   H     H_    0.880054 0.651487 0.007963 0.114073
H47   H     H_    0.394983 0.302168 0.793818 0.114476
H48   H     H_    0.347004 0.271306 0.893528 0.128018
H49   H     H_    0.203720 0.253764 0.876509 0.120948
H50   H     H_    0.154771 0.295967 0.657372 0.107231
H51   H     H_    0.299828 0.316280 0.677380 0.140499
H52   H     H_    0.880779 0.879214 0.636937 0.154990
H53   H     H_    0.861923 0.119764 0.624227 0.164811
H54   H     H_    0.808086 0.116953 0.757344 0.116237
H55   H     H_    0.661750 0.090552 0.737422 0.137041
H56   H     H_    0.603077 0.181905 0.699747 0.164912
H57   H     H_    0.690444 0.299293 0.681060 0.138698
H58   H     H_    0.836668 0.326027 0.700363 0.111422
H59   H     H_    0.620534 0.619693 0.363715 0.160167
H60   H     H_    0.585066 0.724209 0.312743 0.144377
O1    O     O_R   0.408360 0.551710 0.460090 -0.605785
O2    O     O_R   0.948280 0.908380 0.356650 -0.611210
O3    O     O_R   0.960110 0.908350 0.551690 -0.618967
O4    O     O_R   0.856660 0.908370 0.448270 -0.621144
O5    O     O_R   0.051720 0.091580 0.643310 -0.619616
O6    O     O_R   0.948270 0.091600 0.539890 -0.624309
O7    O     O_R   0.143340 0.091590 0.551680 -0.604936
O8    O     O_R   0.039890 0.091610 0.448270 -0.631480
O9    O     O_R   0.051710 0.460040 0.908380 -0.611056
O10   O     O_R   0.948270 0.356620 0.908410 -0.613765
O11   O     O_R   0.143330 0.551680 0.091590 -0.613555
O12   O     O_R   0.408390 0.448280 0.356670 -0.626139
O13   O     O_R   0.039890 0.448260 0.091620 -0.608382
O14   O     O_R   0.051700 0.643310 0.091570 -0.626519
O15   O     O_R   0.948260 0.539890 0.091600 -0.574852
O16   O     O_R   0.960080 0.551670 0.908360 -0.629732
O17   O     O_R   0.856640 0.448250 0.908390 -0.621713
O18   O     O_R   0.591600 0.643340 0.551710 -0.607531
O19   O     O_R   0.591630 0.539900 0.448290 -0.634862
O20   O     O_R   0.591610 0.551720 0.643330 -0.576240
O21   O     O_R   0.591640 0.448290 0.539910 -0.640056
O22   O     O_R   0.408370 0.460100 0.551710 -0.602211
O23   O     O_R   0.408400 0.356660 0.448290 -0.627276
O24   O     O_R   0.051730 0.908360 0.460070 -0.627059
Zn1   Zn    Zn3+2 0.499980 0.569070 0.569050 1.006389
Zn2   Zn    Zn3+2 0.500020 0.430930 0.430950 0.942119
Zn3   Zn    Zn3+2 0.069080 0.999960 0.569030 0.957705
Zn4   Zn    Zn3+2 0.930920 0.999990 0.430930 0.952770
Zn5   Zn    Zn3+2 0.069060 0.569020 0.999970 0.963313
Zn6   Zn    Zn3+2 0.930920 0.430910 0.000010 0.997013
O25   O     O_3   0.791577 0.722192 0.176390 -0.607835
C113  C     C_3   0.779012 0.748658 0.113303 -0.310249
H61   H     H_    0.773671 0.808932 0.134372 0.153715
H62   H     H_    0.721129 0.694381 0.049295 0.169841
H63   H     H_    0.836808 0.764337 0.104120 0.197151
O26   O     O_3   0.429283 0.068285 0.654438 -0.630523
C114  C     C_3   0.448069 0.132607 0.734522 -0.386443
H64   H     H_    0.387412 0.126224 0.736954 0.169512
H65   H     H_    0.489822 0.199172 0.748199 0.158090
H66   H     H_    0.486287 0.124040 0.787332 0.201096
O27   O     O_3   0.602267 0.483732 0.753997 -0.585930
C115  C     C_3   0.541489 0.394747 0.717103 -0.326982
H67   H     H_    0.566502 0.366985 0.756976 0.152809
H68   H     H_    0.524850 0.355437 0.648721 0.146002
H69   H     H_    0.479839 0.389425 0.715647 0.190702
O28   O     O_3   0.005001 0.605938 0.264614 -0.583389
C116  C     C_3   0.093273 0.626198 0.306431 -0.314887
H70   H     H_    0.130352 0.681009 0.374743 0.143717
H71   H     H_    0.126764 0.642261 0.270302 0.134177
H72   H     H_    0.094552 0.568051 0.308455 0.194618
O29   O     O_3   0.158963 0.400664 0.888946 -0.616103
C117  C     C_3   0.191307 0.462908 0.864831 -0.235771
H73   H     H_    0.237603 0.527726 0.924863 0.195816
H74   H     H_    0.138676 0.469412 0.821990 0.139118
H75   H     H_    0.228651 0.447225 0.832809 0.159557
C118  C     C_1   0.511170 0.698579 0.151853 0.170598
N1    N     N_1   0.441972 0.687893 0.113015 -0.214718

loop_
_geom_bond_atom_site_label_1
_geom_bond_atom_site_label_2
_ccdc_geom_bond_type
C78   C87   S    
C101  C107  A    
C11   H55   S    
C55   C56   A    
C24   H2    S    
C69   H22   S    
C73   C74   A    
O16   Zn5   S    
C47   O22   A    
C95   C96   A    
C51   C61   S    
O19   Zn2   S    
O25   C113  S    
C117  H73   S    
C43   H13   S    
C97   C98   A    
O4    Zn4   S    
C42   H12   S    
C7    C8    A    
C68   C70   A    
C98   H40   S    
C45   C46   A    
C44   C45   A    
C115  H67   S    
O15   Zn6   S    
C44   H14   S    
C58   H11   S    
C37   C38   A    
C39   H10   S    
C83   O8    A    
C56   C83   S    
C8    C82   S    
C81   O3    A    
C37   C85   S    
C84   O9    A    
C35   C37   A    
C24   C26   A    
C25   O18   A    
O24   Zn3   S    
C5    C6    A    
C2    H1    S    
C115  H68   S    
C57   C59   A    
O22   Zn1   S    
C20   C25   S    
C2    C102  A    
C34   H4    S    
C49   C54   A    
C59   H24   S    
C94   H35   S    
C95   O28   S    
C108  C109  A    
C82   O5    A    
C18   C19   A    
C49   C50   A    
C36   O21   A    
C104  C105  A    
C103  C104  A    
C1    C40   S    
C47   C60   S    
C110  C111  A    
C76   O27   S    
C105  H45   S    
C19   C20   A    
C8    C9    A    
C22   C28   A    
C23   C24   A    
C70   C71   A    
C38   C48   S    
C10   H54   S    
C87   O17   A    
O23   Zn2   S    
C88   C89   A    
C89   H37   S    
C66   C67   A    
C7    H53   S    
C86   O15   A    
C101  C103  A    
C36   O20   A    
C3    H47   S    
C77   H34   S    
C79   O2    A    
C111  H50   S    
C57   C67   S    
C14   H57   S    
C90   C100  S    
C118  N1    T    
C46   H16   S    
C1    O12   A    
O21   Zn2   S    
C23   C118  S    
C91   H31   S    
C85   O13   A    
C46   C48   A    
C70   H30   S    
C74   C75   A    
O1    Zn1   S    
C51   C52   A    
C52   H20   S    
C81   O4    A    
C35   H9    S    
C18   C28   S    
C76   C77   A    
O29   C117  S    
C114  H64   S    
C25   O19   A    
C106  C107  A    
C39   C40   A    
C112  H51   S    
C5    C84   S    
C95   C100  A    
O26   C114  S    
C64   H26   S    
C30   H6    S    
C50   C51   A    
C77   C78   A    
C29   H5    S    
C29   C34   A    
C79   O24   A    
C15   H58   S    
C60   C61   A    
O11   Zn5   S    
O13   Zn6   S    
C75   C76   A    
C29   C30   A    
O8    Zn4   S    
C36   C75   S    
C116  H71   S    
C90   C92   A    
C31   C32   A    
C14   C15   A    
C113  H63   S    
O27   C115  S    
C3    C112  A    
C73   C78   A    
C1    O1    A    
C96   C97   A    
C82   O6    A    
C62   C63   A    
C17   C18   A    
C26   C27   A    
C53   H21   S    
C68   H29   S    
C93   C94   A    
C42   C48   A    
O20   Zn1   S    
C104  H44   S    
C102  H41   S    
O3    Zn3   S    
C19   H59   S    
C86   C96   S    
C62   C67   A    
C103  H43   S    
C40   C41   A    
C113  H62   S    
C86   O14   A    
O12   Zn2   S    
C63   O26   S    
C43   C44   A    
C92   H38   S    
O17   Zn6   S    
C93   H39   S    
C42   C43   A    
C32   H7    S    
C117  H75   S    
C116  H70   S    
C52   C53   A    
C13   H52   S    
C105  C106  A    
C79   C99   S    
C47   O23   A    
C9    C110  S    
C56   C57   A    
C54   H17   S    
O6    Zn4   S    
C31   C41   S    
C111  C112  A    
C20   C21   A    
O10   Zn6   S    
C87   O16   A    
O9    Zn5   S    
C12   C14   A    
C4    C5    A    
C115  H69   S    
C117  H74   S    
C12   H56   S    
C11   C12   A    
C2    C58   A    
C58   C69   A    
C53   C54   A    
C6    C7    A    
C108  H48   S    
C83   O7    A    
C3    C108  A    
C4    O29   S    
C49   H18   S    
O2    Zn4   S    
C99   C100  A    
C13   C17   A    
C10   C11   A    
C64   C65   A    
C80   C91   A    
C84   O10   A    
C26   O25   S    
C4    C9    A    
C71   C72   A    
C10   C16   A    
C109  C110  A    
C13   C21   A    
C116  H72   S    
C106  H46   S    
C88   H36   S    
C30   C31   A    
O28   C116  S    
C38   C39   A    
O7    Zn3   S    
C101  H42   S    
C45   H15   S    
C72   C73   A    
C55   H23   S    
C15   C16   A    
C55   C61   A    
C21   C80   S    
C92   C93   A    
C114  H65   S    
C33   C34   A    
C17   C81   S    
C65   C66   A    
C62   H25   S    
C32   C33   A    
C35   C41   A    
C65   H27   S    
C50   H19   S    
C6    C16   S    
C63   C64   A    
C97   C107  S    
C59   C60   A    
C66   H28   S    
C113  H61   S    
O14   Zn5   S    
C33   H8    S    
C85   O11   A    
C98   C99   A    
O5    Zn3   S    
C27   C28   A    
C88   C94   A    
C22   C23   A    
C69   C80   A    
C109  H49   S    
C91   C102  A    
C89   C90   A    
C68   C74   A    
C114  H66   S    
C22   H60   S    
C72   H33   S    
O18   Zn1   S    
C71   H32   S    
C27   H3    S    
