data_mof_unit_3981.cif
_audit_creation_date              2013-03-05T15:45:31-0500
_audit_creation_method            fapswitch 2.2
_symmetry_space_group_name_H-M    P1
_symmetry_Int_Tables_number       1
_space_group_crystal_system       triclinic
_cell_length_a                    9.880529
_cell_length_b                    10.915924
_cell_length_c                    13.352459
_cell_angle_alpha                 94.626165
_cell_angle_beta                  81.606409
_cell_angle_gamma                 110.424207
_cell_volume                      1334.45457263

loop_
_atom_site_label
_atom_site_type_symbol
_atom_site_description
_atom_site_fract_x
_atom_site_fract_y
_atom_site_fract_z
_atom_type_partial_charge
O1    O     O_R   0.426290 0.668220 0.490680 -0.483294
O2    O     O_R   0.659360 0.703290 0.520190 -0.596127
C1    C     C_R   0.557156 0.745575 0.503192 0.923703
O3    O     O_R   0.326580 0.473880 0.629020 -0.556836
O4    O     O_R   0.559660 0.508940 0.658530 -0.598361
C2    C     C_R   0.421947 0.485688 0.690544 0.791113
Cu1   Cu    Cu3+1 0.362000 0.479240 0.482530 1.074196
Cu2   Cu    Cu3+1 0.638000 0.520760 0.517470 0.987405
O5    O     O_R   0.340640 0.296710 0.479810 -0.576612
O6    O     O_R   0.573710 0.331780 0.509320 -0.598945
O7    O     O_R   0.440340 0.491060 0.341470 -0.522251
O8    O     O_R   0.673420 0.526120 0.370980 -0.536602
C3    C     C_R   0.445994 0.254412 0.489767 0.811153
C4    C     C_R   0.576605 0.506879 0.309136 0.860160
C5    C     C_R   0.710518 0.370955 0.060605 -0.245125
H1    H     H_    0.686563 0.281259 0.870710 0.138112
H2    H     H_    0.786741 0.321821 0.030349 0.175695
C6    C     C_R   0.614479 0.487110 0.199389 -0.181623
C7    C     C_R   0.264416 0.532636 0.838547 -0.250891
C8    C     C_R   0.224012 0.542032 0.941930 -0.194971
C9    C     C_R   0.296947 0.507165 0.010677 0.324723
C10   C     C_R   0.418134 0.466080 0.974333 -0.012476
C11   C     C_R   0.443707 0.438427 0.868752 0.049650
C12   C     C_R   0.516330 0.452556 0.037524 0.085411
C13   C     C_R   0.613384 0.385174 0.999559 0.095253
C14   C     C_R   0.615815 0.336191 0.899882 -0.193101
C15   C     C_R   0.535509 0.365702 0.834403 -0.159439
C16   C     C_R   0.526994 0.510318 0.135208 -0.185885
C17   C     C_R   0.712374 0.421642 0.160216 0.335763
C18   C     C_R   0.374049 0.481545 0.800535 -0.100734
H3    H     H_    0.468060 0.574855 0.163818 0.231458
H4    H     H_    0.208566 0.564829 0.788102 0.222723
H5    H     H_    0.133371 0.575109 0.968974 0.177912
H6    H     H_    0.544542 0.328954 0.756959 0.152370
H7    H     H_    0.647544 0.143373 0.469750 0.166806
C19   C     C_2   0.588177 0.885902 0.500470 -0.424156
C20   C     C_2   0.524031 0.937512 0.441143 0.398975
H8    H     H_    0.315138 0.046990 0.466845 0.212345
C21   C     C_2   0.424252 0.115491 0.472529 -0.258433
C22   C     C_2   0.539290 0.075189 0.460249 -0.233307
H9    H     H_    0.656688 0.947937 0.554607 0.115387
H10   H     H_    0.879098 0.426574 0.427500 0.193989
N1    N     N_2   0.845330 0.551960 0.543750 -0.226128
C23   C     C_2   0.925634 0.493400 0.487844 -0.108879
H11   H     H_    0.093865 0.360179 0.424965 0.194162
N2    N     N_2   0.154690 0.448120 0.456210 -0.310656
C24   C     C_2   0.084620 0.525709 0.495170 0.430076
N3    N     N_R   0.816507 0.408903 0.218968 0.117799
O9    O     O_R   0.838691 0.298101 0.218103 -0.339851
O10   O     O_R   0.911378 0.514046 0.252880 -0.289019
N4    N     N_R   0.453098 0.865636 0.356280 0.187400
O11   O     O_R   0.362673 0.904795 0.317163 -0.285302
O12   O     O_R   0.501546 0.779726 0.304888 -0.365335
N5    N     N_R   0.161074 0.651805 0.537034 0.153029
O13   O     O_R   0.159374 0.755841 0.496854 -0.340349
O14   O     O_R   0.202006 0.662247 0.626448 -0.403190
C25   C     C_R   0.877532 0.600090 0.643130 0.355488
C26   C     C_R   0.888622 0.729158 0.672699 -0.054195
C27   C     C_R   0.913669 0.775552 0.771433 -0.166054
C28   C     C_R   0.926590 0.693086 0.841495 -0.077210
C29   C     C_R   0.914170 0.564076 0.812954 -0.143523
C30   C     C_R   0.888386 0.517031 0.714524 -0.168717
H12   H     H_    0.880161 0.794381 0.618982 0.151296
H13   H     H_    0.923179 0.875512 0.793593 0.144301
H14   H     H_    0.945944 0.729001 0.917913 0.152638
H15   H     H_    0.923523 0.500095 0.867318 0.133651
H16   H     H_    0.876614 0.416198 0.693825 0.105582
N6    N     N_R   0.234523 0.499318 0.114835 0.113782
O15   O     O_R   0.204372 0.392343 0.163313 -0.311292
O16   O     O_R   0.197185 0.595429 0.159054 -0.264637

loop_
_geom_bond_atom_site_label_1
_geom_bond_atom_site_label_2
_geom_bond_distance
_ccdc_geom_bond_type
Cu1   N2    2.034657 S    
O4    Cu2   1.925413 S    
C27   C28   1.397409 A    
N1    C23   1.303658 D    
Cu2   N1    2.034513 S    
C5    H2    1.084528 S    
C11   C15   1.409146 A    
C4    C6    1.476226 S    
C7    C8    1.385747 A    
C23   C24   1.501391 S    
Cu2   O8    1.938083 S    
C16   H3    1.076680 S    
N3    O10   1.300077 A    
O2    C1    1.301327 A    
C19   H9    1.087791 S    
C6    C16   1.396393 A    
Cu1   Cu2   2.708217 S    
C15   H6    1.081340 S    
C6    C17   1.412201 A    
O1    Cu1   1.933976 S    
C9    C10   1.428448 A    
C8    C9    1.395596 A    
Cu1   O7    1.925413 S    
C25   C26   1.402855 A    
O4    C2    1.305851 A    
H10   C23   1.082593 S    
C30   H16   1.082776 S    
C28   C29   1.396403 A    
C24   N5    1.432206 S    
C7    H4    1.078762 S    
C1    C19   1.455919 S    
Cu2   O6    1.933978 S    
N3    O9    1.301205 A    
C2    C18   1.475068 S    
O8    C4    1.305170 A    
C28   H14   1.082369 S    
C5    C17   1.398861 A    
C20   C22   1.462079 S    
N5    O14   1.299530 A    
O3    Cu1   1.938084 S    
C9    N6    1.433138 S    
C14   C15   1.387130 A    
C29   C30   1.397695 A    
C20   N4    1.447566 S    
O7    C4    1.307285 A    
C10   C12   1.426221 A    
C3    C21   1.459292 S    
O3    C2    1.305180 A    
C5    C13   1.400841 A    
C8    H5    1.083092 S    
C17   N3    1.430550 S    
H7    C22   1.087606 S    
N4    O11   1.300984 A    
C21   C22   1.339889 D    
C11   C18   1.415339 A    
C27   H13   1.082347 S    
C25   C30   1.406920 A    
H8    C21   1.085958 S    
C12   C13   1.416957 A    
N6    O16   1.300783 A    
N2    C24   1.303958 D    
C26   H12   1.081554 S    
Cu1   O5    1.926897 S    
N1    C25   1.425565 S    
N5    O13   1.300786 A    
C19   C20   1.346991 D    
O5    C3    1.303912 A    
C26   C27   1.398508 A    
O1    C1    1.300434 A    
C13   C14   1.393816 A    
H11   N2    1.030871 S    
C7    C18   1.399105 A    
C29   H15   1.081510 S    
O6    C3    1.300237 A    
C10   C11   1.422315 A    
O2    Cu2   1.926895 S    
C12   C16   1.403925 A    
N6    O15   1.301603 A    
N4    O12   1.301185 A    
H1    C14   1.084111 S    
