data_mof_unit_2061.cif
_audit_creation_date              2013-03-05T15:54:32-0500
_audit_creation_method            fapswitch 2.2
_symmetry_space_group_name_H-M    P1
_symmetry_Int_Tables_number       1
_space_group_crystal_system       triclinic
_cell_length_a                    19.2147
_cell_length_b                    19.050177
_cell_length_c                    12.450139
_cell_angle_alpha                 89.930025
_cell_angle_beta                  130.604968
_cell_angle_gamma                 90.483266
_cell_volume                      3459.7858735

loop_
_atom_site_label
_atom_site_type_symbol
_atom_site_description
_atom_site_fract_x
_atom_site_fract_y
_atom_site_fract_z
_atom_type_partial_charge
O1    O     O_R   0.608610 0.924520 0.551740 -0.563053
O2    O     O_R   0.608610 0.075480 0.551740 -0.568042
O3    O     O_R   0.108610 0.424520 0.551740 -0.564870
O4    O     O_R   0.108610 0.575480 0.551740 -0.566870
O5    O     O_R   0.564110 0.924510 0.685150 -0.545309
O6    O     O_R   0.564110 0.075490 0.685150 -0.511535
O7    O     O_R   0.064110 0.424510 0.685150 -0.544514
O8    O     O_R   0.064110 0.575490 0.685150 -0.517151
C1    C     C_R   0.612951 0.899275 0.653964 0.872017
C2    C     C_R   0.601387 0.107018 0.639424 0.908427
C3    C     C_R   0.104150 0.394451 0.643270 0.884525
C4    C     C_R   0.113079 0.601044 0.654329 0.882018
Cu1   Cu    Cu3+1 0.526340 0.000000 0.421010 0.990137
Cu2   Cu    Cu3+1 0.026340 0.500000 0.421010 0.993048
Cu3   Cu    Cu3+1 0.473640 1.000000 0.578990 1.029020
Cu4   Cu    Cu3+1 0.973640 0.500000 0.578990 1.020853
O9    O     O_R   0.435880 0.075470 0.314850 -0.569213
O10   O     O_R   0.435880 0.924530 0.314850 -0.605005
O11   O     O_R   0.935880 0.575470 0.314850 -0.607497
O12   O     O_R   0.935880 0.424530 0.314850 -0.563229
O13   O     O_R   0.391380 0.075460 0.448260 -0.576765
O14   O     O_R   0.391380 0.924540 0.448260 -0.571522
O15   O     O_R   0.891380 0.575460 0.448260 -0.578309
O16   O     O_R   0.891380 0.424540 0.448260 -0.578670
C5    C     C_R   0.382347 0.096779 0.338573 0.824191
C6    C     C_R   0.388461 0.897878 0.347122 0.821885
C7    C     C_R   0.888519 0.601590 0.346606 0.818980
C8    C     C_R   0.881627 0.403990 0.337888 0.841456
C9    C     C_R   0.681947 0.280990 0.164215 0.347994
C10   C     C_R   0.684288 0.719513 0.160169 0.307942
C11   C     C_R   0.186238 0.774934 0.170058 0.325187
C12   C     C_R   0.173180 0.210209 0.153664 0.326130
H1    H     H_    0.255888 0.847585 0.342183 0.203974
H2    H     H_    0.263245 0.157703 0.352721 0.223362
H3    H     H_    0.768228 0.336964 0.359274 0.217252
H4    H     H_    0.755198 0.651310 0.338099 0.202968
C13   C     C_R   0.326814 0.836845 0.262280 -0.084713
C14   C     C_R   0.308434 0.146231 0.235115 -0.102500
C15   C     C_R   0.806983 0.355163 0.233935 -0.097448
C16   C     C_R   0.826208 0.660550 0.258158 -0.085191
C17   C     C_R   0.672768 0.219890 0.641961 0.251584
C18   C     C_R   0.770792 0.856999 0.787723 0.264879
C19   C     C_R   0.272849 0.642069 0.796073 0.256607
C20   C     C_R   0.213499 0.302382 0.694944 0.255979
C21   C     C_R   0.350357 0.638685 0.940285 0.168930
C22   C     C_R   0.292322 0.267188 0.806628 0.101734
C23   C     C_R   0.730161 0.277961 0.718965 0.156458
C24   C     C_R   0.849530 0.856711 0.930931 0.184105
C25   C     C_R   0.344202 0.664807 0.038703 -0.148100
C26   C     C_R   0.302294 0.248091 0.924369 -0.159187
C27   C     C_R   0.758434 0.292287 0.852583 -0.140230
C28   C     C_R   0.843620 0.827055 0.027292 -0.202293
C29   C     C_R   0.709141 0.264767 0.891587 0.019816
C30   C     C_R   0.763339 0.790674 0.978536 -0.001595
C31   C     C_R   0.264870 0.700347 0.991826 0.029249
C32   C     C_R   0.227304 0.252128 0.920391 0.003566
C33   C     C_R   0.644314 0.210618 0.805027 -0.043057
C34   C     C_R   0.680653 0.807863 0.843416 -0.071301
C35   C     C_R   0.182513 0.687349 0.853025 -0.046293
C36   C     C_R   0.151265 0.292443 0.812475 -0.068130
C37   C     C_R   0.263410 0.744760 0.081322 0.011185
C38   C     C_R   0.226857 0.217462 0.021646 0.003664
C39   C     C_R   0.720240 0.289878 0.011065 0.012620
C40   C     C_R   0.760766 0.746722 0.067968 0.005081
C41   C     C_R   0.669642 0.256947 0.045065 -0.071314
C42   C     C_R   0.679040 0.746264 0.048849 -0.094811
C43   C     C_R   0.181440 0.745623 0.061028 -0.073927
C44   C     C_R   0.159096 0.234163 0.031715 -0.096037
C45   C     C_R   0.603778 0.205517 0.953225 0.253482
C46   C     C_R   0.596314 0.769224 0.916894 0.256484
C47   C     C_R   0.098143 0.723822 0.927178 0.266313
C48   C     C_R   0.080296 0.270714 0.916363 0.255911
C49   C     C_R   0.582559 0.192084 0.825164 0.274211
C50   C     C_R   0.597264 0.788209 0.808834 0.228467
C51   C     C_R   0.099313 0.707087 0.818338 0.240424
C52   C     C_R   0.073584 0.291559 0.801532 0.239694
C53   C     C_R   0.335523 0.793774 0.177716 0.108108
C54   C     C_R   0.288207 0.162493 0.106463 0.161488
C55   C     C_R   0.777080 0.348090 0.096139 0.172079
C56   C     C_R   0.834087 0.701089 0.169740 0.118452
C57   C     C_R   0.257166 0.821467 0.266236 -0.208210
C58   C     C_R   0.251535 0.172338 0.258001 -0.245442
C59   C     C_R   0.756601 0.322901 0.264397 -0.212200
C60   C     C_R   0.755964 0.675524 0.260072 -0.214274
C61   C     C_R   0.640382 0.179373 0.696456 -0.167710
C62   C     C_R   0.684768 0.847297 0.750928 -0.130714
C63   C     C_R   0.186420 0.652045 0.756551 -0.128287
C64   C     C_R   0.153470 0.327532 0.713100 -0.135300
H5    H     H_    0.403411 0.662773 0.150675 0.179554
H6    H     H_    0.366849 0.226248 0.014483 0.212993
H7    H     H_    0.815044 0.328060 0.919423 0.194159
H8    H     H_    0.902916 0.828904 0.139257 0.186375
C65   C     C_R   0.680438 0.971705 0.291396 -0.158299
C66   C     C_R   0.172696 0.458127 0.282556 -0.191297
H9    H     H_    0.752754 0.966325 0.347822 0.159618
H10   H     H_    0.241779 0.440545 0.336755 0.157026
N1    N     N_R   0.566260 1.000000 0.302220 -0.180379
N2    N     N_R   0.066260 0.500000 0.302220 -0.181868
C67   C     C_R   0.343742 0.009417 0.623217 0.112026
C68   C     C_R   0.843735 0.510707 0.618303 0.094124
C69   C     C_R   0.305611 0.998808 0.685516 -0.224928
C70   C     C_R   0.807522 0.524473 0.681362 -0.233860
C71   C     C_R   0.360026 0.979241 0.827583 0.206025
C72   C     C_R   0.863992 0.526918 0.828755 0.210574
C73   C     C_R   0.457388 0.979097 0.915377 0.000706
C74   C     C_R   0.957231 0.502682 0.915459 -0.027560
C75   C     C_R   0.494227 0.985165 0.844525 0.209335
C76   C     C_R   0.992424 0.492069 0.843764 0.188816
C77   C     C_R   0.520692 0.976607 0.070039 -0.027075
C78   C     C_R   0.019390 0.491679 0.067794 -0.040076
C79   C     C_R   0.613720 0.961770 0.143966 0.106786
C80   C     C_R   0.106590 0.461377 0.135269 0.096211
C81   C     C_R   0.642028 0.944590 0.069728 0.088557
C82   C     C_R   0.130824 0.439265 0.057226 0.103113
C83   C     C_R   0.591892 0.971292 0.932315 0.275110
C84   C     C_R   0.085309 0.469185 0.925550 0.268495
C85   C     C_R   0.499020 0.992686 0.157354 0.036876
C86   C     C_R   0.000255 0.505579 0.158571 0.022830
C87   C     C_R   0.656399 0.995757 0.367425 0.389837
C88   C     C_R   0.153623 0.481087 0.365007 0.411919
N3    N     N_R   0.434410 0.000000 0.697680 -0.176889
N4    N     N_R   0.934410 0.500000 0.697680 -0.183919
H11   H     H_    0.429587 0.000496 0.112336 0.135245
H12   H     H_    0.933862 0.518123 0.120188 0.133206
H13   H     H_    0.299245 0.020293 0.511218 0.135092
H14   H     H_    0.799947 0.512897 0.504359 0.132578
H15   H     H_    0.231683 0.000743 0.619155 0.162708
H16   H     H_    0.735739 0.538350 0.613793 0.158315
C89   C     C_3   0.736446 0.913163 0.149257 -0.774890
H17   H     H_    0.743843 0.893867 0.074780 0.252825
H18   H     H_    0.791146 0.953357 0.216179 0.254294
H19   H     H_    0.746879 0.868588 0.215752 0.253729
C90   C     C_3   0.218370 0.397984 0.126193 -0.770627
H20   H     H_    0.222588 0.353516 0.187611 0.240799
H21   H     H_    0.220765 0.376486 0.046109 0.245856
H22   H     H_    0.279642 0.432373 0.198294 0.252512
C91   C     C_3   0.309606 0.945247 0.868784 -0.841481
H23   H     H_    0.353953 0.907915 0.955508 0.233290
H24   H     H_    0.282125 0.985405 0.896045 0.221801
H25   H     H_    0.250832 0.913306 0.779544 0.256265
C92   C     C_3   0.823196 0.565406 0.881080 -0.834251
H26   H     H_    0.801183 0.528885 0.923095 0.215144
H27   H     H_    0.872651 0.605998 0.956223 0.250768
H28   H     H_    0.760700 0.594905 0.795651 0.250686
Br1   Br    Br    0.681852 0.015247 0.929706 -0.507747
Br2   Br    Br    0.179373 0.514319 0.935446 -0.544557
Br3   Br    Br    0.553577 0.141671 0.007067 -0.497731
Br4   Br    Br    0.478396 0.770173 0.868296 -0.412552
Br5   Br    Br    0.979507 0.724268 0.876445 -0.409778
Br6   Br    Br    0.978076 0.295011 0.902817 -0.485094
Br7   Br    Br    0.588406 0.281321 0.178215 -0.467868
Br8   Br    Br    0.607842 0.747264 0.201331 -0.508201
Br9   Br    Br    0.108674 0.749060 0.210593 -0.487061
Br10  Br    Br    0.093535 0.221468 0.195118 -0.369815
C93   C     C_3   0.416711 0.804834 0.183281 -0.713219
H29   H     H_    0.419166 0.858481 0.154415 0.232409
H30   H     H_    0.481808 0.792494 0.290515 0.268483
H31   H     H_    0.414209 0.776872 0.103964 0.249254
C94   C     C_3   0.308394 0.109358 0.039664 -0.822773
H32   H     H_    0.296717 0.055598 0.059928 0.213955
H33   H     H_    0.261090 0.114218 0.922714 0.236702
H34   H     H_    0.379914 0.115213 0.082530 0.265180
C95   C     C_3   0.779980 0.413011 0.028828 -0.873959
H35   H     H_    0.771035 0.461057 0.069165 0.218909
H36   H     H_    0.846551 0.416945 0.053468 0.245917
H37   H     H_    0.722814 0.413321 0.912537 0.234644
C96   C     C_3   0.916999 0.692058 0.179277 -0.709840
H38   H     H_    0.923969 0.638127 0.158692 0.234119
H39   H     H_    0.912991 0.716423 0.095646 0.250522
H40   H     H_    0.980620 0.709515 0.284723 0.267463
Br11  Br    Br    0.629199 0.203014 0.454873 -0.438371
Br12  Br    Br    0.782173 0.860507 0.645462 -0.446490
Br13  Br    Br    0.285992 0.643247 0.656004 -0.427886
Br14  Br    Br    0.176902 0.301860 0.509635 -0.447379
C97   C     C_3   0.437473 0.605499 0.989222 -0.712436
H41   H     H_    0.423226 0.550126 0.952118 0.225491
H42   H     H_    0.465076 0.633656 0.946076 0.292467
H43   H     H_    0.490997 0.605688 0.106420 0.232912
C98   C     C_3   0.365628 0.248391 0.802043 -0.675170
H44   H     H_    0.355763 0.273160 0.712630 0.271478
H45   H     H_    0.432430 0.267708 0.898788 0.269577
H46   H     H_    0.366576 0.190497 0.793757 0.278197
C99   C     C_3   0.757645 0.326792 0.656624 -0.689567
H47   H     H_    0.695518 0.351040 0.559222 0.238187
H48   H     H_    0.802806 0.370112 0.730701 0.227654
H49   H     H_    0.793585 0.297383 0.628754 0.299985
C100  C     C_3   0.937452 0.890502 0.981460 -0.708843
H50   H     H_    0.925357 0.946860 0.952146 0.229173
H51   H     H_    0.992124 0.887090 0.098162 0.235619
H52   H     H_    0.962398 0.865109 0.932334 0.288260
Br15  Br    Br    0.454232 0.184276 0.663998 -0.524596
Br16  Br    Br    0.487454 0.774551 0.614123 -0.434377
Br17  Br    Br    0.990861 0.723867 0.624189 -0.440998
Br18  Br    Br    0.953670 0.292490 0.617491 -0.477069
C101  C     C_3   0.730729 0.021560 0.516555 -0.659583
H53   H     H_    0.723925 0.999589 0.591122 0.262173
H54   H     H_    0.800084 0.007739 0.556655 0.205832
H55   H     H_    0.728742 0.079429 0.519079 0.256911
C102  C     C_3   0.232713 0.482459 0.521941 -0.698610
H56   H     H_    0.216078 0.503105 0.584641 0.274782
H57   H     H_    0.261448 0.429398 0.560938 0.226730
H58   H     H_    0.288472 0.515594 0.543711 0.227684

loop_
_geom_bond_atom_site_label_1
_geom_bond_atom_site_label_2
_geom_bond_distance
_ccdc_geom_bond_type
C47   C51   1.406838 A    
C39   C41   1.429255 A    
C2    C61   1.502654 S    
C31   C35   1.409476 A    
C93   H30   1.110277 S    
C19   Br13  1.917938 S    
C16   C60   1.397158 A    
C95   H35   1.111585 S    
O10   C6    1.310575 A    
C48   C52   1.406324 A    
C78   C86   1.423346 A    
C72   C74   1.443431 A    
C36   C64   1.430083 A    
C77   C85   1.428694 A    
C67   H13   1.081070 S    
C6    C13   1.490583 S    
C39   C55   1.421661 A    
O7    C3    1.312260 A    
C91   H24   1.104539 S    
C65   C87   1.375869 A    
C18   C24   1.398855 A    
C81   C89   1.519481 S    
Cu1   O10   1.951214 S    
C68   H14   1.081157 S    
C11   C57   1.391044 A    
C95   H36   1.106155 S    
C20   Br14  1.924982 S    
C9    C59   1.380221 A    
C24   C28   1.394983 A    
C70   H16   1.084089 S    
C77   C79   1.410163 A    
C30   C34   1.410615 A    
C1    C62   1.481141 S    
C43   C47   1.424737 A    
C88   C102  1.504033 S    
C71   C91   1.502192 S    
C89   H18   1.110531 S    
O8    Cu4   1.951576 S    
C33   C49   1.405518 A    
C12   C58   1.394612 A    
O2    Cu1   1.958023 S    
Cu4   N4    2.049814 S    
C100  H52   1.106381 S    
O13   C5    1.323350 A    
H4    C60   1.083556 S    
C27   H7    1.072717 S    
O6    Cu3   1.951576 S    
C66   C88   1.368526 A    
C26   H6    1.080072 S    
Cu3   O14   1.957697 S    
C79   C81   1.383973 A    
C97   H41   1.110317 S    
C37   C53   1.431230 A    
Cu4   O16   1.957697 S    
C46   C50   1.404211 A    
C102  H58   1.109417 S    
C16   C56   1.429680 A    
C45   C49   1.388107 A    
C18   C62   1.409105 A    
O15   C7    1.326991 A    
O4    C4    1.316794 A    
O11   C7    1.307104 A    
C7    C16   1.487004 S    
C56   C96   1.529739 S    
C68   N4    1.348362 A    
C44   C48   1.422937 A    
C12   C44   1.432550 A    
C98   H46   1.109232 S    
C102  H56   1.092657 S    
C69   C71   1.399415 A    
N1    C85   1.380574 A    
C14   C58   1.392441 A    
C93   H31   1.095572 S    
C10   C60   1.390394 A    
C40   C56   1.428414 A    
C13   C57   1.399405 A    
C34   C62   1.418408 A    
C80   C82   1.389844 A    
C11   Br9   1.919619 S    
C28   C30   1.411548 A    
C22   C26   1.397201 A    
Cu2   N2    2.062119 S    
C97   H43   1.110575 S    
C78   C80   1.424505 A    
C91   H25   1.112134 S    
O5    Cu3   1.970713 S    
Cu2   O12   1.951214 S    
C95   H37   1.110316 S    
O1    C1    1.311115 A    
C24   C100  1.504471 S    
C97   H42   1.105870 S    
C92   H28   1.111970 S    
C76   N4    1.391568 A    
C96   H38   1.089391 S    
H3    C59   1.083165 S    
C23   C27   1.399740 A    
C101  H53   1.100107 S    
C14   C54   1.415295 A    
C21   C97   1.504079 S    
C25   C31   1.407484 A    
C13   C53   1.429490 A    
C36   C52   1.407695 A    
C26   C32   1.411941 A    
C32   C36   1.410987 A    
C96   H39   1.095698 S    
C27   C29   1.413311 A    
C92   H27   1.099270 S    
C40   C42   1.426862 A    
N1    C87   1.355496 A    
C11   C43   1.414568 A    
C99   H47   1.110206 S    
O5    C1    1.320958 A    
C5    C14   1.483919 S    
C9    Br7   1.915444 S    
C73   C75   1.450427 A    
C37   C43   1.423817 A    
C10   Br8   1.921824 S    
C94   H32   1.109965 S    
C21   C25   1.397904 A    
C3    C64   1.491408 S    
O8    C4    1.315814 A    
C17   Br11  1.920616 S    
C68   C70   1.372575 A    
C17   C23   1.401738 A    
C94   H34   1.108458 S    
C71   C73   1.425792 A    
Cu1   N1    2.062119 S    
C86   H12   1.060308 S    
C66   H10   1.081912 S    
C19   C21   1.402321 A    
C75   C83   1.457357 A    
C10   C42   1.417022 A    
O3    Cu2   1.974618 S    
C52   Br18  1.920376 S    
C65   C79   1.407909 A    
C90   H22   1.110777 S    
C12   Br10  1.920488 S    
C96   H40   1.110710 S    
C51   Br17  1.933948 S    
C23   C99   1.506703 S    
O7    Cu4   1.970713 S    
C67   C69   1.384234 A    
Cu4   O15   1.974285 S    
C49   Br15  1.919015 S    
Cu1   Cu3   2.736149 S    
C90   H20   1.108061 S    
C45   Br3   1.918073 S    
Cu2   Cu4   2.736149 S    
C28   H8    1.083799 S    
C46   Br4   1.927763 S    
C75   N3    1.418569 A    
O2    C2    1.331235 A    
C35   C51   1.412326 A    
C17   C61   1.408368 A    
C34   C50   1.408974 A    
O16   C8    1.319667 A    
C102  H57   1.105253 S    
C89   H17   1.090122 S    
C74   C78   1.456769 A    
C73   C77   1.463405 A    
C25   H5    1.084149 S    
Cu3   N3    2.049814 S    
C4    C63   1.481538 S    
C50   Br16  1.931465 S    
Cu2   O11   1.970344 S    
C38   C54   1.413886 A    
C18   Br12  1.921713 S    
C55   C95   1.513945 S    
C29   C33   1.418022 A    
O6    C2    1.311711 A    
C82   C84   1.384611 A    
C9    C41   1.417585 A    
N2    C88   1.363893 A    
Cu1   O9    1.970344 S    
O12   C8    1.305428 A    
C91   H23   1.099287 S    
C83   Br1   1.933570 S    
C48   Br6   1.919495 S    
C8    C15   1.470213 S    
C67   N3    1.352503 A    
C99   H49   1.109106 S    
O9    C5    1.308776 A    
C89   H19   1.109844 S    
C99   H48   1.110244 S    
C94   H33   1.110483 S    
C85   H11   1.070518 S    
C19   C63   1.406270 A    
C100  H50   1.110290 S    
C32   C38   1.427353 A    
C92   H26   1.103964 S    
C22   C98   1.492887 S    
C84   Br2   1.924948 S    
C29   C39   1.440170 A    
C76   C84   1.434823 A    
C47   Br5   1.929114 S    
C74   C76   1.443375 A    
C70   C72   1.398034 A    
C41   C45   1.402544 A    
C31   C37   1.414757 A    
N2    C86   1.366616 A    
C66   C80   1.396064 A    
C69   H15   1.083935 S    
C82   C90   1.525091 S    
C33   C61   1.433687 A    
C87   C101  1.505784 S    
C38   C44   1.425371 A    
O4    Cu2   1.958023 S    
C35   C63   1.421562 A    
C100  H51   1.110395 S    
O3    C3    1.326178 A    
C15   C59   1.387823 A    
C98   H44   1.106055 S    
C101  H55   1.104593 S    
C54   C94   1.515022 S    
Cu3   O13   1.974285 S    
O1    Cu1   1.974618 S    
C42   C46   1.423979 A    
C30   C40   1.418426 A    
C65   H9    1.080007 S    
O14   C6    1.325074 A    
C93   H29   1.093701 S    
C90   H21   1.106817 S    
C72   C92   1.500662 S    
C98   H45   1.102015 S    
H2    C58   1.083467 S    
C81   C83   1.405168 A    
C20   C64   1.400011 A    
H1    C57   1.083422 S    
C20   C22   1.396576 A    
C53   C93   1.528601 S    
C15   C55   1.416925 A    
C101  H54   1.110881 S    
