data_mof_unit_4509.cif
_audit_creation_date              2012-12-10T18:25:12-0500
_audit_creation_method            fapswitch 2.2
_symmetry_space_group_name_H-M    P1
_symmetry_Int_Tables_number       1
_space_group_crystal_system       triclinic
_cell_length_a                    19.377796
_cell_length_b                    15.897746
_cell_length_c                    14.613462
_cell_angle_alpha                 90.025154
_cell_angle_beta                  89.826384
_cell_angle_gamma                 90.025616
_cell_volume                      4501.84947002

loop_
_atom_site_label
_atom_site_type_symbol
_atom_type_description
_atom_site_fract_x
_atom_site_fract_y
_atom_site_fract_z
_atom_type_partial_charge
C1    C     C_R   0.500041 0.339502 0.499956 0.825865
C2    C     C_R   0.499959 0.660498 0.500044 0.825864
C3    C     C_3   0.555649 0.972150 0.543512 0.539171
C4    C     C_3   0.444351 0.027849 0.456488 0.539171
C5    C     C_3   0.558479 0.027685 0.456202 -0.387610
C6    C     C_3   0.441521 0.972315 0.543798 -0.387610
C7    C     C_1   0.500289 0.250065 0.499838 -0.147447
C8    C     C_1   0.499711 0.749934 0.500162 -0.147447
C9    C     C_3   0.499042 0.027621 0.585418 0.181362
C10   C     C_3   0.500958 0.972379 0.414582 0.181362
C11   C     C_3   0.500848 0.083318 0.499355 -0.040523
C12   C     C_3   0.499151 0.916682 0.500645 -0.040523
C13   C     C_1   0.500548 0.174731 0.499618 0.033401
C14   C     C_1   0.499451 0.825269 0.500382 0.033401
C15   C     C_3   0.478216 0.574123 0.969749 0.471784
C16   C     C_3   0.521783 0.425877 0.030251 0.471785
C17   C     C_3   0.436369 0.513628 0.030629 0.466486
C18   C     C_3   0.563630 0.486372 0.969371 0.466486
C19   C     C_3   0.543139 0.562357 0.030437 -0.452412
C20   C     C_3   0.456861 0.437643 0.969563 -0.452412
C21   C     C_3   0.500505 0.500720 0.091859 -0.162972
C22   C     C_3   0.499495 0.499280 0.908141 -0.162972
C23   C     C_R   0.366977 0.499828 0.500236 0.918897
C24   C     C_R   0.633023 0.500172 0.499764 0.918897
C25   C     C_1   0.500171 0.500251 0.194249 0.233076
C26   C     C_1   0.499829 0.499749 0.805751 0.233075
C27   C     C_R   0.254159 0.535603 0.575517 0.354685
C28   C     C_R   0.745841 0.464397 0.424483 0.354684
C29   C     C_R   0.181492 0.538196 0.574541 0.133889
C30   C     C_R   0.818508 0.461804 0.425459 0.133890
C31   C     C_R   0.145393 0.503171 0.499858 -0.210234
C32   C     C_R   0.854607 0.496829 0.500142 -0.210235
C33   C     C_R   0.181713 0.468423 0.424982 0.393211
C34   C     C_R   0.818287 0.531577 0.575018 0.393211
C35   C     C_R   0.254154 0.466077 0.425958 0.331250
C36   C     C_R   0.745846 0.533922 0.574042 0.331249
C37   C     C_R   0.290641 0.500398 0.500702 -0.353269
C38   C     C_R   0.709359 0.499601 0.499298 -0.353269
C39   C     C_R   0.930305 0.498433 0.499778 0.480487
C40   C     C_R   0.069695 0.501567 0.500222 0.480487
Cu1   Cu    Cu3+1 0.500010 0.500000 0.590220 1.007770
Cu2   Cu    Cu3+1 0.499990 0.500000 0.409780 1.007770
H1    H     H_    0.421988 0.387246 0.944698 0.163325
H2    H     H_    0.578012 0.612754 0.055301 0.163325
H3    H     H_    0.605147 0.050937 0.419969 0.168233
H4    H     H_    0.394853 0.949063 0.580031 0.168233
N1    N     N_R   0.035420 0.428839 0.483274 -0.200978
N2    N     N_R   0.964580 0.571161 0.516726 -0.200978
N3    N     N_R   0.966823 0.427260 0.483210 -0.218554
N4    N     N_R   0.033177 0.572740 0.516790 -0.218554
N5    N     N_1   0.499980 0.500000 0.274190 -0.166787
N6    N     N_1   0.500020 0.500000 0.725810 -0.166787
O1    O     O_R   0.500010 0.379080 0.576170 -0.596546
O2    O     O_R   0.499990 0.620920 0.423830 -0.596546
O3    O     O_R   0.500000 0.379080 0.423800 -0.544951
O4    O     O_R   0.500000 0.620920 0.576200 -0.544952
O5    O     O_R   0.400150 0.499990 0.576210 -0.554428
O6    O     O_R   0.599850 0.500010 0.423790 -0.554428
O7    O     O_R   0.400140 0.499990 0.423840 -0.562134
O8    O     O_R   0.599860 0.500010 0.576160 -0.562134
O9    O     O_3   0.289901 0.572507 0.647055 -0.556696
C41   C     C_3   0.294340 0.514797 0.720355 -0.242832
H5    H     H_    0.335273 0.536533 0.767729 0.184224
H6    H     H_    0.308554 0.450137 0.697595 0.152187
H7    H     H_    0.245401 0.512770 0.759609 0.150141
O10   O     O_3   0.710099 0.427493 0.352945 -0.556696
C42   C     C_3   0.705660 0.485202 0.279645 -0.242830
H8    H     H_    0.691446 0.549862 0.302405 0.152186
H9    H     H_    0.664727 0.463467 0.232271 0.184224
H10   H     H_    0.754599 0.487229 0.240391 0.150140
N7    N     N_2   0.144902 0.577559 0.648018 -0.383450
H11   H     H_    0.170292 0.625454 0.681609 0.286605
C43   C     C_3   0.104538 0.523251 0.707433 -0.671600
H12   H     H_    0.124385 0.526497 0.778548 0.198748
H13   H     H_    0.105979 0.456493 0.684699 0.222631
H14   H     H_    0.050152 0.544995 0.707976 0.250428
N8    N     N_2   0.855098 0.422441 0.351982 -0.383449
H15   H     H_    0.829708 0.374546 0.318391 0.286605
C44   C     C_3   0.895462 0.476749 0.292568 -0.671600
H16   H     H_    0.875615 0.473503 0.221452 0.198748
H17   H     H_    0.949848 0.455005 0.292024 0.250429
H18   H     H_    0.894020 0.543506 0.315301 0.222631
O11   O     O_3   0.147093 0.431898 0.352232 -0.523378
C45   C     C_3   0.121067 0.495685 0.294391 -0.316060
H19   H     H_    0.110573 0.467729 0.226282 0.184736
H20   H     H_    0.158162 0.548447 0.283895 0.125899
H21   H     H_    0.071454 0.520704 0.320839 0.171209
O12   O     O_3   0.852907 0.568103 0.647768 -0.523378
C46   C     C_3   0.878933 0.504315 0.705608 -0.316059
H22   H     H_    0.841838 0.451553 0.716105 0.125898
H23   H     H_    0.889427 0.532272 0.773718 0.184736
H24   H     H_    0.928546 0.479296 0.679161 0.171208
O13   O     O_3   0.289343 0.421441 0.358978 -0.539782
C47   C     C_3   0.295244 0.470334 0.278606 -0.122817
H25   H     H_    0.343447 0.451924 0.242711 0.204209
H26   H     H_    0.298473 0.539377 0.291728 0.114354
H27   H     H_    0.251950 0.456229 0.231622 0.172885
O14   O     O_3   0.710657 0.578559 0.641022 -0.539782
C48   C     C_3   0.704756 0.529667 0.721394 -0.122816
H28   H     H_    0.701527 0.460624 0.708272 0.114354
H29   H     H_    0.656553 0.548076 0.757289 0.204208
H30   H     H_    0.748050 0.543771 0.768378 0.172885
O15   O     O_3   0.611895 0.936806 0.590996 -0.564984
C49   C     C_3   0.661130 0.999831 0.608895 -0.287253
H31   H     H_    0.638144 0.054443 0.645561 0.177737
H32   H     H_    0.686614 0.020780 0.544591 0.158674
H33   H     H_    0.701659 0.973024 0.653667 0.194776
O16   O     O_3   0.388105 0.063193 0.409004 -0.564984
C50   C     C_3   0.338870 0.000169 0.391105 -0.287253
H34   H     H_    0.313386 0.979220 0.455409 0.158674
H35   H     H_    0.361856 0.945556 0.354439 0.177737
H36   H     H_    0.298341 0.026976 0.346333 0.194776
N9    N     N_2   0.501321 0.939015 0.322415 -0.432677
H37   H     H_    0.536507 0.891034 0.313735 0.256324
C51   C     C_3   0.505072 0.001449 0.250713 -0.644819
H38   H     H_    0.500795 0.970016 0.183110 0.212339
H39   H     H_    0.555140 0.035407 0.253744 0.222373
H40   H     H_    0.462043 0.047136 0.257188 0.271489
N10   N     N_2   0.498679 0.060985 0.677585 -0.432677
H41   H     H_    0.463493 0.108966 0.686265 0.256324
C52   C     C_3   0.494928 0.998551 0.749287 -0.644819
H42   H     H_    0.499205 0.029984 0.816890 0.212339
H43   H     H_    0.537957 0.952864 0.742812 0.271489
H44   H     H_    0.444860 0.964593 0.746256 0.222373
O17   O     O_3   0.370767 0.530183 0.068753 -0.596389
C53   C     C_3   0.320502 0.527896 0.999408 -0.343659
H45   H     H_    0.314536 0.463244 0.971574 0.161047
H46   H     H_    0.332318 0.573114 0.943492 0.196663
H47   H     H_    0.270164 0.546421 0.029589 0.180105
O18   O     O_3   0.629232 0.469817 0.931246 -0.596389
C54   C     C_3   0.679498 0.472104 0.000592 -0.343659
H48   H     H_    0.667682 0.426885 0.056508 0.196663
H49   H     H_    0.685464 0.536756 0.028426 0.161047
H50   H     H_    0.729836 0.453579 0.970411 0.180104
O19   O     O_3   0.453627 0.650125 0.932158 -0.570849
C55   C     C_3   0.447881 0.711089 0.001708 -0.284799
H51   H     H_    0.499641 0.730293 0.026753 0.158088
H52   H     H_    0.415155 0.688900 0.059524 0.185785
H53   H     H_    0.422816 0.767786 0.972684 0.184344
O20   O     O_3   0.546373 0.349875 0.067842 -0.570849
C56   C     C_3   0.552119 0.288911 0.998292 -0.284799
H54   H     H_    0.584845 0.311100 0.940476 0.185785
H55   H     H_    0.500359 0.269707 0.973247 0.158088
H56   H     H_    0.577184 0.232213 0.027315 0.184344

loop_
_geom_bond_atom_site_label_1
_geom_bond_atom_site_label_2
_ccdc_geom_bond_type
C40   N1    A    
C16   C21   S    
C27   C29   A    
Cu1   Cu2   S    
C28   O10   S    
C45   H21   S    
C54   H50   S    
Cu2   O6    S    
C6    C9    S    
C49   H32   S    
O19   C55   S    
N1    N3    A    
N8    H15   S    
C31   C40   S    
C15   C19   S    
C4    O16   S    
O13   C47   S    
C35   C37   A    
C45   H20   S    
C5    C11   S    
C50   H35   S    
C6    C12   S    
C15   O19   S    
C51   H38   S    
C17   C20   S    
O16   C50   S    
C23   O5    A    
C18   C19   S    
C43   H12   S    
C32   C39   S    
C1    O1    A    
C52   H44   S    
C41   H6    S    
C3    C12   S    
C27   O9    S    
C30   N8    S    
C15   C22   S    
C48   H28   S    
C51   H39   S    
C24   C38   S    
C31   C33   A    
C46   H23   S    
Cu1   N6    S    
C24   O8    A    
Cu2   N5    S    
N2    N4    A    
O10   C42   S    
C1    C7    S    
C43   H13   S    
C16   O20   S    
C55   H53   S    
C49   H31   S    
N8    C44   S    
C42   H8    S    
O20   C56   S    
C4    C6    S    
C2    O2    A    
C50   H36   S    
C44   H17   S    
C53   H46   S    
C53   H47   S    
C3    C5    S    
C23   C37   S    
C5    H3    S    
C17   C21   S    
N9    C51   S    
C4    C11   S    
C32   C34   A    
C23   O7    A    
C25   N5    T    
Cu1   O4    S    
C41   H5    S    
C3    C9    S    
C26   N6    T    
Cu2   O3    S    
C9    C11   S    
C35   O13   S    
O11   C45   S    
C28   C38   A    
C16   C20   S    
C51   H40   S    
C47   H25   S    
C16   C18   S    
C34   O12   S    
C45   H19   S    
C46   H24   S    
C47   H26   S    
C33   O11   S    
Cu1   O1    S    
C52   H42   S    
N10   C52   S    
C10   C12   S    
C55   H52   S    
C39   N3    A    
C12   C14   S    
O17   C53   S    
C9    N10   S    
C43   H14   S    
C8    C14   T    
C56   H56   S    
C4    C10   S    
C54   H48   S    
C20   H1    S    
C19   H2    S    
N7    C43   S    
N9    H37   S    
C3    O15   S    
C15   C17   S    
C21   C25   S    
C10   N9    S    
C6    H4    S    
C41   H7    S    
C19   C21   S    
C18   C22   S    
C2    C8    S    
Cu1   O8    S    
C20   C22   S    
C55   H51   S    
C54   H49   S    
Cu2   O7    S    
C44   H18   S    
N10   H41   S    
C47   H27   S    
C42   H10   S    
C56   H55   S    
O18   C54   S    
C1    O3    A    
Cu1   O5    S    
C5    C10   S    
C29   C31   A    
C2    O4    A    
C50   H34   S    
Cu2   O2    S    
C36   C38   A    
C30   C32   A    
C11   C13   S    
C17   O17   S    
C27   C37   A    
C53   H45   S    
C40   N4    A    
C28   C30   A    
C33   C35   A    
C34   C36   A    
O9    C41   S    
C52   H43   S    
C18   O18   S    
C44   H16   S    
C7    C13   T    
C48   H30   S    
N7    H11   S    
O12   C46   S    
C24   O6    A    
O14   C48   S    
C22   C26   S    
O15   C49   S    
C36   O14   S    
C42   H9    S    
C46   H22   S    
C56   H54   S    
C48   H29   S    
C49   H33   S    
C39   N2    A    
C29   N7    S    
