data_mof_unit_5.cif
_audit_creation_date              2012-10-26T19:45:32-0400
_audit_creation_method            fapswitch 2.2
_symmetry_space_group_name_H-M    P1
_symmetry_Int_Tables_number       1
_space_group_crystal_system       triclinic
_cell_length_a                    10.825925
_cell_length_b                    9.699886
_cell_length_c                    10.853274
_cell_angle_alpha                 89.694657
_cell_angle_beta                  92.990983
_cell_angle_gamma                 91.404649
_cell_volume                      1137.80096321

loop_
_atom_site_label
_atom_site_type_symbol
_atom_type_description
_atom_site_fract_x
_atom_site_fract_y
_atom_site_fract_z
_atom_type_partial_charge
C1    C     C_R   0.262443 0.499025 0.500265 0.612183
C2    C     C_R   0.439617 0.925427 0.408974 0.256283
C3    C     C_R   0.579045 0.927435 0.579823 0.221649
C4    C     C_R   0.585943 0.076790 0.571149 0.237307
C5    C     C_R   0.490164 0.499254 0.260549 0.545677
C6    C     C_R   0.736875 0.501484 0.501488 0.644581
C7    C     C_R   0.494718 0.498870 0.739449 0.639882
C8    C     C_3   0.418347 0.625879 0.067656 0.068262
C9    C     C_3   0.410714 0.363395 0.068416 0.106094
C10   C     C_3   0.435826 0.638469 0.925354 0.309640
C11   C     C_3   0.405229 0.365109 0.922152 0.351066
C12   C     C_3   0.622966 0.476939 0.939117 0.386700
C13   C     C_3   0.617124 0.493080 0.081055 -0.237549
C14   C     C_3   0.481542 0.495568 0.122024 -0.072885
C15   C     C_3   0.487461 0.494999 0.877869 0.147273
C16   C     C_3   0.706362 0.900350 0.775515 -0.234381
C17   C     C_3   0.805457 0.138067 0.570739 -0.278479
C18   C     C_3   0.287138 0.823172 0.869853 -0.190612
C19   C     C_3   0.229463 0.269459 0.780369 -0.256272
C20   C     C_3   0.244469 0.060165 0.259596 -0.280432
C21   C     C_3   0.534664 0.939634 0.210159 -0.308222
C22   C     C_R   0.055786 0.408208 0.425933 0.159328
C23   C     C_R   0.070180 0.593968 0.576346 0.159397
C24   C     C_R   0.926722 0.421051 0.415914 0.149661
C25   C     C_R   0.940947 0.585586 0.585213 0.148437
C26   C     C_R   0.870394 0.504177 0.500310 0.033052
C27   C     C_R   0.127557 0.498981 0.501807 0.041805
C28   C     C_R   0.419887 0.069987 0.422969 0.229734
Cu1   Cu    Cu3+1 0.500020 0.640660 0.500000 1.067320
Cu2   Cu    Cu3+1 0.500020 0.359340 0.500000 0.998788
H1    H     H_    0.467539 0.713394 0.110840 0.181222
H2    H     H_    0.846775 0.037046 0.591508 0.105017
H3    H     H_    0.871391 0.219282 0.606991 0.141980
H4    H     H_    0.793779 0.148773 0.468956 0.204938
H5    H     H_    0.240750 0.574878 0.054044 0.348236
H6    H     H_    0.282487 0.393083 0.189091 0.369930
H7    H     H_    0.246585 0.612941 0.853701 0.254151
H8    H     H_    0.187474 0.835301 0.844162 0.112198
H9    H     H_    0.341839 0.888619 0.807297 0.185601
H10   H     H_    0.303711 0.860369 0.966039 0.152930
H11   H     H_    0.209810 0.406514 0.922493 0.268231
H12   H     H_    0.466414 0.273914 0.100981 0.180371
H13   H     H_    0.143894 0.307569 0.732088 0.123478
H14   H     H_    0.206166 0.172214 0.829403 0.129133
H15   H     H_    0.296832 0.248648 0.709796 0.222156
H16   H     H_    0.585738 0.756488 0.972178 0.303029
H17   H     H_    0.412483 0.162208 0.920661 0.315538
H18   H     H_    0.789456 0.558248 0.932120 0.333029
H19   H     H_    0.702290 0.348836 0.832071 0.355209
H20   H     H_    0.056067 0.227118 0.357828 0.326742
H21   H     H_    0.090706 0.774448 0.650212 0.319864
H22   H     H_    0.905301 0.330924 0.255869 0.341729
H23   H     H_    0.667159 0.589291 0.112549 0.098958
H24   H     H_    0.943115 0.670955 0.747302 0.329230
H25   H     H_    0.335532 0.236458 0.330889 0.339027
H26   H     H_    0.167941 0.124607 0.223663 0.194128
H27   H     H_    0.203117 0.966103 0.301165 0.144581
H28   H     H_    0.296022 0.037241 0.177075 0.152457
H29   H     H_    0.364400 0.830797 0.248313 0.284497
H30   H     H_    0.490128 0.968382 0.119502 0.124782
H31   H     H_    0.609612 0.866579 0.194965 0.139540
H32   H     H_    0.578829 0.033904 0.252495 0.157120
H33   H     H_    0.666964 0.407102 0.128619 0.187883
H34   H     H_    0.744651 0.830686 0.601027 0.287188
H35   H     H_    0.790375 0.967745 0.777099 0.090583
H36   H     H_    0.734710 0.810909 0.831818 0.236699
H37   H     H_    0.629696 0.953402 0.818450 0.181048
H38   H     H_    0.690601 0.157986 0.721208 0.255197
N1    N     N_R   0.500030 0.852070 0.500030 -0.229783
N2    N     N_R   0.500030 0.147930 0.500030 -0.249679
N3    N     N_2   0.670501 0.854812 0.651445 -0.414641
N4    N     N_2   0.687546 0.152482 0.626771 -0.461939
N5    N     N_2   0.321198 0.679713 0.858644 -0.406435
N6    N     N_2   0.277575 0.372293 0.868159 -0.512101
N7    N     N_2   0.323209 0.134898 0.350372 -0.470049
N8    N     N_2   0.444150 0.874400 0.288051 -0.488134
O1    O     O_R   0.319660 0.618740 0.499990 -0.457437
O2    O     O_3   0.291835 0.339579 0.113019 -0.749524
O3    O     O_3   0.523785 0.744490 0.902425 -0.673511
O4    O     O_3   0.457459 0.241170 0.883246 -0.664726
O5    O     O_3   0.706125 0.576437 0.893591 -0.703259
O6    O     O_3   0.668910 0.345497 0.915388 -0.679244
O7    O     O_3   0.112701 0.309075 0.361569 -0.717615
O8    O     O_3   0.141619 0.692106 0.640086 -0.702893
O9    O     O_3   0.853714 0.354144 0.325236 -0.729972
O10   O     O_3   0.882283 0.650099 0.678160 -0.712584
O11   O     O_R   0.319660 0.381260 0.499990 -0.514597
O12   O     O_R   0.499990 0.618790 0.317690 -0.483699
O13   O     O_R   0.499990 0.381210 0.317690 -0.538380
O14   O     O_R   0.680370 0.618830 0.500010 -0.490477
O15   O     O_R   0.680370 0.381170 0.500010 -0.453213
O16   O     O_R   0.500030 0.618780 0.682310 -0.402255
O17   O     O_R   0.500030 0.381220 0.682310 -0.484582
O18   O     O_3   0.295674 0.638150 0.103277 -0.742191

loop_
_geom_bond_atom_site_label_1
_geom_bond_atom_site_label_2
_ccdc_geom_bond_type
C1    O11   A    
C1    O1    A    
C20   H26   S    
C4    N2    A    
C21   N8    S    
C9    H12   S    
H22   O9    S    
C3    N1    A    
C18   H9    S    
C24   C26   A    
Cu2   O17   S    
C10   C15   S    
H16   O3    S    
C10   N5    S    
C6    O15   A    
H18   O5    S    
H34   N3    S    
Cu1   N1    S    
C18   H10   S    
Cu1   O12   S    
H11   N6    S    
C5    O12   A    
C11   C15   S    
C23   C27   A    
C2    N1    A    
C24   O9    S    
C21   H31   S    
H25   N7    S    
C7    C15   S    
C13   C14   S    
C16   N3    S    
C17   H3    S    
H17   O4    S    
Cu2   O11   S    
Cu2   O13   S    
Cu1   O14   S    
Cu2   N2    S    
C19   H13   S    
H20   O7    S    
C13   H23   S    
C7    O17   A    
C23   O8    S    
C8    O18   S    
C21   H30   S    
H24   O10   S    
C25   C26   A    
C6    O14   A    
C20   N7    S    
H19   O6    S    
C3    N3    S    
C9    C14   S    
Cu1   Cu2   S    
C13   H33   S    
C12   C15   S    
H38   N4    S    
C5    C14   S    
C12   O6    S    
C16   H37   S    
C9    C11   S    
C21   H32   S    
C18   N5    S    
C22   C27   A    
C22   C24   A    
C16   H36   S    
C17   H4    S    
C20   H28   S    
C3    C4    A    
C4    N4    S    
C2    N8    S    
C19   H14   S    
H5    O18   S    
H7    N5    S    
C8    C14   S    
C8    H1    S    
C19   N6    S    
C28   N2    A    
Cu2   O15   S    
C11   N6    S    
C10   O3    S    
C19   H15   S    
C22   O7    S    
C18   H8    S    
H6    O2    S    
C6    C26   S    
C7    O16   A    
H29   N8    S    
C25   O10   S    
C12   O5    S    
C9    O2    S    
C23   C25   A    
C11   O4    S    
Cu1   O1    S    
C12   C13   S    
C17   N4    S    
C8    C10   S    
C1    C27   S    
C17   H2    S    
C2    C28   A    
C16   H35   S    
C20   H27   S    
C28   N7    S    
H21   O8    S    
Cu1   O16   S    
C5    O13   A    
