data_mof_unit_517.cif
_audit_creation_date              2012-12-11T15:46:56-0500
_audit_creation_method            fapswitch 2.2
_symmetry_space_group_name_H-M    P1
_symmetry_Int_Tables_number       1
_space_group_crystal_system       triclinic
_cell_length_a                    11.637126
_cell_length_b                    11.618052
_cell_length_c                    19.540083
_cell_angle_alpha                 90.000129
_cell_angle_beta                  89.697801
_cell_angle_gamma                 60.11
_cell_volume                      2290.38435373

loop_
_atom_site_label
_atom_site_type_symbol
_atom_type_description
_atom_site_fract_x
_atom_site_fract_y
_atom_site_fract_z
_atom_type_partial_charge
C1    C     C_R   0.639930 0.116443 0.599355 0.539222
C2    C     C_1   0.652672 0.148595 0.668710 0.002426
C3    C     C_R   0.668580 0.674767 0.190581 0.009643
C4    C     C_R   0.611738 0.746636 0.598607 0.541031
C5    C     C_R   0.543586 0.734098 0.220439 -0.016526
C6    C     C_R   0.527398 0.751080 0.289033 0.002797
C7    C     C_R   0.761364 0.660600 0.303745 -0.157870
C8    C     C_R   0.779150 0.652116 0.232640 -0.005042
C9    C     C_3   0.421905 0.722423 0.212183 -0.122870
C10   C     C_3   0.396227 0.753917 0.288850 -0.082029
C11   C     C_R   0.637072 0.703013 0.332341 -0.013011
C12   C     C_1   0.640043 0.704390 0.667993 0.004710
C13   C     C_R   0.143634 0.182514 0.191982 -0.003615
C14   C     C_R   0.240760 0.208137 0.214469 -0.021591
C15   C     C_R   0.273858 0.192190 0.282828 0.005472
C16   C     C_R   0.295482 0.121005 0.605307 0.556106
C17   C     C_R   0.107773 0.133010 0.310626 -0.034242
C18   C     C_R   0.086023 0.131498 0.239939 -0.044526
C19   C     C_3   0.382410 0.140000 0.192351 -0.286079
C20   C     C_3   0.417637 0.121522 0.267242 -0.264775
C21   C     C_R   0.207805 0.157049 0.330929 0.026390
C22   C     C_R   0.669988 0.196566 0.195934 0.000818
C23   C     C_1   0.145034 0.190638 0.863169 0.000654
C24   C     C_R   0.744738 0.073624 0.224717 0.007195
C25   C     C_R   0.753696 0.053473 0.293407 0.002779
C26   C     C_R   0.603798 0.284190 0.312717 -0.181924
C27   C     C_R   0.603985 0.305619 0.241394 -0.169767
C28   C     C_R   0.646988 0.114693 0.404277 0.535441
C29   C     C_3   0.762903 0.942839 0.207010 -0.280348
C30   C     C_3   0.773267 0.918467 0.284071 -0.247354
C31   C     C_R   0.674782 0.154131 0.338591 0.000407
C32   C     C_R   0.083536 0.230702 0.929337 0.547684
C33   C     C_R   0.684301 0.604114 0.929613 0.543762
C34   C     C_1   0.224382 0.146264 0.735465 -0.030735
C35   C     C_R   0.709118 0.207200 0.930086 0.546651
C36   C     C_R   0.083206 0.233395 0.125119 0.543048
C37   C     C_R   0.684989 0.610662 0.125372 0.545629
C38   C     C_R   0.706543 0.212340 0.126700 0.533370
C39   C     C_R   0.614676 0.741125 0.402483 0.538128
C40   C     C_R   0.254043 0.136898 0.399693 0.553566
C41   C     C_1   0.670916 0.646571 0.860231 0.004892
C42   C     C_1   0.653943 0.684112 0.728455 -0.031210
C43   C     C_1   0.663437 0.667005 0.799742 -0.030975
C44   C     C_3   0.916534 0.619496 0.207570 -0.257246
C45   C     C_1   0.185418 0.166356 0.805014 -0.029796
C46   C     C_3   0.023735 0.490458 0.236834 -0.402357
C47   C     C_3   0.320405 0.826186 0.164536 -0.412565
C48   C     C_3   0.389305 0.644553 0.330736 -0.267478
C49   C     C_3   0.269552 0.703578 0.378889 -0.427007
C50   C     C_3   0.023028 0.113012 0.363536 -0.382980
C51   C     C_3   0.998602 0.079717 0.217749 -0.347539
C52   C     C_1   0.255511 0.133588 0.675802 0.001865
C53   C     C_1   0.679155 0.191621 0.860799 0.003768
C54   C     C_1   0.658522 0.166405 0.729068 -0.031019
C55   C     C_1   0.666023 0.180740 0.800403 -0.030270
Cr1   Cr    Cr6+3 0.404720 0.198220 0.499960 1.017466
Cr2   Cr    Cr6+3 0.698290 0.897110 0.500380 1.015607
Cr3   Cr    Cr6+3 0.396970 0.904720 0.499610 1.004543
Cr4   Cr    Cr6+3 0.926290 0.152010 0.028150 1.007300
Cr5   Cr    Cr6+3 0.921440 0.451830 0.027490 1.013722
Cr6   Cr    Cr6+3 0.626370 0.446880 0.028730 1.015423
H1    H     H_    0.843265 0.640822 0.337077 0.134592
H2    H     H_    0.872718 0.844572 0.303225 0.132827
H3    H     H_    0.444624 0.620913 0.198160 0.160578
H4    H     H_    0.313331 0.856126 0.299426 0.167084
H5    H     H_    0.408425 0.209100 0.166316 0.145562
H6    H     H_    0.046027 0.502629 0.290674 0.129872
H7    H     H_    0.989984 0.416850 0.235836 0.182045
H8    H     H_    0.115444 0.459036 0.206516 0.161247
H9    H     H_    0.928147 0.623115 0.151776 0.183269
H10   H     H_    0.941694 0.692759 0.226447 0.114721
H11   H     H_    0.300237 0.926170 0.179038 0.147882
H12   H     H_    0.414372 0.045201 0.164616 0.130031
H13   H     H_    0.358071 0.806045 0.111072 0.162731
H14   H     H_    0.228343 0.820324 0.167055 0.120305
H15   H     H_    0.273000 0.776082 0.414592 0.187436
H16   H     H_    0.176503 0.754208 0.348854 0.130023
H17   H     H_    0.269074 0.623057 0.409285 0.138076
H18   H     H_    0.378838 0.574004 0.296603 0.127123
H19   H     H_    0.480667 0.586696 0.361166 0.170186
H20   H     H_    0.054182 0.006161 0.367652 0.128823
H21   H     H_    0.029021 0.149716 0.415043 0.146893
H22   H     H_    0.917009 0.170744 0.349003 0.139242
H23   H     H_    0.467740 0.016542 0.284092 0.127937
H24   H     H_    0.901822 0.168940 0.209845 0.170740
H25   H     H_    0.036978 0.015671 0.171994 0.169462
H26   H     H_    0.992336 0.012891 0.255904 0.118250
H27   H     H_    0.461052 0.180897 0.284626 0.169285
H28   H     H_    0.542855 0.365561 0.346639 0.119974
H29   H     H_    0.553001 0.405491 0.221998 0.125955
H30   H     H_    0.856275 0.885521 0.177445 0.134881
H31   H     H_    0.673105 0.948634 0.183944 0.139361
H32   H     H_    0.689291 0.911242 0.305961 0.158996
O1    O     O_R   0.267750 0.231960 0.575440 -0.499053
O2    O     O_R   0.596230 0.579400 0.952760 -0.506653
O3    O     O_R   0.639160 0.321170 0.958690 -0.493031
O4    O     O_R   0.527290 0.186640 0.570530 -0.510340
O5    O     O_R   0.821370 0.124220 0.104400 -0.531699
O6    O     O_R   0.037020 0.167050 0.097880 -0.518047
O7    O     O_R   0.056310 0.349620 0.102920 -0.517670
O8    O     O_R   0.797790 0.564880 0.097980 -0.515798
O9    O     O_R   0.596000 0.584270 0.104310 -0.531010
O10   O     O_R   0.638950 0.325690 0.099180 -0.506532
O11   O     O_3   0.824700 0.350240 0.028120 -0.252605
O12   O     O_R   0.685950 0.784660 0.430010 -0.509742
O13   O     O_R   0.728110 0.003450 0.576380 -0.502357
O14   O     O_R   0.682980 0.789190 0.570500 -0.492736
O15   O     O_R   0.499300 0.771880 0.575540 -0.512399
O16   O     O_R   0.285350 0.030870 0.569740 -0.490714
O17   O     O_R   0.270960 0.227070 0.423890 -0.511829
O18   O     O_R   0.530270 0.182120 0.430040 -0.505671
O19   O     O_R   0.731320 0.998570 0.424830 -0.516977
O20   O     O_R   0.502510 0.767000 0.423980 -0.523136
O21   O     O_R   0.288320 0.026340 0.429250 -0.510296
O22   O     O_3   0.499990 0.000020 0.499980 -0.278289
O23   O     O_R   0.821590 0.119350 0.952850 -0.504571
O24   O     O_R   0.037230 0.162540 0.957390 -0.493730
O25   O     O_R   0.056530 0.344750 0.951370 -0.504276
O26   O     O_R   0.798000 0.560370 0.957490 -0.494996

loop_
_geom_bond_atom_site_label_1
_geom_bond_atom_site_label_2
_ccdc_geom_bond_type
C25   C31   A    
Cr2   O12   S    
C23   C45   T    
C35   C53   S    
Cr3   O16   S    
Cr4   O6    S    
C19   C20   S    
C32   O24   A    
C38   O5    A    
C19   H5    S    
C51   H24   S    
Cr6   O3    S    
C7    C8    A    
Cr2   O22   S    
C35   O3    A    
C28   O19   A    
C26   H28   S    
C7    C11   A    
C4    O15   A    
C26   C27   A    
C29   C30   S    
C13   C18   A    
Cr5   O26   S    
Cr4   O11   S    
C48   H18   S    
Cr6   O10   S    
C30   H32   S    
C37   O9    A    
C11   C39   S    
Cr2   O19   S    
C9    H3    S    
C49   H17   S    
C44   H10   S    
C1    C2    S    
C24   C29   S    
C46   H8    S    
C12   C42   T    
C40   O21   A    
Cr4   O23   S    
C39   O20   A    
C50   H22   S    
Cr3   O20   S    
C44   H9    S    
C16   O16   A    
C4    C12   S    
C9    C10   S    
Cr1   O18   S    
C1    O13   A    
Cr2   O13   S    
C26   C31   A    
Cr4   O24   S    
C13   C14   A    
C41   C43   T    
Cr1   O4    S    
C33   O2    A    
C51   H25   S    
Cr1   O17   S    
C44   C46   S    
C18   C51   S    
C53   C55   T    
C28   O18   A    
C15   C20   S    
C47   H11   S    
C4    O14   A    
C16   C52   S    
C19   H12   S    
Cr6   O11   S    
C24   C25   A    
C13   C36   S    
C3    C8    A    
C2    C54   T    
C51   H26   S    
C6    C11   A    
C40   O17   A    
C3    C5    A    
C17   C21   A    
Cr1   O1    S    
C7    H1    S    
C46   H7    S    
C38   O10   A    
C17   C18   A    
C49   H15   S    
C35   O23   A    
C36   O7    A    
C34   C45   S    
Cr5   O25   S    
C48   C49   S    
Cr2   O14   S    
C9    C47   S    
C22   C27   A    
C20   H23   S    
C10   C48   S    
Cr3   O22   S    
C22   C24   A    
C42   C43   S    
C1    O4    A    
Cr5   O8    S    
C29   H30   S    
C50   H21   S    
C10   H4    S    
C25   C30   S    
C39   O12   A    
C54   C55   S    
C34   C52   T    
C14   C19   S    
C28   C31   S    
C8    C44   S    
C47   H13   S    
C32   O25   A    
Cr5   O7    S    
C17   C50   S    
C6    C10   S    
Cr6   O2    S    
C33   O26   A    
C16   O1    A    
C33   C41   S    
C23   C32   S    
C48   H19   S    
Cr6   O9    S    
C47   H14   S    
C46   H6    S    
Cr5   O11   S    
C37   O8    A    
C5    C6    A    
C21   C40   S    
C20   H27   S    
Cr1   O22   S    
C49   H16   S    
C36   O6    A    
Cr3   O15   S    
C27   H29   S    
C15   C21   A    
C3    C37   S    
Cr3   O21   S    
Cr4   O5    S    
C14   C15   A    
C5    C9    S    
C30   H2    S    
C29   H31   S    
C50   H20   S    
C22   C38   S    
