data_mof_unit_2131.cif
_audit_creation_date              2012-12-10T17:05:24-0500
_audit_creation_method            fapswitch 2.2
_symmetry_space_group_name_H-M    P1
_symmetry_Int_Tables_number       1
_space_group_crystal_system       triclinic
_cell_length_a                    10.045601
_cell_length_b                    10.744053
_cell_length_c                    15.405487
_cell_angle_alpha                 90.041146
_cell_angle_beta                  68.19092
_cell_angle_gamma                 90.169321
_cell_volume                      1543.70855115

loop_
_atom_site_label
_atom_site_type_symbol
_atom_type_description
_atom_site_fract_x
_atom_site_fract_y
_atom_site_fract_z
_atom_type_partial_charge
C1    C     C_R   0.501432 0.737264 0.497999 0.931937
C2    C     C_R   0.644111 0.329886 0.070649 0.170826
C3    C     C_R   0.541142 0.425895 0.106448 0.090722
C4    C     C_R   0.410438 0.494718 0.676211 0.860217
C5    C     C_R   0.746747 0.306992 0.110505 -0.204360
C6    C     C_R   0.742271 0.373277 0.189325 -0.196665
C7    C     C_R   0.553462 0.502031 0.176789 -0.241976
C8    C     C_2   0.614159 0.067322 0.496310 -0.172200
C9    C     C_2   0.493978 0.131172 0.510771 -0.338932
C10   C     C_2   0.611177 0.933473 0.502323 -0.160026
C11   C     C_2   0.506797 0.868799 0.489008 -0.331326
C12   C     C_R   0.377417 0.433361 0.927221 0.041008
C13   C     C_2   0.097901 0.413974 0.460156 -0.114607
C14   C     C_2   0.941929 0.406382 0.473517 -0.133577
C15   C     C_R   0.498819 0.262731 0.502007 0.925857
C16   C     C_R   0.589512 0.498653 0.323897 0.865294
C17   C     C_R   0.351877 0.482329 0.778653 -0.100608
C18   C     C_R   0.640542 0.467404 0.224903 -0.069380
C19   C     C_R   0.164527 0.540160 0.924607 -0.191761
C20   C     C_R   0.215014 0.530311 0.828131 -0.220012
C21   C     C_R   0.432593 0.428477 0.827607 -0.085172
C22   C     C_1   0.908104 0.619059 0.481128 0.342706
C23   C     C_R   0.248931 0.499890 0.973438 0.142534
C24   C     C_R   0.580211 0.382106 0.774492 0.133035
C25   C     C_R   0.699857 0.446896 0.778150 -0.102735
C26   C     C_R   0.837976 0.400030 0.732089 -0.143255
C27   C     C_R   0.857629 0.288855 0.681772 -0.119767
C28   C     C_R   0.739523 0.225552 0.675844 -0.130601
C29   C     C_R   0.601152 0.272154 0.721526 -0.125939
C30   C     C_1   0.248142 0.546617 0.211205 0.141243
C31   C     C_R   0.452905 0.386441 0.982035 0.039321
C32   C     C_R   0.432243 0.443377 0.069010 0.007138
C33   C     C_R   0.301251 0.509331 0.114398 -0.016789
C34   C     C_R   0.208549 0.530554 0.067492 -0.269514
C35   C     C_R   0.544972 0.282855 0.954330 -0.196411
C36   C     C_R   0.640098 0.255408 0.997701 -0.235717
H1    H     H_    0.107888 0.578620 0.103034 0.153689
H2    H     H_    0.490846 0.585416 0.199475 0.154105
H3    H     H_    0.810321 0.344874 0.226214 0.156796
H4    H     H_    0.712555 0.177419 0.972792 0.147262
H5    H     H_    0.062844 0.586056 0.960527 0.142410
H6    H     H_    0.150650 0.568629 0.791703 0.156665
H7    H     H_    0.542527 0.220950 0.899790 0.160000
H8    H     H_    0.685626 0.532342 0.817894 0.120544
H9    H     H_    0.929739 0.449500 0.735804 0.126512
H10   H     H_    0.964607 0.252419 0.646524 0.130886
H11   H     H_    0.755228 0.139967 0.636284 0.124138
H12   H     H_    0.824305 0.232811 0.084354 0.140332
H13   H     H_    0.510238 0.221675 0.717349 0.113145
H14   H     H_    0.716923 0.113351 0.480723 0.164831
H15   H     H_    0.388980 0.088104 0.531750 0.148671
H16   H     H_    0.697264 0.888202 0.516822 0.181076
H17   H     H_    0.424844 0.911294 0.468839 0.154669
H18   H     H_    0.169848 0.343056 0.418192 0.162938
H19   H     H_    0.075628 0.550006 0.551654 0.167773
H20   H     H_    0.901878 0.316525 0.462032 0.145506
N1    N     N_2   0.148330 0.498670 0.499030 -0.180963
N2    N     N_2   0.852680 0.498640 0.499000 -0.134869
N3    N     N_1   0.953470 0.719314 0.466271 -0.262551
N4    N     N_1   0.204743 0.578316 0.288441 -0.182363
O1    O     O_R   0.386950 0.680940 0.500010 -0.608796
O2    O     O_R   0.613110 0.680900 0.499990 -0.617425
O3    O     O_R   0.322330 0.500030 0.632270 -0.622691
O4    O     O_R   0.548480 0.499990 0.632240 -0.592943
O5    O     O_R   0.386890 0.319100 0.500010 -0.621404
O6    O     O_R   0.613050 0.319060 0.499990 -0.618157
O7    O     O_R   0.451520 0.500010 0.367760 -0.584561
O8    O     O_R   0.677670 0.499970 0.367730 -0.616845
Zn1   Zn    Zn3+2 0.349000 0.500030 0.500020 0.945280
Zn2   Zn    Zn3+2 0.651000 0.499970 0.499980 0.955830

loop_
_geom_bond_atom_site_label_1
_geom_bond_atom_site_label_2
_ccdc_geom_bond_type
C22   N2    S    
C14   H20   S    
C28   H11   S    
C16   O8    A    
O4    Zn2   S    
C34   H1    S    
C35   H7    S    
C4    O4    A    
C20   H6    S    
C19   C20   A    
C11   H17   S    
C23   C34   A    
C10   H16   S    
C32   C33   A    
C7    C18   A    
C26   H9    S    
C33   C34   A    
C9    C15   S    
C16   O7    A    
C29   H13   S    
C13   C14   S    
C1    O2    A    
C31   C32   A    
O7    Zn1   S    
C12   C23   A    
O2    Zn2   S    
C26   C27   A    
O6    Zn2   S    
C5    C6    A    
C4    C17   S    
C25   H8    S    
C4    O3    A    
C28   C29   A    
C5    H12   S    
C7    H2    S    
C2    C3    A    
C3    C7    A    
C6    H3    S    
H19   N1    S    
C12   C31   A    
O3    Zn1   S    
C3    C32   A    
C14   N2    D    
C6    C18   A    
C31   C35   A    
C2    C5    A    
C13   N1    D    
C10   C11   D    
O1    Zn1   S    
C15   O5    A    
C8    H14   S    
C36   H4    S    
C17   C20   A    
C1    O1    A    
C24   C25   A    
C27   H10   S    
C16   C18   S    
C13   H18   S    
C21   C24   S    
C2    C36   A    
C22   N3    T    
O5    Zn1   S    
O8    Zn2   S    
C19   C23   A    
N2    Zn2   S    
C1    C11   S    
C30   C33   S    
N1    Zn1   S    
C25   C26   A    
C24   C29   A    
C15   O6    A    
C12   C21   A    
C8    C10   S    
C17   C21   A    
C19   H5    S    
C30   N4    T    
C8    C9    D    
C27   C28   A    
C35   C36   A    
C9    H15   S    
