data_mof_unit_2236.cif
_audit_creation_date              2013-03-05T16:09:56-0500
_audit_creation_method            fapswitch 2.2
_symmetry_space_group_name_H-M    P1
_symmetry_Int_Tables_number       1
_space_group_crystal_system       triclinic
_cell_length_a                    10.661128
_cell_length_b                    9.867122
_cell_length_c                    10.787346
_cell_angle_alpha                 88.383093
_cell_angle_beta                  90.119127
_cell_angle_gamma                 89.414577
_cell_volume                      1134.25687291

loop_
_atom_site_label
_atom_site_type_symbol
_atom_site_description
_atom_site_fract_x
_atom_site_fract_y
_atom_site_fract_z
_atom_type_partial_charge
O1    O     O_R   0.316770 0.614620 0.499990 -0.585641
O2    O     O_R   0.683230 0.614620 0.500010 -0.589967
O3    O     O_R   0.316800 0.385290 0.500000 -0.625152
O4    O     O_R   0.683200 0.385290 0.500000 -0.590078
C1    C     C_R   0.260425 0.500736 0.497858 0.940749
C2    C     C_R   0.739922 0.499084 0.498875 0.922302
O5    O     O_R   0.500010 0.614690 0.316770 -0.627155
O6    O     O_R   0.499990 0.614690 0.683230 -0.600888
O7    O     O_R   0.500040 0.385360 0.316770 -0.545078
O8    O     O_R   0.499960 0.385360 0.683230 -0.581362
C3    C     C_R   0.509503 0.502396 0.259839 1.000328
C4    C     C_R   0.496043 0.497923 0.739826 0.927822
Zn1   Zn    Zn3+2 0.500000 0.653120 0.500000 1.051510
Zn2   Zn    Zn3+2 0.500000 0.346880 0.500000 1.068674
C5    C     C_R   0.473359 0.758434 0.102071 -0.009320
C6    C     C_R   0.363744 0.704826 0.875978 -0.079590
H1    H     H_    0.523310 0.789391 0.183304 0.179115
H2    H     H_    0.317384 0.686227 0.788844 0.134589
C7    C     C_R   0.405052 0.859804 0.038410 -0.036397
C8    C     C_R   0.344521 0.830607 0.928438 -0.100336
H3    H     H_    0.397593 0.960347 0.075619 0.182868
H4    H     H_    0.287091 0.907079 0.881166 0.166548
C9    C     C_R   0.443681 0.606344 0.934389 0.057284
C10   C     C_R   0.481248 0.624897 0.056492 0.042881
C11   C     C_R   0.523234 0.508353 0.126226 -0.278746
C12   C     C_R   0.493078 0.493705 0.872579 -0.269519
C13   C     C_R   0.562533 0.390120 0.065354 0.364790
C14   C     C_R   0.557122 0.388006 0.937556 0.329528
C15   C     C_R   0.066401 0.422261 0.405608 0.243769
C16   C     C_R   0.936418 0.418251 0.409181 0.208874
C17   C     C_R   0.872650 0.496802 0.496033 -0.204285
C18   C     C_R   0.128351 0.502645 0.491406 -0.164200
C19   C     C_R   0.935790 0.577525 0.579002 -0.092809
C20   C     C_R   0.064156 0.580957 0.576397 -0.157596
H5    H     H_    0.885786 0.635780 0.646979 0.225844
H6    H     H_    0.113633 0.641755 0.642526 0.169824
C21   C     C_R   0.599375 0.070443 0.546194 -0.026396
C22   C     C_R   0.400157 0.075389 0.454778 -0.100461
H7    H     H_    0.677989 0.123825 0.584530 0.210398
H8    H     H_    0.320836 0.132741 0.418083 0.218171
C23   C     C_R   0.599489 0.927053 0.548096 0.314403
C24   C     C_R   0.399302 0.932062 0.454066 0.254897
N1    N     N_R   0.500000 0.857200 0.500000 -0.203050
N2    N     N_R   0.500000 0.142810 0.500000 -0.132608
Cl1   Cl    Cl    0.623623 0.243106 0.144254 -0.414649
Cl2   Cl    Cl    0.636396 0.253437 0.862486 -0.486384
N3    N     N_R   0.134515 0.348992 0.313426 0.224397
O9    O     O_R   0.108791 0.222909 0.293123 -0.286498
O10   O     O_R   0.217588 0.410526 0.244572 -0.376457
N4    N     N_R   0.869677 0.342841 0.319449 0.237115
O11   O     O_R   0.874830 0.380649 0.203080 -0.298321
O12   O     O_R   0.830255 0.221990 0.349438 -0.271961
N5    N     N_R   0.703306 0.857333 0.605189 0.222357
O13   O     O_R   0.816701 0.890735 0.573137 -0.346915
O14   O     O_R   0.686546 0.790896 0.709489 -0.364778
N6    N     N_R   0.290070 0.867783 0.407427 0.232129
O15   O     O_R   0.298046 0.794282 0.309747 -0.356527
O16   O     O_R   0.179720 0.905756 0.445315 -0.328037

loop_
_geom_bond_atom_site_label_1
_geom_bond_atom_site_label_2
_geom_bond_distance
_ccdc_geom_bond_type
N4    O12   1.300873 A    
O7    Zn2   2.002157 S    
C17   C19   1.391863 A    
C22   N2    1.358011 A    
O6    Zn1   2.002075 S    
C11   C13   1.414954 A    
C23   N1    1.379164 A    
C12   C14   1.409763 A    
N3    O9    1.301153 A    
O6    C4    1.289716 A    
Zn1   N1    2.013682 S    
C9    C10   1.393478 A    
C1    C18   1.409536 S    
C14   Cl2   1.781503 S    
C13   Cl1   1.778076 S    
C21   N2    1.357525 A    
N4    O11   1.300874 A    
C16   N4    1.430206 S    
C15   C18   1.404094 A    
C21   H7    1.082022 S    
O4    Zn2   1.993348 S    
O2    C2    1.285228 A    
N5    O13   1.301196 A    
C10   C11   1.424038 A    
C22   H8    1.080857 S    
O7    C3    1.297510 A    
C23   N5    1.426638 S    
C15   C16   1.387326 A    
O3    Zn2   1.985746 S    
O8    C4    1.282766 A    
C15   N3    1.439337 S    
O1    C1    1.280346 A    
N3    O10   1.301145 A    
C6    C8    1.391930 A    
C19   H5    1.082343 S    
C8    H4    1.082499 S    
O5    C3    1.285095 A    
C6    C9    1.419105 A    
C20   H6    1.084460 S    
N5    O14   1.299676 A    
C21   C23   1.414399 A    
C16   C17   1.404833 A    
O4    C2    1.280508 A    
O1    Zn1   1.993840 S    
C24   N1    1.380073 A    
C3    C11   1.448655 S    
C22   C24   1.414583 A    
O3    C1    1.282119 A    
O5    Zn1   2.023092 S    
C19   C20   1.369627 A    
N6    O15   1.298366 A    
Zn2   N2    2.013585 S    
O8    Zn2   2.023197 S    
C9    C12   1.410136 A    
C4    C12   1.431907 S    
C13   C14   1.380439 A    
C5    H1    1.077620 S    
O2    Zn1   1.986218 S    
C5    C10   1.421072 A    
C2    C17   1.415391 S    
C24   N6    1.429051 S    
C5    C7    1.395221 A    
C6    H2    1.082180 S    
C7    C8    1.388050 A    
N6    O16   1.301200 A    
C7    H3    1.082885 S    
C18   C20   1.392055 A    
