data_mof_unit_3804.cif
_audit_creation_date              2012-12-11T14:07:50-0500
_audit_creation_method            fapswitch 2.2
_symmetry_space_group_name_H-M    P1
_symmetry_Int_Tables_number       1
_space_group_crystal_system       triclinic
_cell_length_a                    19.861172
_cell_length_b                    17.080104
_cell_length_c                    15.438549
_cell_angle_alpha                 89.708912
_cell_angle_beta                  53.582891
_cell_angle_gamma                 89.383553
_cell_volume                      4214.23834048

loop_
_atom_site_label
_atom_site_type_symbol
_atom_type_description
_atom_site_fract_x
_atom_site_fract_y
_atom_site_fract_z
_atom_type_partial_charge
C1    C     C_R   0.375907 0.197668 0.994232 -0.194035
C2    C     C_R   0.353888 0.813986 0.027231 -0.193826
C3    C     C_R   0.875907 0.697668 0.994232 -0.194041
C4    C     C_R   0.853885 0.313988 0.027236 -0.193823
C5    C     C_R   0.668034 0.916070 0.052317 -0.113550
C6    C     C_R   0.640679 0.100965 0.096259 -0.137763
C7    C     C_R   0.168035 0.416071 0.052315 -0.113551
C8    C     C_R   0.140680 0.600965 0.096258 -0.137765
C9    C     C_R   0.662347 0.176598 0.057277 0.174716
C10   C     C_R   0.708582 0.851661 0.984551 0.195875
C11   C     C_R   0.162348 0.676597 0.057275 0.174714
C12   C     C_R   0.208584 0.351663 0.984548 0.195883
C13   C     C_R   0.621382 0.820874 0.688918 -0.064340
C14   C     C_R   0.683519 0.146311 0.676382 -0.057859
C15   C     C_R   0.121389 0.320877 0.688915 -0.064315
C16   C     C_R   0.183519 0.646311 0.676381 -0.057860
C17   C     C_3   0.170847 0.143718 0.506482 0.355143
C18   C     C_3   0.348401 0.799181 0.489071 0.275690
C19   C     C_3   0.670856 0.643706 0.506494 0.355140
C20   C     C_3   0.848398 0.299183 0.489073 0.275682
C21   C     C_3   0.121103 0.193973 0.610394 -0.528516
C22   C     C_3   0.283463 0.757661 0.593758 -0.430800
C23   C     C_3   0.621101 0.693969 0.610397 -0.528515
C24   C     C_3   0.783460 0.257663 0.593759 -0.430796
C25   C     C_3   0.305105 0.203008 0.465033 -0.481529
C26   C     C_3   0.372097 0.680252 0.376959 -0.438568
C27   C     C_3   0.805112 0.703027 0.465018 -0.481476
C28   C     C_3   0.872098 0.180253 0.376960 -0.438570
C29   C     C_3   0.731323 0.765819 0.394328 -0.480128
C30   C     C_3   0.751551 0.272696 0.436606 -0.446625
C31   C     C_3   0.231343 0.265829 0.394321 -0.480119
C32   C     C_3   0.251551 0.772697 0.436608 -0.446621
C33   C     C_3   0.254433 0.185894 0.419861 0.154696
C34   C     C_3   0.343625 0.767262 0.398505 0.158010
C35   C     C_3   0.754432 0.685893 0.419863 0.154690
C36   C     C_3   0.843625 0.267263 0.398505 0.158014
C37   C     C_3   0.667242 0.772116 0.591997 0.147893
C38   C     C_3   0.745351 0.186918 0.573798 0.121190
C39   C     C_3   0.167248 0.272118 0.591993 0.147885
C40   C     C_3   0.245352 0.686917 0.573797 0.121192
C41   C     C_3   0.755014 0.754789 0.564490 0.392683
C42   C     C_3   0.821371 0.134538 0.484704 0.386428
C43   C     C_3   0.255018 0.254787 0.564489 0.392692
C44   C     C_3   0.321370 0.634537 0.484703 0.386426
C45   C     C_R   0.399246 0.801055 0.208339 -0.165062
C46   C     C_R   0.350091 0.171067 0.217282 -0.148908
C47   C     C_R   0.899245 0.301055 0.208339 -0.165068
C48   C     C_R   0.850090 0.671067 0.217283 -0.148899
C49   C     C_3   0.676984 0.814711 0.496034 -0.341586
C50   C     C_3   0.696372 0.218670 0.531774 -0.394700
C51   C     C_3   0.176994 0.314716 0.496030 -0.341576
C52   C     C_3   0.196372 0.718671 0.531775 -0.394701
C53   C     C_2   0.216198 0.728704 0.059762 -0.383570
C54   C     C_2   0.279448 0.311791 0.968624 -0.322214
C55   C     C_2   0.716195 0.228705 0.059766 -0.383567
C56   C     C_2   0.779445 0.811789 0.968629 -0.322223
C57   C     C_2   0.766946 0.274232 0.973649 0.452258
C58   C     C_2   0.818511 0.751678 0.899540 0.443585
C59   C     C_2   0.266950 0.774229 0.973643 0.452258
C60   C     C_2   0.318512 0.251678 0.899538 0.443579
C61   C     C_R   0.346137 0.899186 0.923428 -0.070926
C62   C     C_R   0.367683 0.112434 0.894446 -0.076285
C63   C     C_R   0.846134 0.399188 0.923432 -0.070918
C64   C     C_R   0.867683 0.612433 0.894446 -0.076284
C65   C     C_R   0.358469 0.078085 0.313205 -0.079958
C66   C     C_R   0.409806 0.892552 0.301486 -0.105935
C67   C     C_R   0.858471 0.578086 0.313206 -0.079970
C68   C     C_R   0.909806 0.392553 0.301487 -0.105932
C69   C     C_R   0.350095 0.188847 0.930142 0.015946
C70   C     C_R   0.313735 0.831010 0.982173 0.041664
C71   C     C_R   0.850095 0.688847 0.930143 0.015945
C72   C     C_R   0.813731 0.331013 0.982180 0.041659
C73   C     C_R   0.391546 0.815364 0.301697 0.107090
C74   C     C_R   0.309964 0.140040 0.320068 0.095032
C75   C     C_R   0.891545 0.315364 0.301698 0.107091
C76   C     C_R   0.809965 0.640040 0.320069 0.094994
C77   C     C_R   0.624989 0.197620 0.010029 0.019411
C78   C     C_R   0.658250 0.819953 0.959404 -0.063859
C79   C     C_R   0.124990 0.697620 0.010028 0.019410
C80   C     C_R   0.158251 0.319954 0.959401 -0.063887
C81   C     C_R   0.606458 0.803174 0.786247 0.536884
C82   C     C_R   0.642587 0.177512 0.780199 0.552423
C83   C     C_R   0.106462 0.303175 0.786244 0.536860
C84   C     C_R   0.142588 0.677511 0.780199 0.552424
C85   C     C_R   0.636012 0.083406 0.684160 -0.126031
C86   C     C_R   0.597566 0.897204 0.693343 -0.106776
C87   C     C_R   0.136012 0.583406 0.684160 -0.126038
C88   C     C_R   0.097570 0.397205 0.693341 -0.106787
H1    H     H_    0.385155 0.252439 0.020311 0.089363
H2    H     H_    0.352034 0.760317 0.065993 0.100946
H3    H     H_    0.885154 0.752439 0.020311 0.089366
H4    H     H_    0.852029 0.260320 0.065999 0.100947
H5    H     H_    0.133143 0.138326 0.475036 0.124379
H6    H     H_    0.331732 0.862502 0.503680 0.104227
H7    H     H_    0.633152 0.638288 0.475050 0.124365
H8    H     H_    0.831728 0.362504 0.503681 0.104246
H9    H     H_    0.557183 0.706208 0.633568 0.202495
H10   H     H_    0.734172 0.302491 0.642634 0.213157
H11   H     H_    0.057180 0.206214 0.633582 0.202502
H12   H     H_    0.234176 0.802490 0.642633 0.213156
H13   H     H_    0.113189 0.161075 0.677956 0.246191
H14   H     H_    0.310320 0.738819 0.636551 0.270184
H15   H     H_    0.613174 0.661078 0.677972 0.246182
H16   H     H_    0.810316 0.238823 0.636553 0.270185
H17   H     H_    0.320957 0.147861 0.488094 0.179427
H18   H     H_    0.440197 0.674594 0.338596 0.203342
H19   H     H_    0.820997 0.647887 0.488053 0.179430
H20   H     H_    0.940198 0.174596 0.338599 0.203343
H21   H     H_    0.748397 0.722518 0.631861 0.158063
H22   H     H_    0.862495 0.122733 0.510141 0.140855
H23   H     H_    0.248401 0.222528 0.631866 0.158052
H24   H     H_    0.362495 0.622731 0.510139 0.140852
H25   H     H_    0.788857 0.799853 0.336138 0.207678
H26   H     H_    0.746167 0.256028 0.371303 0.190934
H27   H     H_    0.288885 0.299858 0.336146 0.207708
H28   H     H_    0.246166 0.756031 0.371305 0.190936
H29   H     H_    0.697442 0.756455 0.358132 0.187955
H30   H     H_    0.727960 0.334064 0.460381 0.211454
H31   H     H_    0.197475 0.256478 0.358105 0.187931
H32   H     H_    0.227962 0.834066 0.460383 0.211460
H33   H     H_    0.614479 0.824443 0.513455 0.193787
H34   H     H_    0.639258 0.251525 0.596026 0.183780
H35   H     H_    0.114490 0.324442 0.513444 0.193780
H36   H     H_    0.139259 0.751527 0.596028 0.183781
H37   H     H_    0.706590 0.872954 0.481367 0.238810
H38   H     H_    0.675586 0.169394 0.506218 0.205940
H39   H     H_    0.206594 0.372961 0.481369 0.238820
H40   H     H_    0.175585 0.669396 0.506220 0.205942
H41   H     H_    0.365611 0.230923 0.401576 0.216122
H42   H     H_    0.361698 0.655198 0.319452 0.196032
H43   H     H_    0.865602 0.730966 0.401558 0.216123
H44   H     H_    0.861701 0.155197 0.319452 0.196030
H45   H     H_    0.394159 0.745248 0.180078 0.092913
H46   H     H_    0.331653 0.221177 0.192998 0.107302
H47   H     H_    0.894159 0.245248 0.180079 0.092909
H48   H     H_    0.831650 0.721175 0.192999 0.107303
H49   H     H_    0.210257 0.734125 0.134181 0.139744
H50   H     H_    0.284450 0.320388 0.034167 0.114578
H51   H     H_    0.710254 0.234126 0.134186 0.139742
H52   H     H_    0.784445 0.820384 0.034173 0.114581
H53   H     H_    0.334910 0.925406 0.869072 0.136343
H54   H     H_    0.365292 0.087206 0.832199 0.140567
H55   H     H_    0.834906 0.425409 0.869077 0.136346
H56   H     H_    0.865291 0.587206 0.832200 0.140570
H57   H     H_    0.349642 0.042952 0.377381 0.150642
H58   H     H_    0.419393 0.922424 0.354762 0.124743
H59   H     H_    0.849648 0.542955 0.377381 0.150666
H60   H     H_    0.919393 0.422424 0.354762 0.124751
H61   H     H_    0.617400 0.256135 0.990515 0.147384
H62   H     H_    0.666305 0.765419 0.919780 0.196616
H63   H     H_    0.117401 0.756135 0.990514 0.147385
H64   H     H_    0.166308 0.265421 0.919774 0.196609
H65   H     H_    0.641192 0.051936 0.620267 0.180688
H66   H     H_    0.590397 0.927772 0.637808 0.119003
H67   H     H_    0.141191 0.551937 0.620267 0.180689
H68   H     H_    0.090401 0.427773 0.637806 0.119006
H69   H     H_    0.688364 0.948263 0.092792 0.105729
H70   H     H_    0.650062 0.073003 0.151319 0.106100
H71   H     H_    0.188366 0.448264 0.092790 0.105727
H72   H     H_    0.150063 0.573003 0.151318 0.106101
N1    N     N_R   0.408680 0.130160 0.995800 -0.035936
N2    N     N_R   0.408680 0.869840 0.995800 -0.052110
N3    N     N_R   0.908680 0.630160 0.995800 -0.035936
N4    N     N_R   0.908680 0.369840 0.995800 -0.052112
N5    N     N_R   0.421680 0.867580 0.153120 -0.038665
N6    N     N_R   0.421680 0.132420 0.153120 -0.050376
N7    N     N_R   0.921680 0.367580 0.153120 -0.038667
N8    N     N_R   0.921680 0.632420 0.153120 -0.050375
N9    N     N_R   0.403730 0.921770 0.935950 -0.053059
N10   N     N_R   0.403730 0.078230 0.935950 -0.047193
N11   N     N_R   0.903730 0.421770 0.935950 -0.053058
N12   N     N_R   0.903730 0.578230 0.935950 -0.047193
N13   N     N_R   0.426630 0.075970 0.212960 -0.057464
N14   N     N_R   0.426630 0.924030 0.212960 -0.042921
N15   N     N_R   0.926630 0.575970 0.212960 -0.057461
N16   N     N_R   0.926630 0.424030 0.212960 -0.042923
N17   N     N_R   0.591320 0.134600 0.004200 -0.063345
N18   N     N_R   0.591320 0.865400 0.004200 -0.070288
N19   N     N_R   0.091320 0.634600 0.004200 -0.063345
N20   N     N_R   0.091320 0.365400 0.004200 -0.070292
N21   N     N_R   0.578320 0.867660 0.846880 -0.097233
N22   N     N_R   0.578320 0.132340 0.846880 -0.115156
N23   N     N_R   0.078320 0.367660 0.846880 -0.097242
N24   N     N_R   0.078320 0.632340 0.846880 -0.115155
N25   N     N_R   0.573370 0.074390 0.787040 -0.080311
N26   N     N_R   0.573370 0.925610 0.787040 -0.061352
N27   N     N_R   0.073370 0.574390 0.787040 -0.080310
N28   N     N_R   0.073370 0.425610 0.787040 -0.061353
N29   N     N_R   0.596270 0.927870 0.064040 -0.046996
N30   N     N_R   0.596270 0.072130 0.064040 -0.049433
N31   N     N_R   0.096270 0.427870 0.064040 -0.046993
N32   N     N_R   0.096270 0.572130 0.064040 -0.049433
Ni1   Ni    Ni4+2 0.500000 0.131190 0.000000 0.210629
Ni2   Ni    Ni4+2 0.500000 0.868810 0.000000 0.217954
Ni3   Ni    Ni4+2 0.000000 0.631190 0.000000 0.210628
Ni4   Ni    Ni4+2 0.000000 0.368810 0.000000 0.217944
Ni5   Ni    Ni4+2 0.488650 0.000000 0.862740 0.218804
Ni6   Ni    Ni4+2 0.988650 0.500000 0.862740 0.218806
Ni7   Ni    Ni4+2 0.511350 0.000000 0.137260 0.229025
Ni8   Ni    Ni4+2 0.011350 0.500000 0.137260 0.229025
Cl1   Cl    Cl    0.812077 0.842264 0.545522 -0.535560
Cl2   Cl    Cl    0.797207 0.040173 0.459986 -0.656416
Cl3   Cl    Cl    0.312094 0.342260 0.545491 -0.535574
Cl4   Cl    Cl    0.297205 0.540173 0.459985 -0.656422
Cl5   Cl    Cl    0.793750 0.258394 0.842970 -0.642820
Cl6   Cl    Cl    0.828200 0.743183 0.778311 -0.626711
Cl7   Cl    Cl    0.293753 0.758390 0.842965 -0.642829
Cl8   Cl    Cl    0.328200 0.243182 0.778309 -0.626742
O1    O     O_3   0.614248 0.729853 0.817820 -0.655150
C89   C     C_3   0.535175 0.704193 0.906117 0.181291
H73   H     H_    0.488780 0.706867 0.887656 0.119045
H74   H     H_    0.512652 0.739567 0.978838 0.104757
C90   C     C_3   0.542567 0.619506 0.930576 -0.831837
H75   H     H_    0.480609 0.598568 0.000255 0.205394
H76   H     H_    0.564457 0.581981 0.859680 0.271579
H77   H     H_    0.587813 0.614728 0.950449 0.259126
O2    O     O_3   0.653912 0.250038 0.808562 -0.623120
C91   C     C_3   0.581074 0.296387 0.851531 0.182764
H78   H     H_    0.529765 0.275451 0.933208 0.091931
H79   H     H_    0.559926 0.295420 0.798811 0.105721
C92   C     C_3   0.599573 0.380917 0.860943 -0.796376
H80   H     H_    0.648862 0.404617 0.780090 0.266346
H81   H     H_    0.542011 0.417238 0.897304 0.208649
H82   H     H_    0.621176 0.384499 0.912653 0.253914
O3    O     O_3   0.114246 0.229851 0.817817 -0.655161
C93   C     C_3   0.035175 0.204203 0.906133 0.181304
H83   H     H_    0.988767 0.206886 0.887696 0.119049
H84   H     H_    0.012674 0.239576 0.978846 0.104760
C94   C     C_3   0.042559 0.119513 0.930590 -0.831832
H85   H     H_    0.087858 0.114719 0.950377 0.259167
H86   H     H_    0.980611 0.098597 0.000329 0.205387
H87   H     H_    0.064381 0.081980 0.859722 0.271534
O4    O     O_3   0.153913 0.750038 0.808561 -0.623120
C95   C     C_3   0.081076 0.796387 0.851528 0.182766
H88   H     H_    0.029766 0.775452 0.933206 0.091932
H89   H     H_    0.059929 0.795421 0.798807 0.105722
C96   C     C_3   0.099575 0.880917 0.860940 -0.796387
H90   H     H_    0.148864 0.904617 0.780087 0.266338
H91   H     H_    0.042013 0.917239 0.897301 0.208651
H92   H     H_    0.121179 0.884499 0.912649 0.253915
Cl9   Cl    Cl    0.183726 0.046025 0.538467 -0.709396
Cl10  Cl    Cl    0.451156 0.789540 0.457214 -0.688396
Cl11  Cl    Cl    0.683757 0.546027 0.538497 -0.709438
Cl12  Cl    Cl    0.951152 0.289545 0.457217 -0.688387

loop_
_geom_bond_atom_site_label_1
_geom_bond_atom_site_label_2
_ccdc_geom_bond_type
C61   C70   A    
C42   H22   S    
N8    N15   A    
C81   O1    S    
C32   H32   S    
C57   Cl5   S    
C20   Cl12  S    
N13   Ni7   S    
C51   H35   S    
N7    Ni4   S    
C48   C76   A    
C39   C51   S    
C82   N22   A    
C50   H34   S    
N6    Ni1   S    
C81   N21   A    
C25   H41   S    
N5    Ni2   S    
C2    N2    A    
C6    C9    A    
C47   H47   S    
C68   N16   A    
C25   H17   S    
C54   C60   D    
C90   H75   S    
C68   C75   A    
N18   Ni2   S    
C45   N5    A    
N14   Ni7   S    
C94   H85   S    
N17   Ni1   S    
C24   H10   S    
C80   N20   A    
C45   C73   A    
C62   H54   S    
C26   H42   S    
C38   C42   S    
C92   H82   S    
C83   O3    S    
C21   H11   S    
C58   C71   S    
C90   H77   S    
C46   H46   S    
C58   Cl6   S    
C13   C81   A    
C16   C84   A    
C55   H51   S    
C3    H3    S    
C30   H30   S    
C64   C71   A    
C2    H2    S    
C32   C52   S    
C15   C88   A    
C91   H79   S    
C26   C34   S    
C23   H15   S    
N19   N32   A    
C20   C24   S    
C67   N15   A    
N8    Ni3   S    
C48   N8    A    
C13   C86   A    
C16   C87   A    
C24   C38   S    
C31   C33   S    
N26   Ni5   S    
N12   Ni6   S    
C50   H38   S    
N3    Ni3   S    
C10   C56   S    
O4    C95   S    
C40   C44   S    
C13   C37   S    
C11   C53   S    
C3    N3    A    
C93   H84   S    
C21   H13   S    
C18   Cl10  S    
C20   H8    S    
C1    N1    A    
N2    Ni2   S    
C17   Cl9   S    
C41   H21   S    
C96   H90   S    
C85   N25   A    
C7    N31   A    
C85   H65   S    
C95   H89   S    
N16   Ni8   S    
C31   H27   S    
C6    H70   S    
N30   Ni7   S    
O1    C89   S    
C34   C73   S    
C90   H76   S    
C52   H40   S    
C7    C12   A    
C62   N10   A    
C7    H71   S    
C35   C76   S    
C22   H12   S    
C30   C50   S    
N27   Ni6   S    
C26   C44   S    
O3    C93   S    
C84   N24   A    
N31   Ni8   S    
C96   H92   S    
C77   H61   S    
N18   N29   A    
C19   C23   S    
C60   Cl8   S    
N19   Ni3   S    
C64   H56   S    
C27   C35   S    
N5    N14   A    
C40   C52   S    
C66   C73   A    
C29   H29   S    
N24   Ni3   S    
C1    C69   A    
C27   H43   S    
C62   C69   A    
C77   N17   A    
C28   H44   S    
C95   C96   S    
C32   C34   S    
C64   N12   A    
C3    C71   A    
C17   C21   S    
C82   O2    S    
C55   C57   D    
C92   H80   S    
N3    N12   A    
C36   C75   S    
C26   H18   S    
C14   C38   S    
C37   C49   S    
C27   C41   S    
C63   N11   A    
C21   C39   S    
C47   N7    A    
C27   H19   S    
C49   H33   S    
C6    N30   A    
C4    C72   A    
C4    N4    A    
N23   Ni4   S    
N1    Ni1   S    
C17   C33   S    
N22   Ni1   S    
C9    C77   A    
C29   C49   S    
N21   Ni2   S    
C18   C34   S    
C15   C39   S    
C11   C79   A    
C16   C40   S    
C9    C55   S    
N1    N10   A    
C44   H24   S    
C61   H53   S    
C25   C43   S    
O2    C91   S    
C86   N26   A    
C89   H74   S    
C96   H91   S    
C43   Cl3   S    
C18   H6    S    
C53   H49   S    
C42   Cl2   S    
C61   N9    A    
C95   H88   S    
C14   C82   A    
C41   Cl1   S    
C89   C90   S    
C88   H68   S    
C46   C74   A    
C19   H7    S    
C78   H62   S    
C91   C92   S    
N9    Ni5   S    
C30   H26   S    
C79   H63   S    
C59   Cl7   S    
C43   H23   S    
C80   H64   S    
C29   H25   S    
C83   N23   A    
N6    N13   A    
C1    H1    S    
N17   N30   A    
C46   N6    A    
C23   H9    S    
C78   N18   A    
C32   H28   S    
C45   H45   S    
C48   H48   S    
C93   H83   S    
C14   C85   A    
C31   C51   S    
N20   N31   A    
C68   H60   S    
N28   Ni6   S    
C87   N27   A    
N21   N26   A    
N4    Ni4   S    
C38   C50   S    
C19   Cl11  S    
N11   Ni6   S    
C93   C94   S    
C49   H37   S    
C53   C59   D    
C29   C35   S    
C5    H69   S    
C22   H14   S    
N24   N27   A    
C30   C36   S    
C51   H39   S    
C18   C22   S    
C84   O4    S    
C86   H66   S    
C5    N29   A    
C5    C10   A    
C92   H81   S    
C23   C37   S    
N23   N28   A    
C67   H59   S    
C52   H36   S    
N29   Ni7   S    
C91   H78   S    
C54   H50   S    
N2    N9    A    
C2    C70   A    
C60   C69   S    
C8    N32   A    
C8    C11   A    
C15   C83   A    
C12   C80   A    
C28   C42   S    
C56   C58   D    
N20   Ni4   S    
C87   H67   S    
N32   Ni8   S    
C57   C72   S    
C37   C41   S    
C28   H20   S    
C65   N13   A    
C22   C40   S    
N15   Ni8   S    
C66   H58   S    
C65   C74   A    
C59   C70   S    
C47   C75   A    
C94   H87   S    
C20   C36   S    
C33   C74   S    
C88   N28   A    
C79   N19   A    
C17   H5    S    
C63   C72   A    
C28   C36   S    
C94   H86   S    
C89   H73   S    
C39   C43   S    
C56   H52   S    
N25   Ni5   S    
C44   Cl4   S    
C63   H55   S    
C66   N14   A    
N4    N11   A    
C19   C35   S    
C67   C76   A    
C10   C78   A    
C24   H16   S    
C31   H31   S    
C65   H57   S    
N22   N25   A    
N10   Ni5   S    
C12   C54   S    
C25   C33   S    
N7    N16   A    
C4    H4    S    
C8    H72   S    
