data_mof_unit_4132.cif
_audit_creation_date              2012-10-26T20:24:10-0400
_audit_creation_method            fapswitch 2.2
_symmetry_space_group_name_H-M    P1
_symmetry_Int_Tables_number       1
_space_group_crystal_system       triclinic
_cell_length_a                    15.84621
_cell_length_b                    10.856509
_cell_length_c                    9.517859
_cell_angle_alpha                 89.454785
_cell_angle_beta                  90.417306
_cell_angle_gamma                 89.399737
_cell_volume                      1637.19169996

loop_
_atom_site_label
_atom_site_type_symbol
_atom_type_description
_atom_site_fract_x
_atom_site_fract_y
_atom_site_fract_z
_atom_type_partial_charge
C1    C     C_R   0.498239 0.259503 0.500841 0.521123
C2    C     C_3   0.542298 0.925425 0.644667 -0.183370
C3    C     C_3   0.411103 0.065254 0.467111 -0.084704
C4    C     C_R   0.340124 0.499672 0.499597 0.550098
C5    C     C_3   0.568879 0.073606 0.390097 -0.097206
C6    C     C_3   0.500815 0.119560 0.502114 -0.016476
C7    C     C_3   0.509927 0.875984 0.497202 0.096006
C8    C     C_3   0.415840 0.921596 0.478058 0.166034
C9    C     C_3   0.565289 0.927377 0.370618 0.241319
C10   C     C_3   0.487703 0.626714 0.082058 0.213309
C11   C     C_3   0.483165 0.627299 0.915145 -0.132056
C12   C     C_3   0.083257 0.498445 0.500465 0.120051
C13   C     C_3   0.582364 0.452920 0.084956 -0.105939
C14   C     C_3   0.435773 0.419231 0.082956 -0.135360
C15   C     C_3   0.584595 0.460366 0.917781 0.556674
C16   C     C_R   0.505652 0.738700 0.499582 0.562050
C17   C     C_3   0.433869 0.424152 0.917069 -0.134719
C18   C     C_R   0.659850 0.500541 0.500405 0.526479
C19   C     C_3   0.971446 0.465833 0.629021 -0.095373
C20   C     C_3   0.027120 0.386588 0.530696 -0.032276
C21   C     C_1   0.250484 0.499067 0.499004 -0.022708
C22   C     C_1   0.749417 0.501886 0.500974 -0.027110
C23   C     C_3   0.971078 0.616367 0.469076 -0.095206
C24   C     C_3   0.027388 0.577429 0.595002 0.231737
C25   C     C_3   0.060398 0.257382 0.566465 -0.262421
C26   C     C_3   0.988216 0.165549 0.582231 -0.301874
C27   C     C_3   0.021822 0.036742 0.618237 -0.441588
C28   C     C_3   0.659234 0.129259 0.415892 -0.278956
C29   C     C_3   0.693470 0.202149 0.289667 -0.308786
C30   C     C_3   0.789620 0.209211 0.292860 -0.467111
C31   C     C_3   0.652371 0.852952 0.359349 -0.218383
C32   C     C_3   0.701295 0.865568 0.221982 -0.311898
C33   C     C_3   0.788209 0.802994 0.235483 -0.463984
C34   C     C_3   0.916465 0.502086 0.499907 -0.036085
C35   C     C_3   0.366215 0.114625 0.330717 -0.245835
C36   C     C_3   0.270564 0.133290 0.352870 -0.318941
C37   C     C_3   0.225775 0.184109 0.221767 -0.446360
C38   C     C_3   0.465864 0.105942 0.777630 -0.264749
C39   C     C_3   0.415544 0.008375 0.859490 -0.324472
C40   C     C_3   0.349817 0.068840 0.952433 -0.457467
C41   C     C_3   0.634577 0.892597 0.687051 -0.283558
C42   C     C_3   0.655201 0.914484 0.842453 -0.302555
C43   C     C_3   0.750053 0.898126 0.868948 -0.456744
C44   C     C_3   0.026530 0.533790 0.375543 0.231125
C45   C     C_3   0.970613 0.420733 0.402121 -0.108829
C46   C     C_1   0.174945 0.498691 0.499459 0.012405
C47   C     C_1   0.824927 0.502558 0.500589 -0.067991
C48   C     C_3   0.526010 0.066982 0.653242 -0.121005
Cu1   Cu    Cu3+1 0.500040 0.499860 0.642410 0.967356
Cu2   Cu    Cu3+1 0.499960 0.500140 0.357590 0.939700
H1    H     H_    0.505482 0.876370 0.724046 0.157767
H2    H     H_    0.447188 0.322464 0.117440 0.100294
H3    H     H_    0.372547 0.443681 0.124052 0.135063
H4    H     H_    0.370492 0.457178 0.881523 0.111196
H5    H     H_    0.439951 0.330654 0.877023 0.139577
H6    H     H_    0.591174 0.355616 0.118159 0.102613
H7    H     H_    0.947331 0.357388 0.320079 0.105998
H8    H     H_    0.947849 0.710885 0.443818 0.099988
H9    H     H_    0.586538 0.112320 0.679130 0.161161
H10   H     H_    0.064133 0.003271 0.533874 0.162353
H11   H     H_    0.057224 0.037645 0.719384 0.159435
H12   H     H_    0.368921 0.094325 0.553196 0.096352
H13   H     H_    0.968258 0.972162 0.628398 0.139222
H14   H     H_    0.944959 0.196085 0.666794 0.162553
H15   H     H_    0.951764 0.161179 0.482278 0.157956
H16   H     H_    0.102988 0.226977 0.481343 0.140097
H17   H     H_    0.097429 0.261349 0.665894 0.144414
H18   H     H_    0.811286 0.248240 0.394114 0.156796
H19   H     H_    0.818134 0.116141 0.280092 0.148713
H20   H     H_    0.811285 0.269426 0.205641 0.140762
H21   H     H_    0.673087 0.162405 0.188053 0.133802
H22   H     H_    0.668532 0.296977 0.295327 0.197523
H23   H     H_    0.381339 0.892440 0.573869 0.057736
H24   H     H_    0.658962 0.193724 0.505586 0.147623
H25   H     H_    0.706817 0.059943 0.445971 0.144254
H26   H     H_    0.827076 0.850043 0.315972 0.145268
H27   H     H_    0.781361 0.704566 0.265898 0.157339
H28   H     H_    0.822168 0.806896 0.134259 0.142663
H29   H     H_    0.666037 0.819664 0.136693 0.152757
H30   H     H_    0.709650 0.963347 0.193983 0.166217
H31   H     H_    0.697114 0.868803 0.444430 0.092982
H32   H     H_    0.641239 0.753092 0.369012 0.159821
H33   H     H_    0.548091 0.947169 0.165572 0.290496
H34   H     H_    0.546216 0.115035 0.289204 0.148478
H35   H     H_    0.259778 0.264678 0.178148 0.153155
H36   H     H_    0.220731 0.111593 0.141280 0.154084
H37   H     H_    0.160766 0.214098 0.248704 0.152545
H38   H     H_    0.240878 0.045179 0.384441 0.163732
H39   H     H_    0.260766 0.200428 0.438943 0.146893
H40   H     H_    0.390393 0.204348 0.297450 0.155354
H41   H     H_    0.378212 0.052758 0.241491 0.224205
H42   H     H_    0.315701 0.854649 0.385822 0.312203
H43   H     H_    0.364610 0.647834 0.094347 0.310431
H44   H     H_    0.651484 0.613396 0.936093 0.263516
H45   H     H_    0.542055 0.684823 0.112620 0.156798
H46   H     H_    0.661352 0.320204 0.896299 0.308306
H47   H     H_    0.006492 0.586193 0.185352 0.319302
H48   H     H_    0.008717 0.698076 0.737369 0.316225
H49   H     H_    0.379754 0.138405 0.020585 0.131169
H50   H     H_    0.300179 0.114966 0.887114 0.140348
H51   H     H_    0.319894 0.996680 0.018087 0.179578
H52   H     H_    0.380694 0.947008 0.788509 0.155110
H53   H     H_    0.459010 0.952575 0.927477 0.174923
H54   H     H_    0.505706 0.151796 0.857642 0.173322
H55   H     H_    0.418838 0.174493 0.739766 0.165693
H56   H     H_    0.947935 0.439058 0.734458 0.117457
H57   H     H_    0.767026 0.798645 0.873757 0.164141
H58   H     H_    0.787604 0.943359 0.785307 0.145265
H59   H     H_    0.767808 0.942794 0.968597 0.139008
H60   H     H_    0.636965 0.009411 0.873146 0.160164
H61   H     H_    0.619779 0.849676 0.909551 0.133532
H62   H     H_    0.649445 0.795009 0.661892 0.171273
H63   H     H_    0.677092 0.954565 0.630729 0.137909
H64   H     H_    0.420480 0.661140 0.876759 0.123560
H65   H     H_    0.528003 0.695418 0.873481 0.105140
H66   H     H_    0.636481 0.503391 0.130326 0.102824
N1    N     N_3   0.501840 0.500250 0.143650 -0.252489
N2    N     N_3   0.501160 0.503300 0.856280 -0.187778
O1    O     O_R   0.500050 0.317570 0.620260 -0.480128
O2    O     O_3   0.376364 0.863880 0.363111 -0.599949
O3    O     O_3   0.415419 0.683115 0.139188 -0.587276
O4    O     O_3   0.650172 0.539850 0.875230 -0.672460
O5    O     O_3   0.603117 0.342493 0.865376 -0.681394
O6    O     O_3   0.057266 0.568595 0.243900 -0.694560
O7    O     O_3   0.059043 0.658391 0.695307 -0.698842
O8    O     O_R   0.499980 0.317810 0.379740 -0.538342
O9    O     O_R   0.379110 0.499870 0.620240 -0.520538
O10   O     O_R   0.379040 0.500110 0.379720 -0.469978
O11   O     O_R   0.500020 0.682190 0.620260 -0.555388
O12   O     O_R   0.499950 0.682430 0.379740 -0.379148
O13   O     O_R   0.620960 0.499890 0.620280 -0.394598
O14   O     O_R   0.620890 0.500130 0.379760 -0.557507
O15   O     O_3   0.520451 0.903819 0.244822 -0.629434

loop_
_geom_bond_atom_site_label_1
_geom_bond_atom_site_label_2
_ccdc_geom_bond_type
C36   H39   S    
C23   H8    S    
C15   O4    S    
Cu2   N1    S    
C41   C42   S    
C18   O14   A    
C19   C20   S    
C25   H17   S    
C3    C6    S    
C28   H24   S    
C40   H49   S    
C7    C8    S    
Cu1   O1    S    
C36   H38   S    
Cu1   O13   S    
C45   H7    S    
C26   C27   S    
C31   H32   S    
C15   O5    S    
C39   H52   S    
C37   H35   S    
C36   C37   S    
H43   O3    S    
H47   O6    S    
C27   H10   S    
C38   C39   S    
C33   H28   S    
C20   C25   S    
C2    C41   S    
Cu2   O12   S    
C1    O1    A    
C11   H64   S    
C26   H14   S    
C38   H54   S    
C27   H11   S    
C2    C7    S    
C40   H51   S    
H48   O7    S    
C14   H2    S    
Cu1   N2    S    
C41   H62   S    
C23   C24   S    
Cu2   O8    S    
C16   O12   A    
C17   H5    S    
C38   C48   S    
C20   C45   S    
C4    O9    A    
C29   H22   S    
C14   N1    S    
C22   C47   T    
C14   C17   S    
C18   O13   A    
C30   H20   S    
Cu1   O9    S    
C4    O10   A    
C1    C6    S    
C37   H36   S    
C1    O8    A    
C12   C46   S    
C3    C8    S    
C2    H1    S    
C39   C40   S    
C5    H34   S    
C2    C48   S    
C25   C26   S    
Cu1   O11   S    
C44   O6    S    
C23   C44   S    
C35   C36   S    
C42   H61   S    
C35   H40   S    
C5    C9    S    
C29   C30   S    
C32   H30   S    
C5    C28   S    
C33   H26   S    
C31   C32   S    
C3    C35   S    
C23   C34   S    
C12   C20   S    
C34   C45   S    
C43   H57   S    
C16   O11   A    
C6    C48   S    
Cu2   O14   S    
C17   N2    S    
H44   O4    S    
C7    C16   S    
C13   C15   S    
C24   O7    S    
Cu2   O10   S    
C42   C43   S    
C30   H19   S    
C11   H65   S    
C44   C45   S    
C8    O2    S    
C48   H9    S    
C21   C46   T    
C3    H12   S    
C7    C9    S    
C28   C29   S    
H46   O5    S    
C18   C22   S    
C26   H15   S    
C37   H37   S    
C25   H16   S    
C41   H63   S    
C19   C34   S    
C40   H50   S    
C13   N1    S    
C39   H53   S    
C12   C24   S    
C31   H31   S    
C15   N2    S    
C32   C33   S    
C13   H6    S    
C38   H55   S    
C19   C24   S    
H42   O2    S    
C12   C44   S    
C10   N1    S    
C32   H29   S    
C4    C21   S    
C28   H25   S    
C33   H27   S    
C5    C6    S    
C10   H45   S    
C8    H23   S    
C10   O3    S    
C43   H58   S    
C42   H60   S    
H33   O15   S    
C13   H66   S    
C10   C11   S    
C9    C31   S    
C19   H56   S    
C14   H3    S    
Cu1   Cu2   S    
C27   H13   S    
C34   C47   S    
C43   H59   S    
C11   N2    S    
C17   H4    S    
C30   H18   S    
C9    O15   S    
C29   H21   S    
C35   H41   S    
