data_mof_unit_3062.cif
_audit_creation_date              2013-03-05T15:52:31-0500
_audit_creation_method            fapswitch 2.2
_symmetry_space_group_name_H-M    P1
_symmetry_Int_Tables_number       1
_space_group_crystal_system       triclinic
_cell_length_a                    11.033839
_cell_length_b                    11.105149
_cell_length_c                    18.800801
_cell_angle_alpha                 90.423301
_cell_angle_beta                  90.641895
_cell_angle_gamma                 59.547897
_cell_volume                      1985.78997698

loop_
_atom_site_label
_atom_site_type_symbol
_atom_site_description
_atom_site_fract_x
_atom_site_fract_y
_atom_site_fract_z
_atom_type_partial_charge
O1    O     O_R   0.748670 0.497520 0.427970 -0.538558
O2    O     O_R   0.476470 0.723930 0.429450 -0.530469
C1    C     C_R   0.359648 0.767477 0.395786 0.523535
O3    O     O_R   0.264730 0.744140 0.416740 -0.525193
O4    O     O_R   0.309440 0.472410 0.418220 -0.506785
C2    C     C_R   0.385409 0.353087 0.388547 0.516966
O5    O     O_R   0.501630 0.260530 0.414310 -0.542194
O6    O     O_R   0.727920 0.305730 0.428950 -0.502146
C3    C     C_R   0.716325 0.413508 0.394965 0.546748
O7    O     O_R   0.738670 0.496020 0.588600 -0.512684
O8    O     O_R   0.467190 0.722540 0.578350 -0.519332
C4    C     C_R   0.341084 0.774658 0.602917 0.552164
O9    O     O_R   0.254720 0.742640 0.577370 -0.445635
O10   O     O_R   0.300170 0.471020 0.567120 -0.413626
C5    C     C_R   0.369466 0.347539 0.594363 0.553989
O11   O     O_R   0.491630 0.259030 0.574940 -0.539842
O12   O     O_R   0.718640 0.304340 0.577850 -0.501460
C6    C     C_R   0.768548 0.375208 0.608250 0.550672
Cr1   Cr    Cr6+3 0.601740 0.606840 0.505840 0.996178
Cr2   Cr    Cr6+3 0.291500 0.601560 0.495070 1.079204
Cr3   Cr    Cr6+3 0.606780 0.291630 0.499130 1.007701
O13   O     O_3   0.500010 0.500010 0.500020 -0.274070
C7    C     C_R   0.866587 0.887299 0.108953 0.026988
C8    C     C_R   0.872851 0.987156 0.152777 -0.131425
C9    C     C_R   0.750030 0.095143 0.184274 -0.127276
C10   C     C_R   0.618411 0.107195 0.171435 0.034509
H1    H     H_    0.577201 0.161042 0.304702 0.143229
C11   C     C_R   0.355943 0.317018 0.166261 0.003992
C12   C     C_R   0.480811 0.232827 0.276830 -0.148984
C13   C     C_R   0.483235 0.222944 0.203674 -0.023217
C14   C     C_R   0.018167 0.665155 0.286432 -0.103742
C15   C     C_R   0.907451 0.768536 0.326064 -0.124105
C16   C     C_R   0.621007 0.994408 0.136870 -0.084230
C17   C     C_R   0.738935 0.891325 0.102065 -0.075737
C18   C     C_R   0.237251 0.417969 0.203794 -0.162617
C19   C     C_R   0.235563 0.425112 0.277614 -0.042211
C20   C     C_R   0.876805 0.736941 0.392808 -0.106470
C21   C     C_R   0.952251 0.600532 0.418402 -0.060007
C22   C     C_R   0.061478 0.496384 0.378403 -0.042169
C23   C     C_R   0.102442 0.529305 0.314088 0.047282
C24   C     C_R   0.361073 0.332839 0.314286 0.001031
H2    H     H_    0.731052 0.810976 0.072948 0.166488
H3    H     H_    0.846841 0.873819 0.305506 0.108955
H4    H     H_    0.972389 0.980235 0.163659 0.131019
H5    H     H_    0.759186 0.164563 0.220989 0.131732
H6    H     H_    0.042406 0.694226 0.236068 0.087712
H7    H     H_    0.529567 0.985116 0.138045 0.170923
H8    H     H_    0.140127 0.485871 0.175582 0.158901
H9    H     H_    0.793161 0.817736 0.424260 0.105078
H10   H     H_    0.927597 0.575791 0.469867 0.142931
H11   H     H_    0.119981 0.392092 0.400108 0.089541
C25   C     C_R   0.856195 0.341738 0.181986 0.017413
C26   C     C_R   0.951296 0.308338 0.238252 0.013130
C27   C     C_R   0.905919 0.327876 0.307662 0.042146
C28   C     C_R   0.665417 0.429892 0.266291 -0.197619
C29   C     C_R   0.711690 0.408906 0.195663 -0.179750
C30   C     C_3   0.080256 0.171806 0.254655 -0.278140
C31   C     C_3   0.028345 0.190824 0.330498 -0.267779
C32   C     C_R   0.763855 0.384169 0.322468 0.015513
H12   H     H_    0.553899 0.480369 0.277033 0.126213
H13   H     H_    0.635978 0.441680 0.152384 0.139494
H14   H     H_    0.177749 0.177046 0.249396 0.144865
H15   H     H_    0.082452 0.082116 0.227033 0.146701
H16   H     H_    0.996855 0.114112 0.346048 0.149111
H17   H     H_    0.098493 0.202049 0.369273 0.130014
C33   C     C_R   0.368134 0.820442 0.172240 0.014417
C34   C     C_R   0.450749 0.853139 0.217388 -0.010104
C35   C     C_R   0.438588 0.848558 0.291795 0.006085
C36   C     C_R   0.275261 0.768179 0.275686 -0.165807
C37   C     C_R   0.291035 0.766009 0.202923 -0.163660
C38   C     C_3   0.608993 0.764840 0.228175 -0.291991
C39   C     C_3   0.590694 0.776478 0.306451 -0.249937
C40   C     C_R   0.347896 0.810198 0.321631 0.016523
H18   H     H_    0.212819 0.727272 0.296212 0.157868
H19   H     H_    0.231620 0.733166 0.170526 0.112364
H20   H     H_    0.676315 0.806719 0.214973 0.138843
H21   H     H_    0.652295 0.658370 0.207039 0.165552
H22   H     H_    0.636028 0.673083 0.331528 0.188530
H23   H     H_    0.618655 0.849699 0.331902 0.134852
C41   C     C_R   0.302326 0.324985 0.813639 0.012539
C42   C     C_R   0.430948 0.291236 0.786805 -0.012966
C43   C     C_R   0.448875 0.299783 0.716077 0.058368
C44   C     C_R   0.207774 0.368360 0.692473 -0.086965
C45   C     C_R   0.187454 0.373110 0.766377 -0.126902
C46   C     C_3   0.576081 0.172249 0.798329 -0.110886
C47   C     C_3   0.600801 0.191778 0.720746 -0.273463
C48   C     C_R   0.342530 0.325644 0.666667 0.076690
H24   H     H_    0.119792 0.399549 0.656328 0.144596
H25   H     H_    0.085414 0.406019 0.786712 0.132891
H26   H     H_    0.579919 0.071666 0.808003 0.204410
H27   H     H_    0.661040 0.244442 0.713439 0.140841
H28   H     H_    0.632205 0.100512 0.685715 0.205719
C49   C     C_R   0.899463 0.298244 0.822681 -0.008514
C50   C     C_R   0.854967 0.425308 0.789815 -0.023407
C51   C     C_R   0.832601 0.442255 0.718883 -0.015433
C52   C     C_R   0.901617 0.201087 0.705454 -0.184969
C53   C     C_R   0.928418 0.184012 0.779345 -0.176510
C54   C     C_3   0.747916 0.572735 0.807426 -0.091412
C55   C     C_3   0.721900 0.592528 0.727661 -0.243573
C56   C     C_R   0.840780 0.335371 0.676238 0.010232
H29   H     H_    0.913013 0.115277 0.673175 0.119774
H30   H     H_    0.960759 0.086702 0.804191 0.153986
H31   H     H_    0.795569 0.631907 0.830558 0.176716
H32   H     H_    0.616558 0.613660 0.709700 0.160768
H33   H     H_    0.757937 0.660301 0.704297 0.209389
C57   C     C_R   0.292035 0.870116 0.820690 0.002374
C58   C     C_R   0.187526 0.867096 0.781806 -0.046424
C59   C     C_R   0.182806 0.870587 0.709184 0.011484
C60   C     C_R   0.392468 0.885629 0.706924 -0.037602
C61   C     C_R   0.389751 0.890797 0.782024 -0.115773
C62   C     C_3   0.092957 0.810895 0.792838 -0.230617
C63   C     C_3   0.081175 0.816539 0.711959 0.107078
C64   C     C_R   0.299987 0.853125 0.670402 -0.020009
H34   H     H_    0.463514 0.911824 0.809913 0.190153
H35   H     H_    0.992957 0.882084 0.820119 0.143810
H36   H     H_    0.150165 0.703708 0.815604 0.180657
H37   H     H_    0.973559 0.890478 0.691759 0.105542
O14   O     O_R   0.186620 0.923750 0.087000 -0.555752
O15   O     O_R   0.957350 0.194160 0.084660 -0.501513
C65   C     C_R   0.909721 0.316667 0.110874 0.555903
O16   O     O_R   0.935120 0.407280 0.085350 -0.486027
O17   O     O_R   0.203800 0.365060 0.067090 -0.477130
C66   C     C_R   0.328863 0.291333 0.093231 0.551528
O18   O     O_R   0.417470 0.174910 0.067830 -0.517471
O19   O     O_R   0.375160 0.946380 0.070880 -0.510638
C67   C     C_R   0.310769 0.895419 0.104581 0.543253
O20   O     O_R   0.160500 0.919670 0.926690 -0.513882
O21   O     O_R   0.933140 0.190380 0.936050 -0.457006
C68   C     C_R   0.939784 0.284606 0.897037 0.549902
O22   O     O_R   0.909010 0.403210 0.925030 -0.476738
O23   O     O_R   0.179590 0.361290 0.918480 -0.505321
C69   C     C_R   0.292924 0.286751 0.885029 0.536637
O24   O     O_R   0.391360 0.170840 0.907510 -0.507623
O25   O     O_R   0.350950 0.942600 0.922260 -0.489222
C70   C     C_R   0.273284 0.899294 0.896483 0.573111
Cr4   Cr    Cr6+3 0.062440 0.063060 0.008240 1.051960
Cr5   Cr    Cr6+3 0.062950 0.375000 0.998920 1.099586
Cr6   Cr    Cr6+3 0.374550 0.061770 0.992470 1.056600
O26   O     O_3   0.166650 0.166610 0.999880 -0.304683
C71   C     C_2   0.655075 0.206283 0.852142 0.241897
H38   H     H_    0.650647 0.305866 0.850712 0.116935
O27   O     O_2   0.722433 0.122715 0.899017 -0.472860
C72   C     C_2   0.625225 0.585410 0.847999 0.241983
H39   H     H_    0.559229 0.548457 0.825008 0.101195
O28   O     O_2   0.599237 0.637344 0.907313 -0.479533
C73   C     C_2   0.490787 0.914314 0.667967 0.205844
H40   H     H_    0.475782 0.938099 0.611580 0.126608
O29   O     O_2   0.589563 0.912398 0.698625 -0.584659
C74   C     C_2   0.992705 0.775483 0.073182 0.205358
H41   H     H_    0.091667 0.772085 0.076843 0.132437
O30   O     O_2   0.987189 0.685159 0.038268 -0.499659
N1    N     N_R   0.139803 0.678588 0.682789 0.098725
O31   O     O_R   0.271507 0.589394 0.695336 -0.373639
O32   O     O_R   0.066828 0.651077 0.637668 -0.366830

loop_
_geom_bond_atom_site_label_1
_geom_bond_atom_site_label_2
_geom_bond_distance
_ccdc_geom_bond_type
C22   H11   1.080672 S    
C28   C29   1.402924 A    
C49   C50   1.384853 A    
C41   C69   1.431333 S    
C28   C32   1.405788 A    
C54   C72   1.504229 S    
H1    C12   1.084207 S    
C44   C48   1.403217 A    
C62   C63   1.523736 S    
C17   H2    1.083413 S    
C41   C45   1.405989 A    
O21   C68   1.314768 A    
C68   O22   1.291321 A    
C42   C43   1.357609 A    
C11   C66   1.458501 S    
C30   H14   1.111876 S    
O4    Cr2   1.967685 S    
C33   C37   1.399735 A    
C26   C27   1.378784 A    
C65   O16   1.271771 A    
C4    O9    1.263268 A    
Cr5   O26   1.995291 S    
O8    Cr1   1.949180 S    
C12   C13   1.378432 A    
O18   Cr6   2.090954 S    
O20   C70   1.284867 A    
C4    C64   1.473357 S    
C39   H23   1.109301 S    
C47   H27   1.095426 S    
C74   O30   1.221460 D    
C46   C47   1.523991 S    
O4    C2    1.281958 A    
C51   C55   1.496122 S    
C57   C58   1.373030 A    
C50   C54   1.491907 S    
C72   H39   1.085694 S    
C14   C23   1.410598 A    
O12   C6    1.294174 A    
C49   C53   1.398180 A    
O16   Cr5   2.070893 S    
C39   H22   1.100652 S    
C31   H17   1.108983 S    
C18   C19   1.389348 A    
C11   C18   1.410918 A    
O6    C3    1.308209 A    
C2    C24   1.456057 S    
C54   H31   1.112786 S    
C7    C8    1.405794 A    
C63   N1    1.434276 S    
C36   C40   1.401364 A    
C62   H36   1.112836 S    
O20   Cr4   2.076469 S    
C61   H34   1.083107 S    
C53   H30   1.061213 S    
C60   C64   1.413163 A    
C55   H32   1.111750 S    
C7    C74   1.479112 S    
O24   Cr6   2.077468 S    
C28   H12   1.083428 S    
C19   C24   1.412028 A    
C36   C37   1.379450 A    
C6    C56   1.446695 S    
Cr4   O26   2.004042 S    
C49   C68   1.447761 S    
C18   H8    1.082786 S    
C30   H15   1.109287 S    
C73   O29   1.217831 D    
C27   C32   1.392594 A    
C31   H16   1.112612 S    
C55   H33   1.108903 S    
O1    Cr1   2.068185 S    
C34   C35   1.410561 A    
O10   Cr2   1.957337 S    
C66   O18   1.255216 A    
Cr1   O13   2.006120 S    
O1    C3    1.306452 A    
C8    C9    1.409068 A    
C22   C23   1.409367 A    
C26   C30   1.492948 S    
C51   C56   1.392410 A    
C69   O24   1.263268 A    
C35   C40   1.394876 A    
C43   C47   1.488830 S    
C14   H6    1.081690 S    
O12   Cr3   1.966277 S    
C33   C67   1.474936 S    
C3    C32   1.440571 S    
C59   C64   1.416278 A    
C20   C21   1.393856 A    
O23   Cr5   1.951477 S    
C20   H9    1.082353 S    
C10   C16   1.394250 A    
C44   C45   1.406263 A    
C19   C23   1.501551 S    
O7    Cr1   2.075849 S    
C35   C39   1.471249 S    
C7    C17   1.390970 A    
C52   C53   1.411079 A    
C16   C17   1.389216 A    
C36   H18   1.075074 S    
C15   C20   1.395832 A    
C71   H38   1.082466 S    
O15   C65   1.281062 A    
C46   C71   1.494870 S    
O25   C70   1.267084 A    
C21   H10   1.082252 S    
C25   C65   1.435027 S    
C57   C70   1.452642 S    
N1    O32   1.300587 A    
C10   C13   1.519763 S    
O19   C67   1.284308 A    
C16   H7    1.065436 S    
C43   C48   1.400084 A    
C45   H25   1.066703 S    
C58   C59   1.365862 A    
C1    O3    1.266917 A    
C9    H5    1.072625 S    
C38   H20   1.088898 S    
C38   H21   1.099480 S    
O14   Cr4   2.074402 S    
C25   C26   1.394318 A    
C5    C48   1.443099 S    
C73   H40   1.084853 S    
C27   C31   1.496056 S    
C72   O28   1.220014 D    
O9    Cr2   2.084996 S    
C12   C24   1.413104 A    
O2    Cr1   1.955826 S    
O10   C5    1.290804 A    
C58   C62   1.479266 S    
C14   C15   1.397050 A    
O17   Cr5   1.963073 S    
Cr2   O13   1.985031 S    
C41   C42   1.372299 A    
O23   C69   1.266953 A    
O6    Cr3   1.951092 S    
O25   Cr6   1.969113 S    
C46   H26   1.112400 S    
O11   Cr3   2.071532 S    
C2    O5    1.262121 A    
C71   O27   1.220069 D    
O19   Cr6   1.958117 S    
O15   Cr4   1.955415 S    
C63   H37   1.111130 S    
Cr3   O13   1.994915 S    
O21   Cr4   1.953687 S    
O2    C1    1.284656 A    
C9    C10   1.407426 A    
C38   C39   1.483452 S    
C47   H28   1.104693 S    
C74   H41   1.074744 S    
O5    Cr3   2.089248 S    
O22   Cr5   2.080205 S    
C30   C31   1.515636 S    
C21   C22   1.396517 A    
C25   C29   1.401988 A    
O7    C6    1.265470 A    
C8    H4    1.078710 S    
C52   C56   1.401885 A    
C11   C13   1.435361 A    
C15   H3    1.082561 S    
C33   C34   1.413116 A    
C34   C38   1.520141 S    
C50   C51   1.350557 A    
C1    C40   1.459114 S    
C60   C73   1.478626 S    
Cr6   O26   1.983597 S    
O3    Cr2   2.076945 S    
C59   C63   1.518056 S    
N1    O31   1.298181 A    
C57   C61   1.419403 A    
C54   C55   1.520173 S    
C60   C61   1.412719 A    
C37   H19   1.078860 S    
C29   H13   1.083219 S    
C62   H35   1.108160 S    
O14   C67   1.280329 A    
O17   C66   1.289043 A    
C52   H29   1.078838 S    
C44   H24   1.082603 S    
C42   C46   1.486255 S    
C5    O11   1.256641 A    
O8    C4    1.295586 A    
