data_mof_unit_3627.cif
_audit_creation_date              2012-12-11T17:34:16-0500
_audit_creation_method            fapswitch 2.2
_symmetry_space_group_name_H-M    P1
_symmetry_Int_Tables_number       1
_space_group_crystal_system       triclinic
_cell_length_a                    23.806593
_cell_length_b                    7.221257
_cell_length_c                    20.655365
_cell_angle_alpha                 90.00138
_cell_angle_beta                  105.446286
_cell_angle_gamma                 90.001417
_cell_volume                      3422.6787967

loop_
_atom_site_label
_atom_site_type_symbol
_atom_type_description
_atom_site_fract_x
_atom_site_fract_y
_atom_site_fract_z
_atom_type_partial_charge
O1    O     O_R   0.449110 0.494310 0.552140 -0.537880
O2    O     O_R   0.550890 0.994310 0.447860 -0.537879
O3    O     O_R   0.440010 0.824420 0.415850 -0.531599
O4    O     O_R   0.559990 0.324420 0.584150 -0.531607
C1    C     C_R   0.425362 0.655875 0.390957 0.688814
C2    C     C_R   0.574639 0.155883 0.609043 0.688823
O5    O     O_R   0.442260 0.824040 0.549660 -0.541267
O6    O     O_R   0.557740 0.324040 0.450340 -0.541268
O7    O     O_R   0.553160 0.993960 0.582620 -0.534275
O8    O     O_R   0.446840 0.493960 0.417380 -0.534270
C3    C     C_R   0.428709 0.655339 0.567669 0.703723
C4    C     C_R   0.571291 0.155338 0.432331 0.703736
O9    O     O_3   0.536380 0.660670 0.510660 -0.373393
O10   O     O_3   0.463620 0.160670 0.489340 -0.373388
V1    V     V_3+5 0.493250 0.935680 0.498020 1.424459
V2    V     V_3+5 0.506750 0.435680 0.501980 1.424454
C5    C     C_R   0.813663 0.912539 0.157369 -0.141993
C6    C     C_R   0.186340 0.412547 0.842634 -0.141993
H1    H     H_    0.788148 0.790946 0.161403 0.123788
H2    H     H_    0.211857 0.290961 0.838603 0.123790
C7    C     C_R   0.853238 0.904996 0.117789 -0.253352
C8    C     C_R   0.146764 0.405003 0.882214 -0.253354
H3    H     H_    0.856920 0.776979 0.091933 0.158321
H4    H     H_    0.143084 0.276993 0.908072 0.158323
C9    C     C_R   0.887183 0.060481 0.111145 -0.080518
C10   C     C_R   0.112816 0.560480 0.888855 -0.080518
C11   C     C_R   0.880751 0.225371 0.146212 0.357963
C12   C     C_R   0.119246 0.725361 0.853784 0.357959
C13   C     C_R   0.840489 0.230653 0.185569 -0.229258
C14   C     C_R   0.159508 0.730645 0.814427 -0.229256
H5    H     H_    0.835433 0.356297 0.212204 0.106546
H6    H     H_    0.164562 0.856283 0.787791 0.106548
C15   C     C_R   0.807027 0.075552 0.191258 0.096236
C16   C     C_R   0.192973 0.575553 0.808742 0.096234
C17   C     C_1   0.766235 0.085991 0.232312 -0.028501
C18   C     C_1   0.233766 0.585993 0.767689 -0.028503
C19   C     C_1   0.732625 0.100114 0.267052 -0.056521
C20   C     C_1   0.267375 0.600116 0.732948 -0.056521
C21   C     C_R   0.665396 0.961200 0.325062 -0.164945
C22   C     C_R   0.334611 0.461207 0.674947 -0.164930
H7    H     H_    0.674159 0.827168 0.306326 0.175381
H8    H     H_    0.325853 0.327179 0.693689 0.175365
C23   C     C_R   0.626549 0.972676 0.365186 -0.163022
C24   C     C_R   0.373458 0.472682 0.634823 -0.163030
H9    H     H_    0.606433 0.846190 0.376141 0.142221
H10   H     H_    0.393580 0.346200 0.623875 0.142218
C25   C     C_R   0.613570 0.144251 0.390276 -0.125489
C26   C     C_R   0.386430 0.644252 0.609724 -0.125492
C27   C     C_R   0.640935 0.304069 0.374105 -0.155654
C28   C     C_R   0.359058 0.804066 0.625887 -0.155655
H11   H     H_    0.631934 0.438152 0.392632 0.142260
H12   H     H_    0.368054 0.938144 0.607353 0.142268
C29   C     C_R   0.680276 0.294464 0.334027 0.374957
C30   C     C_R   0.319717 0.794461 0.665964 0.374952
C31   C     C_R   0.692604 0.120083 0.308963 0.024315
C32   C     C_R   0.307396 0.620085 0.691038 0.024314
C33   C     C_R   0.644707 0.218186 0.793592 -0.158015
C34   C     C_R   0.355318 0.717810 0.206386 -0.157998
H13   H     H_    0.558683 0.250706 0.728552 0.109342
H14   H     H_    0.441343 0.750327 0.271425 0.109333
H15   H     H_    0.728903 0.213779 0.906512 0.125471
H16   H     H_    0.271131 0.713205 0.093457 0.125467
H17   H     H_    0.630968 0.259459 0.837467 0.116112
H18   H     H_    0.369069 0.758900 0.162500 0.116112
C35   C     C_R   0.618811 0.151868 0.674664 -0.069007
C36   C     C_R   0.381191 0.651821 0.325336 -0.068978
C37   C     C_R   0.903534 0.018783 0.768496 -0.200482
C38   C     C_R   0.096449 0.519072 0.231512 -0.200488
C39   C     C_R   0.867114 0.032221 0.703973 -0.194813
C40   C     C_R   0.132865 0.532630 0.296034 -0.194802
C41   C     C_R   0.807698 0.076639 0.692569 0.355101
C42   C     C_R   0.192289 0.576946 0.307432 0.355114
C43   C     C_R   0.783086 0.096430 0.748208 0.041434
C44   C     C_R   0.216912 0.596502 0.251791 0.041417
C45   C     C_R   0.822418 0.094850 0.814566 0.008182
C46   C     C_R   0.177586 0.594788 0.185430 0.008183
C47   C     C_R   0.721632 0.125385 0.741087 0.088572
C48   C     C_R   0.278371 0.625354 0.258909 0.088572
C49   C     C_R   0.703256 0.174589 0.798987 0.124751
C50   C     C_R   0.296761 0.674325 0.200997 0.124748
C51   C     C_R   0.743078 0.178958 0.862293 -0.193840
C52   C     C_R   0.256945 0.678568 0.137685 -0.193832
C53   C     C_R   0.801219 0.135233 0.870239 -0.169890
C54   C     C_R   0.198797 0.634941 0.129747 -0.169851
C55   C     C_R   0.677141 0.103961 0.679617 -0.167020
C56   C     C_R   0.322852 0.604036 0.320391 -0.167004
C57   C     C_R   0.603284 0.211563 0.731751 -0.159791
C58   C     C_R   0.396736 0.711291 0.268233 -0.159814
C59   C     C_R   0.882601 0.054965 0.824061 -0.084718
C60   C     C_R   0.117396 0.555014 0.175940 -0.084700
H19   H     H_    0.685579 0.047335 0.635004 0.171609
H20   H     H_    0.314402 0.547572 0.365020 0.171590
H21   H     H_    0.949181 0.986431 0.775051 0.145693
H22   H     H_    0.050795 0.486824 0.224961 0.145669
H23   H     H_    0.885978 0.012899 0.662174 0.123334
H24   H     H_    0.113992 0.513498 0.337835 0.123329
H25   H     H_    0.829832 0.136828 0.920708 0.108015
H26   H     H_    0.170190 0.636430 0.079273 0.107962
O11   O     O_R   0.053190 0.709680 0.082610 -0.535773
O12   O     O_R   0.946810 0.209680 0.917390 -0.535777
O13   O     O_R   0.057740 0.380240 0.950340 -0.545873
O14   O     O_R   0.942260 0.880240 0.049660 -0.545872
C61   C     C_R   0.070940 0.549186 0.931765 0.699828
C62   C     C_R   0.929060 0.049187 0.068235 0.699828
O15   O     O_R   0.060000 0.379940 0.084150 -0.532688
O16   O     O_R   0.940000 0.879940 0.915850 -0.532690
O17   O     O_R   0.949110 0.210100 0.052140 -0.501664
O18   O     O_R   0.050890 0.710100 0.947860 -0.501658
C63   C     C_R   0.074669 0.548267 0.109053 0.698504
C64   C     C_R   0.925330 0.048258 0.890947 0.698492
O19   O     O_3   0.963630 0.543720 0.989330 -0.370146
O20   O     O_3   0.036370 0.043720 0.010670 -0.370140
V3    V     V_3+5 0.006750 0.268680 0.001980 1.482483
V4    V     V_3+5 0.993250 0.768680 0.998020 1.482491
O21   O     O_3   0.775277 0.115180 0.627964 -0.662744
H27   H     H_    0.799336 0.096127 0.596015 0.290644
O22   O     O_3   0.224709 0.615618 0.372028 -0.662737
H28   H     H_    0.200643 0.596719 0.403980 0.290639
O23   O     O_3   0.914587 0.378626 0.142635 -0.644643
H29   H     H_    0.904777 0.480312 0.170003 0.274641
O24   O     O_3   0.085407 0.878606 0.857358 -0.644645
H30   H     H_    0.095216 0.980289 0.829989 0.274647
O25   O     O_3   0.705173 0.458447 0.321063 -0.661367
H31   H     H_    0.731829 0.434789 0.292552 0.287433
O26   O     O_3   0.294813 0.958438 0.678919 -0.661359
H32   H     H_    0.268157 0.934782 0.707431 0.287434

loop_
_geom_bond_atom_site_label_1
_geom_bond_atom_site_label_2
_ccdc_geom_bond_type
O12   C64   A    
C11   C13   A    
O13   V3    S    
C33   C49   A    
C29   C31   A    
O1    C3    A    
O2    C4    A    
C46   C54   A    
C2    O7    A    
C55   H19   S    
O25   H31   S    
C25   C27   A    
O5    C3    A    
C28   C30   A    
C44   C46   A    
O16   V4    S    
O15   V3    S    
C17   C19   T    
C36   C58   A    
C48   C50   A    
C39   H23   S    
O21   H27   S    
O11   C63   A    
C13   C15   A    
C37   C59   A    
O18   V4    S    
C39   C41   A    
O17   V3    S    
C7    C9    A    
C5    H1    S    
H14   C58   S    
C2    C35   S    
C21   C31   A    
C27   H11   S    
C42   O22   S    
C28   H12   S    
C33   H17   S    
C61   O18   A    
C16   C18   S    
C34   C50   A    
C48   C56   A    
C22   H8    S    
H16   C52   S    
C47   C55   A    
O6    V2    S    
C43   C45   A    
C3    C26   S    
C5    C15   A    
O11   V4    S    
C4    C25   S    
O20   V3    S    
C51   C53   A    
C24   H10   S    
C35   C57   A    
H13   C57   S    
C47   C49   A    
C34   H18   S    
C30   O26   S    
C30   C32   A    
C14   C16   A    
C42   C44   A    
C29   O25   S    
C49   C51   A    
C12   O24   S    
C21   C23   A    
O5    V1    S    
C22   C32   A    
C59   C64   S    
C5    C7    A    
C33   C57   A    
C37   C39   A    
O4    V2    S    
C40   H24   S    
O14   V4    S    
C10   C61   S    
C23   H9    S    
C38   C60   A    
O6    C4    A    
C41   O21   S    
O1    V2    S    
O14   C62   A    
O2    V1    S    
C6    C16   A    
O24   H30   S    
C50   C52   A    
C52   C54   A    
C7    H3    S    
C44   C48   A    
O26   H32   S    
C8    H4    S    
O4    C2    A    
C18   C20   T    
O3    V1    S    
C41   C43   A    
O16   C64   A    
O15   C63   A    
C6    C8    A    
O12   V3    S    
C1    C36   S    
O3    C1    A    
C34   C58   A    
C36   C56   A    
C40   C42   A    
O23   H29   S    
C9    C62   S    
C35   C55   A    
C11   O23   S    
C9    C11   A    
C10   C12   A    
C54   H26   S    
C12   C14   A    
O7    V1    S    
C1    O8    A    
C13   H5    S    
H15   C51   S    
O22   H28   S    
C14   H6    S    
C45   C53   A    
O8    V2    S    
C27   C29   A    
C26   C28   A    
C15   C17   S    
O19   V4    S    
C6    H2    S    
C38   H22   S    
C45   C59   A    
C8    C10   A    
C19   C31   S    
C22   C24   A    
C20   C32   S    
C21   H7    S    
O13   C61   A    
C53   H25   S    
O9    V2    S    
C37   H21   S    
C38   C40   A    
C43   C47   A    
O10   V1    S    
C56   H20   S    
C60   C63   S    
C23   C25   A    
C62   O17   A    
C24   C26   A    
C46   C60   A    
