data_mof_unit_4864.cif
_audit_creation_date              2012-12-10T18:06:48-0500
_audit_creation_method            fapswitch 2.2
_symmetry_space_group_name_H-M    P1
_symmetry_Int_Tables_number       1
_space_group_crystal_system       triclinic
_cell_length_a                    12.595768
_cell_length_b                    13.157656
_cell_length_c                    15.450595
_cell_angle_alpha                 83.311805
_cell_angle_beta                  98.676911
_cell_angle_gamma                 96.768145
_cell_volume                      2500.95743678

loop_
_atom_site_label
_atom_site_type_symbol
_atom_type_description
_atom_site_fract_x
_atom_site_fract_y
_atom_site_fract_z
_atom_type_partial_charge
C1    C     C_R   0.444725 0.308150 0.513030 0.854452
C2    C     C_R   0.685994 0.543736 0.928695 0.163016
C3    C     C_R   0.576310 0.553168 0.894772 0.089837
C4    C     C_R   0.436254 0.515442 0.335851 0.898298
C5    C     C_R   0.756806 0.518024 0.874570 -0.182670
C6    C     C_R   0.718459 0.498182 0.787984 -0.207598
C7    C     C_R   0.538843 0.527799 0.809728 -0.253256
C8    C     C_R   0.728689 0.926240 0.563767 -0.193939
C9    C     C_R   0.595532 0.798366 0.500350 -0.046991
C10   C     C_R   0.300934 0.164513 0.500022 -0.186399
C11   C     C_R   0.268746 0.061006 0.492908 -0.140959
C12   C     C_R   0.459085 0.575374 0.096215 0.045105
C13   C     C_R   0.345926 0.991720 0.502468 -0.186124
C14   C     C_R   0.457236 0.024903 0.523569 0.085667
C15   C     C_R   0.487404 0.126593 0.544309 0.083095
C16   C     C_R   0.557172 0.691389 0.491721 0.863152
C17   C     C_R   0.539669 0.960597 0.524718 0.077722
C18   C     C_R   0.647702 0.991893 0.560197 0.172701
C19   C     C_R   0.672747 0.087421 0.592696 -0.246253
C20   C     C_R   0.593628 0.154196 0.584842 -0.196169
C21   C     C_R   0.517684 0.866623 0.489594 -0.252969
C22   C     C_R   0.702240 0.828629 0.535245 -0.197082
C23   C     C_R   0.352649 0.598288 0.061056 0.074845
C24   C     C_R   0.410467 0.198264 0.522866 -0.112053
C25   C     C_R   0.138322 0.641005 0.622803 -0.305756
C26   C     C_R   0.757525 0.379701 0.396384 0.018155
C27   C     C_R   0.852928 0.353861 0.374466 -0.243139
C28   C     C_R   0.565451 0.490098 0.663809 0.851816
C29   C     C_R   0.950688 0.399393 0.413928 -0.187259
C30   C     C_R   0.952849 0.471291 0.475803 0.016418
C31   C     C_R   0.853395 0.494671 0.495854 0.238431
C32   C     C_R   0.048998 0.520679 0.518383 -0.010296
C33   C     C_R   0.043950 0.591719 0.580141 0.199961
C34   C     C_R   0.538436 0.576535 0.040131 0.092690
C35   C     C_R   0.944865 0.612889 0.598625 -0.296170
C36   C     C_R   0.850887 0.564959 0.556788 -0.225392
C37   C     C_R   0.150858 0.502672 0.502241 -0.047864
C38   C     C_R   0.236610 0.619588 0.603820 0.006657
C39   C     C_R   0.403788 0.540370 0.241553 -0.131197
C40   C     C_R   0.608662 0.502070 0.755737 -0.056851
C41   C     C_R   0.274219 0.596549 0.117850 0.385098
C42   C     C_R   0.300573 0.568205 0.207745 -0.232134
C43   C     C_R   0.481310 0.543602 0.185714 -0.259419
C44   C     C_R   0.504951 0.580083 0.948725 0.076188
C45   C     C_R   0.400891 0.608696 0.914570 -0.247703
C46   C     C_R   0.326891 0.619807 0.970052 -0.167492
C47   C     C_R   0.649468 0.571894 0.072235 -0.227133
C48   C     C_R   0.722477 0.557888 0.016580 -0.215044
Cl1   Cl    Cl    0.141470 0.627010 0.079552 -0.663265
H1    H     H_    0.247964 0.640777 0.940558 0.199575
H2    H     H_    0.616262 0.227092 0.611978 0.172796
H3    H     H_    0.311075 0.656541 0.635939 0.134164
H4    H     H_    0.453834 0.524756 0.785320 0.163349
H5    H     H_    0.939872 0.666848 0.645479 0.157743
H6    H     H_    0.136005 0.695198 0.670056 0.148066
H7    H     H_    0.163447 0.450627 0.456833 0.123680
H8    H     H_    0.680891 0.344822 0.366160 0.144509
H9    H     H_    0.022417 0.376636 0.394694 0.138100
H10   H     H_    0.851188 0.298878 0.327189 0.156662
H11   H     H_    0.777279 0.584505 0.573400 0.212421
H12   H     H_    0.841328 0.512483 0.899406 0.159640
H13   H     H_    0.774328 0.479943 0.746605 0.165797
H14   H     H_    0.806675 0.553574 0.043312 0.179383
H15   H     H_    0.240148 0.567414 0.250901 0.192142
H16   H     H_    0.558442 0.517282 0.212684 0.172007
H17   H     H_    0.375527 0.624974 0.844855 0.145242
H18   H     H_    0.682243 0.581077 0.139907 0.158156
H19   H     H_    0.763485 0.775690 0.544277 0.152531
H20   H     H_    0.753944 0.111352 0.622703 0.152466
H21   H     H_    0.811195 0.948896 0.591494 0.138697
H22   H     H_    0.438861 0.842795 0.455816 0.153030
H23   H     H_    0.240481 0.218506 0.485149 0.153535
H24   H     H_    0.316057 0.912451 0.495229 0.136771
H25   H     H_    0.184060 0.034963 0.476336 0.145907
N1    N     N_R   0.239390 0.551900 0.544730 -0.102566
N2    N     N_R   0.759950 0.448600 0.455730 -0.132838
O1    O     O_R   0.374950 0.371210 0.521360 -0.611617
O2    O     O_R   0.542050 0.338030 0.492790 -0.615278
O3    O     O_R   0.368720 0.526070 0.390200 -0.615778
O4    O     O_R   0.535820 0.492890 0.361630 -0.618228
O5    O     O_R   0.457950 0.661970 0.507210 -0.613383
O6    O     O_R   0.625050 0.628790 0.478640 -0.631181
O7    O     O_R   0.464180 0.507110 0.638370 -0.614757
O8    O     O_R   0.631280 0.473930 0.609800 -0.642522
Zn1   Zn    Zn3+2 0.388420 0.522150 0.519080 0.940999
Zn2   Zn    Zn3+2 0.611580 0.477850 0.480920 0.926051

loop_
_geom_bond_atom_site_label_1
_geom_bond_atom_site_label_2
_ccdc_geom_bond_type
C42   H15   S    
C28   O8    A    
C1    O1    A    
C41   C42   A    
C19   C20   A    
C45   C46   A    
C12   C23   A    
C26   C27   A    
C21   H22   S    
C9    C16   S    
O8    Zn2   S    
C4    O4    A    
C20   H2    S    
C3    C7    A    
C5    C6    A    
C9    C22   A    
C27   C29   A    
C28   C40   S    
C18   C19   A    
C41   Cl1   S    
O4    Zn2   S    
C37   H7    S    
N1    Zn1   S    
C35   C36   A    
C26   N2    A    
C7    C40   A    
O2    Zn2   S    
C37   N1    A    
O1    Zn1   S    
C23   C46   A    
C13   C14   A    
C35   H5    S    
C1    O2    A    
C14   C17   A    
C47   H18   S    
C39   C42   A    
C38   N1    A    
C15   C20   A    
C3    C44   A    
C34   C44   A    
C4    O3    A    
C48   H14   S    
C39   C43   A    
C2    C48   A    
O6    Zn2   S    
C8    C18   A    
C29   C30   A    
C25   C38   A    
C8    C22   A    
C47   C48   A    
C4    C39   S    
C43   H16   S    
C16   O6    A    
C17   C18   A    
C5    H12   S    
C32   C37   A    
C22   H19   S    
C15   C24   A    
O7    Zn1   S    
C13   H24   S    
C6    C40   A    
C19   H20   S    
C2    C5    A    
C7    H4    S    
C12   C34   A    
N2    Zn2   S    
O3    Zn1   S    
C44   C45   A    
C31   C36   A    
C25   H6    S    
C36   H11   S    
C11   H25   S    
C12   C43   A    
C46   H1    S    
C8    H21   S    
C23   C41   A    
C10   C24   A    
C32   C33   A    
C6    H13   S    
C2    C3    A    
C27   H10   S    
C30   C32   A    
C11   C13   A    
C9    C21   A    
C31   N2    A    
C30   C31   A    
C16   O5    A    
C33   C35   A    
C26   H8    S    
C17   C21   A    
C10   C11   A    
C38   H3    S    
C29   H9    S    
C1    C24   S    
C45   H17   S    
C14   C15   A    
C34   C47   A    
O5    Zn1   S    
C25   C33   A    
C28   O7    A    
C10   H23   S    
