data_mof_unit_3645.cif
_audit_creation_date              2012-12-11T15:44:49-0500
_audit_creation_method            fapswitch 2.2
_symmetry_space_group_name_H-M    P1
_symmetry_Int_Tables_number       1
_space_group_crystal_system       triclinic
_cell_length_a                    19.144478
_cell_length_b                    11.012675
_cell_length_c                    18.769413
_cell_angle_alpha                 90.004457
_cell_angle_beta                  90.137564
_cell_angle_gamma                 90.038706
_cell_volume                      3957.17895119

loop_
_atom_site_label
_atom_site_type_symbol
_atom_type_description
_atom_site_fract_x
_atom_site_fract_y
_atom_site_fract_z
_atom_type_partial_charge
C1    C     C_R   0.759683 0.536886 0.647725 0.539335
C2    C     C_R   0.238493 0.532428 0.354015 0.557483
C3    C     C_R   0.261515 0.032460 0.645986 0.560570
C4    C     C_R   0.740328 0.036858 0.352279 0.536126
C5    C     C_R   0.833824 0.105575 0.520235 -0.133667
C6    C     C_R   0.185288 0.053206 0.468252 -0.067194
C7    C     C_R   0.314703 0.553264 0.531754 -0.067569
C8    C     C_R   0.666199 0.605503 0.479781 -0.133718
C9    C     C_R   0.824366 0.088019 0.447465 -0.143730
C10   C     C_R   0.189714 0.051992 0.541081 -0.160788
C11   C     C_R   0.310287 0.552024 0.458929 -0.160864
C12   C     C_R   0.675664 0.587951 0.552547 -0.143597
C13   C     C_3   0.687100 0.295397 0.440596 0.245969
C14   C     C_3   0.350013 0.226637 0.540469 0.229814
C15   C     C_3   0.150125 0.726631 0.459506 0.229004
C16   C     C_3   0.813075 0.795397 0.559394 0.246559
C17   C     C_3   0.700477 0.321088 0.517829 -0.208433
C18   C     C_3   0.341517 0.240902 0.460821 -0.217518
C19   C     C_3   0.158630 0.740929 0.539151 -0.217315
C20   C     C_3   0.799696 0.821079 0.482166 -0.208526
C21   C     C_R   0.779915 0.152157 0.561877 0.043264
C22   C     C_R   0.241769 0.091622 0.426872 0.058226
C23   C     C_R   0.258232 0.591634 0.573125 0.057723
C24   C     C_R   0.720118 0.652137 0.438130 0.043917
C25   C     C_R   0.989270 0.330432 0.420444 -0.023014
C26   C     C_R   0.996752 0.342776 0.570894 -0.027516
C27   C     C_R   0.503316 0.842737 0.429144 -0.027659
C28   C     C_R   0.510782 0.830511 0.579596 -0.022832
C29   C     C_R   0.996001 0.106688 0.428119 -0.096312
C30   C     C_R   0.018621 0.122096 0.574349 -0.100064
C31   C     C_R   0.481420 0.622004 0.425727 -0.100569
C32   C     C_R   0.504047 0.606748 0.571958 -0.096011
C33   C     C_R   0.004134 0.001298 0.468340 -0.161039
C34   C     C_R   0.016731 0.009385 0.541095 -0.159646
C35   C     C_R   0.483254 0.509324 0.459009 -0.159860
C36   C     C_R   0.495859 0.501313 0.531763 -0.160648
C37   C     C_R   0.004070 0.229361 0.536003 0.001738
C38   C     C_R   0.997088 0.222333 0.460776 0.015592
C39   C     C_R   0.502977 0.722365 0.539279 0.015467
C40   C     C_R   0.495997 0.729326 0.464051 0.001779
C41   C     C_R   0.989017 0.449581 0.528333 0.018964
C42   C     C_R   0.972175 0.437956 0.455775 0.018068
C43   C     C_R   0.527892 0.938047 0.544259 0.017451
C44   C     C_R   0.511069 0.949593 0.471694 0.019378
C45   C     C_R   0.791023 0.170426 0.638539 0.582363
C46   C     C_R   0.226020 0.126944 0.354577 0.567949
C47   C     C_R   0.273983 0.626960 0.645425 0.569901
C48   C     C_R   0.708985 0.670443 0.361476 0.581952
C49   C     C_R   0.996738 0.568826 0.555349 -0.078876
C50   C     C_R   0.946072 0.538779 0.417834 -0.047532
C51   C     C_R   0.553980 0.038946 0.582205 -0.046860
C52   C     C_R   0.503364 0.068815 0.444671 -0.078995
C53   C     C_R   0.975919 0.669003 0.515419 -0.167716
C54   C     C_R   0.949420 0.653893 0.447155 -0.130730
C55   C     C_R   0.550649 0.154037 0.552876 -0.130231
C56   C     C_R   0.524183 0.169058 0.484599 -0.168071
C57   C     C_R   0.749057 0.063024 0.073527 0.033628
C58   C     C_R   0.251453 0.081989 0.923201 0.009323
C59   C     C_R   0.249052 0.563015 0.073524 0.033543
C60   C     C_R   0.751453 0.581985 0.923201 0.010175
C61   C     C_R   0.777337 0.973841 0.029036 0.033184
C62   C     C_R   0.185465 0.089862 0.954307 0.012745
C63   C     C_R   0.277345 0.473840 0.029034 0.034461
C64   C     C_R   0.685466 0.589860 0.954307 0.014127
C65   C     C_R   0.778662 0.986945 0.956090 0.005638
C66   C     C_R   0.179493 0.096555 0.027259 0.038773
C67   C     C_R   0.278671 0.486942 0.956089 0.003662
C68   C     C_R   0.679493 0.596549 0.027260 0.036767
C69   C     C_R   0.720817 0.180497 0.969059 -0.150765
C70   C     C_R   0.304144 0.106284 0.041148 -0.182242
C71   C     C_R   0.220796 0.680469 0.969053 -0.149109
C72   C     C_R   0.804145 0.606261 0.041151 -0.181950
C73   C     C_R   0.719073 0.165867 0.042971 -0.090523
C74   C     C_R   0.310692 0.097077 0.967233 -0.168482
C75   C     C_R   0.219052 0.665841 0.042964 -0.091694
C76   C     C_R   0.810692 0.597055 0.967235 -0.168738
C77   C     C_3   0.848996 0.920296 0.030894 -0.254869
C78   C     C_3   0.122188 0.010419 0.947956 -0.262352
C79   C     C_3   0.349009 0.420316 0.030895 -0.254262
C80   C     C_3   0.622191 0.510411 0.947954 -0.261875
C81   C     C_3   0.848995 0.928318 0.950532 -0.249618
C82   C     C_3   0.118387 0.012257 0.028491 -0.251068
C83   C     C_3   0.349009 0.428336 0.950534 -0.250344
C84   C     C_3   0.618391 0.512243 0.028488 -0.251485
C85   C     C_R   0.753125 0.093030 0.925027 0.002416
C86   C     C_R   0.238091 0.100199 0.071950 0.021164
C87   C     C_R   0.253121 0.593018 0.925025 0.003494
C88   C     C_R   0.738092 0.600190 0.071952 0.019492
C89   C     C_R   0.970810 0.346911 0.645849 0.519799
C90   C     C_R   0.026383 0.344338 0.351499 0.525452
C91   C     C_R   0.473633 0.844376 0.648517 0.525896
C92   C     C_R   0.529209 0.846881 0.354166 0.519151
C93   C     C_R   0.010447 0.344618 0.072186 -0.005429
C94   C     C_R   0.001040 0.334923 0.923180 0.012841
C95   C     C_R   0.510471 0.844616 0.072175 -0.007117
C96   C     C_R   0.501059 0.834921 0.923170 0.014450
C97   C     C_R   0.036954 0.437013 0.029094 0.026432
C98   C     C_R   0.035713 0.431582 0.956274 -0.035547
C99   C     C_R   0.536984 0.937008 0.029083 0.026196
C100  C     C_R   0.535736 0.931578 0.956261 -0.034177
C101  C     C_R   0.981033 0.234288 0.965416 -0.166279
C102  C     C_R   0.985584 0.239310 0.039623 -0.176421
C103  C     C_R   0.481057 0.734285 0.965406 -0.165868
C104  C     C_R   0.485607 0.739309 0.039613 -0.177347
C105  C     C_3   0.026931 0.571087 0.031122 0.285892
C106  C     C_3   0.034453 0.568356 0.950782 0.260334
C107  C     C_3   0.526955 0.071082 0.031110 0.285336
C108  C     C_3   0.534471 0.068352 0.950769 0.260808
C109  C     C_R   0.760916 0.531475 0.852440 0.550073
C110  C     C_R   0.239735 0.531224 0.147673 0.551256
C111  C     C_R   0.260916 0.031473 0.852441 0.546523
C112  C     C_R   0.739737 0.031230 0.147676 0.555215
C113  C     C_R   0.772923 0.127953 0.853481 0.563537
C114  C     C_R   0.226558 0.127246 0.146431 0.549452
C115  C     C_R   0.272924 0.627955 0.853483 0.551803
C116  C     C_R   0.726560 0.627241 0.146434 0.561770
C117  C     C_R   0.970336 0.346512 0.853188 0.560707
C118  C     C_R   0.030290 0.347483 0.146256 0.543468
C119  C     C_R   0.470343 0.846512 0.853184 0.558091
C120  C     C_R   0.530300 0.847484 0.146250 0.545832
C121  C     C_R   0.758682 0.106411 0.415980 0.067191
C122  C     C_R   0.252320 0.078875 0.575116 0.072856
C123  C     C_R   0.247702 0.578852 0.424887 0.073623
C124  C     C_R   0.741361 0.606406 0.584023 0.066778
C125  C     C_R   0.707408 0.166667 0.454703 0.040507
C126  C     C_R   0.310735 0.110399 0.534568 0.049791
C127  C     C_R   0.189300 0.610380 0.465420 0.050546
C128  C     C_R   0.792666 0.666667 0.545287 0.039856
C129  C     C_R   0.718948 0.191406 0.527388 -0.025317
C130  C     C_R   0.304567 0.121700 0.460936 -0.054041
C131  C     C_R   0.195462 0.621701 0.539053 -0.053627
C132  C     C_R   0.781124 0.691397 0.472606 -0.025314
Cr1   Cr    Cr6+3 0.885860 0.491680 0.749630 1.069489
Cr2   Cr    Cr6+3 0.114140 0.491680 0.250370 1.082740
Cr3   Cr    Cr6+3 0.385860 0.991680 0.749630 1.083213
Cr4   Cr    Cr6+3 0.614140 0.991680 0.250370 1.068869
Cr5   Cr    Cr6+3 0.730490 0.332970 0.748720 1.013176
Cr6   Cr    Cr6+3 0.269510 0.332970 0.251280 1.006928
Cr7   Cr    Cr6+3 0.230490 0.832970 0.748720 1.009658
Cr8   Cr    Cr6+3 0.769510 0.832970 0.251280 1.010550
Cr9   Cr    Cr6+3 0.887570 0.179310 0.750150 1.017484
Cr10  Cr    Cr6+3 0.112430 0.179310 0.249850 1.026473
Cr11  Cr    Cr6+3 0.387570 0.679310 0.750150 1.021160
Cr12  Cr    Cr6+3 0.612430 0.679310 0.249850 1.022682
H1    H     H_    0.882275 0.078617 0.544575 0.159817
H2    H     H_    0.135989 0.029032 0.444568 0.196617
H3    H     H_    0.363994 0.529167 0.555438 0.196924
H4    H     H_    0.617728 0.578518 0.455450 0.159643
H5    H     H_    0.980842 0.758437 0.537460 0.088728
H6    H     H_    0.934704 0.731349 0.415299 0.106079
H7    H     H_    0.565351 0.231541 0.584735 0.107424
H8    H     H_    0.519282 0.258476 0.462548 0.088324
H9    H     H_    0.702155 0.264762 0.947067 0.134758
H10   H     H_    0.350330 0.114124 0.074199 0.115564
H11   H     H_    0.202120 0.764724 0.947059 0.135321
H12   H     H_    0.850331 0.614092 0.074203 0.116557
H13   H     H_    0.696137 0.235540 0.076170 0.166906
H14   H     H_    0.362239 0.090638 0.945395 0.224224
H15   H     H_    0.196105 0.735507 0.076161 0.165600
H16   H     H_    0.862239 0.590600 0.945398 0.224245
H17   H     H_    0.849704 0.826628 0.051601 0.164821
H18   H     H_    0.131941 0.918666 0.926336 0.164910
H19   H     H_    0.349726 0.326647 0.051602 0.165061
H20   H     H_    0.631946 0.418659 0.926332 0.164728
H21   H     H_    0.887782 0.981792 0.056400 0.131147
H22   H     H_    0.078072 0.058539 0.921894 0.143639
H23   H     H_    0.387789 0.481824 0.056402 0.130735
H24   H     H_    0.578075 0.558529 0.921892 0.144098
H25   H     H_    0.890710 0.988372 0.930078 0.155961
H26   H     H_    0.070645 0.055013 0.049563 0.156987
H27   H     H_    0.390719 0.488401 0.930080 0.156765
H28   H     H_    0.570646 0.554988 0.049562 0.156832
H29   H     H_    0.846129 0.838299 0.923987 0.173591
H30   H     H_    0.131240 0.923269 0.053153 0.158435
H31   H     H_    0.346154 0.338315 0.923989 0.172640
H32   H     H_    0.631248 0.423254 0.053148 0.158969
H33   H     H_    0.956376 0.155893 0.941823 0.134476
H34   H     H_    0.968051 0.163113 0.071359 0.116447
H35   H     H_    0.456399 0.655890 0.941814 0.134796
H36   H     H_    0.468071 0.663115 0.071348 0.116030
H37   H     H_    0.974295 0.598076 0.050214 0.130511
H38   H     H_    0.084692 0.605922 0.931127 0.151421
H39   H     H_    0.474320 0.098066 0.050207 0.130187
H40   H     H_    0.584706 0.105924 0.931108 0.152119
H41   H     H_    0.865545 0.045249 0.417578 0.132794
H42   H     H_    0.145541 0.020787 0.571104 0.137786
H43   H     H_    0.354453 0.520866 0.428912 0.137683
H44   H     H_    0.634465 0.545152 0.582440 0.133058
H45   H     H_    0.095638 0.714062 0.440872 0.136177
H46   H     H_    0.868197 0.806538 0.576331 0.121401
H47   H     H_    0.631990 0.306531 0.423644 0.120949
H48   H     H_    0.404488 0.214055 0.559102 0.136556
H49   H     H_    0.746607 0.380477 0.526508 0.166732
H50   H     H_    0.305764 0.315424 0.445634 0.190658
H51   H     H_    0.194462 0.815432 0.554330 0.190199
H52   H     H_    0.753603 0.880448 0.473507 0.167148
H53   H     H_    0.652896 0.346095 0.547543 0.093701
H54   H     H_    0.391244 0.238201 0.430851 0.080063
H55   H     H_    0.108897 0.738297 0.569116 0.081193
H56   H     H_    0.847287 0.846102 0.452438 0.093608
H57   H     H_    0.002975 0.913704 0.442430 0.115600
H58   H     H_    0.027622 0.929204 0.572198 0.104119
H59   H     H_    0.472321 0.429102 0.427927 0.103288
H60   H     H_    0.496989 0.413741 0.557689 0.116329
H61   H     H_    0.984483 0.095828 0.372066 0.137277
H62   H     H_    0.033187 0.124001 0.630015 0.139778
H63   H     H_    0.466850 0.623838 0.370063 0.138477
H64   H     H_    0.515570 0.595958 0.628013 0.138537
H65   H     H_    0.926900 0.529266 0.363741 0.146292
H66   H     H_    0.021141 0.586667 0.606263 0.144354
H67   H     H_    0.478963 0.086597 0.393758 0.142191
H68   H     H_    0.573128 0.029501 0.636308 0.149100
O1    O     O_R   0.957020 0.451640 0.669920 -0.524379
O2    O     O_R   0.042980 0.451640 0.330080 -0.523083
O3    O     O_R   0.457020 0.951640 0.669920 -0.520827
O4    O     O_R   0.542980 0.951640 0.330080 -0.526851
O5    O     O_R   0.736470 0.210100 0.823360 -0.504205
O6    O     O_R   0.263530 0.210100 0.176640 -0.503419
O7    O     O_R   0.236470 0.710100 0.823360 -0.508261
O8    O     O_R   0.763530 0.710100 0.176640 -0.499572
O9    O     O_R   0.831960 0.093290 0.830130 -0.513273
O10   O     O_R   0.168040 0.093290 0.169870 -0.512346
O11   O     O_R   0.331960 0.593290 0.830130 -0.517394
O12   O     O_R   0.668040 0.593290 0.169870 -0.507970
O13   O     O_R   0.945600 0.250580 0.824860 -0.526000
O14   O     O_R   0.054400 0.250580 0.175140 -0.510637
O15   O     O_R   0.445600 0.750580 0.824860 -0.527077
O16   O     O_R   0.554400 0.750580 0.175140 -0.509465
O17   O     O_3   0.834640 0.334650 0.749500 -0.286583
O18   O     O_3   0.165360 0.334650 0.250500 -0.264311
O19   O     O_3   0.334640 0.834650 0.749500 -0.265992
O20   O     O_3   0.665360 0.834650 0.250500 -0.284936
O21   O     O_R   0.821450 0.543440 0.674610 -0.489851
O22   O     O_R   0.178550 0.543440 0.325390 -0.484217
O23   O     O_R   0.321450 0.043440 0.674610 -0.481041
O24   O     O_R   0.678550 0.043440 0.325390 -0.492883
O25   O     O_R   0.715320 0.458650 0.668100 -0.550501
O26   O     O_R   0.284680 0.458650 0.331900 -0.552965
O27   O     O_R   0.215320 0.958650 0.668100 -0.550773
O28   O     O_R   0.784680 0.958650 0.331900 -0.552585
O29   O     O_R   0.737170 0.209590 0.674530 -0.492166
O30   O     O_R   0.262830 0.209590 0.325470 -0.516205
O31   O     O_R   0.237170 0.709590 0.674530 -0.514121
O32   O     O_R   0.762830 0.709590 0.325470 -0.494567
O33   O     O_R   0.832710 0.092740 0.669580 -0.468015
O34   O     O_R   0.167290 0.092740 0.330420 -0.500594
O35   O     O_R   0.332710 0.592740 0.669580 -0.498772
O36   O     O_R   0.667290 0.592740 0.330420 -0.470419
O37   O     O_R   0.946290 0.250060 0.676040 -0.530083
O38   O     O_R   0.053710 0.250060 0.323960 -0.514809
O39   O     O_R   0.446290 0.750060 0.676040 -0.514366
O40   O     O_R   0.553710 0.750060 0.323960 -0.530515
O41   O     O_R   0.956270 0.452200 0.830470 -0.433136
O42   O     O_R   0.043730 0.452200 0.169530 -0.474381
O43   O     O_R   0.456270 0.952200 0.830470 -0.435682
O44   O     O_R   0.543730 0.952200 0.169530 -0.472011
O45   O     O_R   0.820760 0.543950 0.823440 -0.480582
O46   O     O_R   0.179240 0.543950 0.176560 -0.443514
O47   O     O_R   0.320760 0.043950 0.823440 -0.482907
O48   O     O_R   0.679240 0.043950 0.176560 -0.441254
O49   O     O_R   0.714570 0.459210 0.828640 -0.528416
O50   O     O_R   0.285430 0.459210 0.171360 -0.531028
O51   O     O_R   0.214570 0.959210 0.828640 -0.528592
O52   O     O_R   0.785430 0.959210 0.171360 -0.530665
F1    F     F_    0.080502 0.630615 0.065235 -0.660515
F2    F     F_    0.977322 0.618524 0.917288 -0.669717
F3    F     F_    0.580527 0.130616 0.065217 -0.660628
F4    F     F_    0.477333 0.118513 0.917283 -0.669513
F5    F     F_    0.734071 0.354870 0.396587 -0.620669
F6    F     F_    0.313127 0.311744 0.579307 -0.649851
F7    F     F_    0.187091 0.811712 0.420667 -0.650985
F8    F     F_    0.766162 0.854867 0.603422 -0.619124

loop_
_geom_bond_atom_site_label_1
_geom_bond_atom_site_label_2
_ccdc_geom_bond_type
C58   C62   A    
C71   C75   A    
C55   C56   A    
C82   H26   S    
C19   H51   S    
C101  C102  A    
Cr10  O38   S    
C93   C97   A    
C18   H50   S    
C4    O24   A    
C41   C42   A    
C14   C18   S    
C96   C119  S    
C17   H49   S    
C35   C36   A    
Cr10  O10   S    
C48   O32   A    
C43   C51   A    
C47   O35   A    
C97   C98   A    
C29   C38   A    
C119  O15   A    
C54   H6    S    
C91   O39   A    
C53   C54   A    
C118  O14   A    
C26   C89   S    
C67   C83   S    
C90   O38   A    
C117  O13   A    
C25   C90   S    
C50   C54   A    
Cr11  O39   S    
Cr9   O17   S    
C11   H43   S    
C64   C68   A    
C115  O11   A    
C127  C131  A    
C20   C132  S    
C110  O46   A    
C9    H41   S    
Cr11  O11   S    
C6    H2    S    
C94   C117  S    
C95   C99   A    
Cr10  O18   S    
C57   C112  S    
C94   C98   A    
C105  F1    S    
C12   H44   S    
C73   H13   S    
C103  C104  A    
Cr8   O28   S    
C59   C110  S    
C29   H61   S    
C31   C40   A    
C3    O27   A    
C51   C55   A    
C32   C39   A    
C57   C73   A    
C108  F4    S    
C24   C132  A    
C106  H38   S    
C91   O3    A    
C60   C109  S    
C118  O42   A    
C3    O23   A    
C15   C19   S    
C117  O41   A    
C51   H68   S    
Cr8   O8    S    
C20   H56   S    
C82   H30   S    
C50   H65   S    
C61   C77   S    
Cr10  O34   S    
C83   H27   S    
C49   H66   S    
C70   C74   A    
C52   H67   S    
C9    C121  A    
C107  C108  S    
C14   C126  S    
Cr2   O22   S    
C17   H53   S    
C81   H25   S    
C8    C12   A    
C32   H64   S    
Cr7   O31   S    
C120  O16   A    
C87   C115  S    
C47   O31   A    
Cr6   O30   S    
C3    C122  S    
C72   C76   A    
C124  C128  A    
C97   C105  S    
C122  C126  A    
C44   C52   A    
Cr1   O45   S    
C15   H45   S    
C72   H12   S    
C29   C33   A    
C7    C23   A    
C15   C127  S    
C22   C130  A    
C53   H5    S    
C64   C80   S    
C79   H23   S    
C115  O7    A    
C8    H4    S    
C106  F2    S    
C4    C121  S    
C114  O6    A    
C15   F7    S    
C27   C44   A    
C41   C49   A    
C72   C88   A    
C2    O22   A    
Cr10  O14   S    
C46   O34   A    
C21   C45   S    
C92   O40   A    
C19   C131  S    
C62   C78   S    
Cr3   O3    S    
C100  C108  S    
C78   H22   S    
C16   F8    S    
Cr7   O27   S    
C80   C84   S    
C68   C84   S    
Cr6   O50   S    
C80   H24   S    
Cr6   O18   S    
C62   C66   A    
C5    H1    S    
C88   C116  S    
C94   C101  A    
Cr5   O17   S    
C31   H63   S    
Cr6   O26   S    
C45   O33   A    
C39   C40   A    
C30   C34   A    
C2    O26   A    
C63   C79   S    
C36   H60   S    
Cr4   O44   S    
C28   C39   A    
C1    O25   A    
C2    C123  S    
C45   O29   A    
C17   C129  S    
C60   C76   A    
C7    H3    S    
C80   H20   S    
C58   C111  S    
C30   C37   A    
C107  H39   S    
C67   C87   A    
Cr8   O32   S    
C81   H29   S    
C116  O12   A    
C7    C11   A    
C43   C44   A    
C120  O44   A    
C63   C67   A    
C121  C125  A    
C37   C38   A    
C69   C85   A    
C13   F5    S    
C25   C38   A    
C66   C82   S    
Cr9   O13   S    
Cr4   O20   S    
C78   C82   S    
C24   C48   S    
Cr9   O33   S    
C99   C100  A    
C12   C124  A    
C77   C81   S    
C27   C40   A    
C16   C20   S    
C71   H11   S    
C14   F6    S    
C33   C34   A    
C4    O28   A    
Cr2   O42   S    
C23   C131  A    
C27   C92   S    
Cr1   O21   S    
Cr4   O48   S    
C114  O10   A    
C74   H14   S    
C69   C73   A    
C16   C128  S    
C21   C129  A    
C89   O37   A    
C112  O52   A    
C71   C87   A    
C128  C132  A    
C22   C46   S    
C42   C50   A    
Cr8   O20   S    
Cr12  O36   S    
C125  C129  A    
C107  F3    S    
C102  H34   S    
Cr12  O12   S    
C31   C35   A    
C59   C63   A    
C18   C130  S    
C116  O8    A    
C93   C118  S    
C46   O30   A    
Cr1   O41   S    
C70   C86   A    
C59   C75   A    
C123  C127  A    
C90   O2    A    
Cr9   O37   S    
C95   C104  A    
C58   C74   A    
C78   H18   S    
C89   O1    A    
Cr7   O51   S    
C75   H15   S    
C55   H7    S    
C16   H46   S    
C1    O21   A    
C86   C114  S    
C70   H10   S    
C93   C102  A    
C19   H55   S    
Cr12  O20   S    
C11   C123  A    
Cr3   O23   S    
Cr11  O15   S    
C84   H28   S    
C13   H47   S    
C25   C42   A    
C66   C86   A    
Cr7   O19   S    
Cr4   O24   S    
C32   C36   A    
C26   C37   A    
C57   C61   A    
C108  H40   S    
C95   C120  S    
C99   C107  S    
C105  C106  S    
C28   C43   A    
Cr3   O47   S    
C98   C106  S    
C109  O45   A    
C13   C17   S    
C60   C64   A    
C105  H37   S    
C23   C47   S    
C85   C113  S    
C1    C124  S    
Cr1   O1    S    
C113  O5    A    
C65   C85   A    
C84   H32   S    
C112  O48   A    
C79   C83   S    
C30   H62   S    
C35   H59   S    
C104  H36   S    
C76   H16   S    
Cr5   O29   S    
C34   H58   S    
C68   C88   A    
C96   C100  A    
C33   H57   S    
Cr2   O46   S    
C10   H42   S    
C77   H17   S    
Cr11  O35   S    
C83   H31   S    
C92   O4    A    
C28   C91   S    
C103  H35   S    
C14   H48   S    
Cr2   O18   S    
C61   C65   A    
Cr5   O25   S    
Cr11  O19   S    
C111  O47   A    
Cr1   O17   S    
C110  O50   A    
C49   C53   A    
C69   H9    S    
C6    C10   A    
C113  O9    A    
Cr7   O7    S    
C10   C122  A    
C79   H19   S    
C5    C21   A    
C8    C24   A    
Cr6   O6    S    
Cr2   O2    S    
C48   O36   A    
Cr8   O52   S    
C96   C103  A    
Cr5   O5    S    
C77   H21   S    
Cr5   O49   S    
C126  C130  A    
C65   C81   S    
Cr12  O16   S    
Cr3   O19   S    
C5    C9    A    
Cr12  O40   S    
Cr3   O43   S    
C56   H8    S    
C111  O51   A    
C109  O49   A    
C13   C125  S    
C20   H52   S    
C101  H33   S    
C18   H54   S    
C52   C56   A    
C26   C41   A    
Cr9   O9    S    
Cr4   O4    S    
C119  O43   A    
C6    C22   A    
