data_mof_unit_3297.cif
_audit_creation_date              2012-12-11T17:05:37-0500
_audit_creation_method            fapswitch 2.2
_symmetry_space_group_name_H-M    P1
_symmetry_Int_Tables_number       1
_space_group_crystal_system       triclinic
_cell_length_a                    6.958529
_cell_length_b                    14.483485
_cell_length_c                    16.032746
_cell_angle_alpha                 90.257648
_cell_angle_beta                  89.705989
_cell_angle_gamma                 89.98167
_cell_volume                      1615.802565

loop_
_atom_site_label
_atom_site_type_symbol
_atom_type_description
_atom_site_fract_x
_atom_site_fract_y
_atom_site_fract_z
_atom_type_partial_charge
O1    O     O_R   0.494380 0.415640 0.412830 -0.534266
O2    O     O_R   0.823960 0.405540 0.586560 -0.520288
O3    O     O_R   0.994270 0.584360 0.587170 -0.543140
C1    C     C_R   0.655039 0.383988 0.615584 0.691511
O4    O     O_R   0.824090 0.404620 0.413450 -0.546120
O5    O     O_R   0.994400 0.583430 0.412820 -0.539485
C2    C     C_R   0.655471 0.381883 0.384987 0.700200
O6    O     O_R   0.494250 0.416570 0.587180 -0.540783
O7    O     O_3   0.660800 0.558670 0.500000 -0.375354
V1    V     V_3+5 0.935650 0.489120 0.500000 1.415936
O8    O     O_R   0.324110 0.594460 0.413440 -0.539381
C3    C     C_R   0.155522 0.616481 0.384586 0.697480
O9    O     O_R   0.323980 0.595380 0.586550 -0.546271
C4    C     C_R   0.155020 0.616903 0.616085 0.644810
V2    V     V_3+5 0.435660 0.510880 0.500000 1.392712
O10   O     O_3   0.160640 0.441330 0.500000 -0.353593
C5    C     C_3   0.020137 0.649075 0.760537 -0.323351
H1    H     H_    0.873900 0.630634 0.738156 0.135830
H2    H     H_    0.086240 0.584981 0.785517 0.123841
C6    C     C_3   0.001987 0.722046 0.831478 -0.313566
H3    H     H_    0.049014 0.692000 0.891494 0.117617
H4    H     H_    0.848005 0.741241 0.839389 0.137737
H5    H     H_    0.905144 0.765399 0.633658 0.136212
H6    H     H_    0.892924 0.873950 0.738153 0.131761
C7    C     C_3   0.052960 0.778515 0.657093 -0.322428
C8    C     C_3   0.347052 0.708804 0.722178 -0.315709
C9    C     C_3   0.144163 0.686642 0.687175 0.123279
H7    H     H_    0.439883 0.737976 0.672053 0.137905
H8    H     H_    0.417107 0.644351 0.744306 0.128888
C10   C     C_3   0.122671 0.809371 0.811197 0.122139
C11   C     C_3   0.044157 0.850819 0.729033 -0.324234
C12   C     C_3   0.334192 0.778697 0.794990 -0.312673
H9    H     H_    0.394197 0.747124 0.852337 0.131855
H10   H     H_    0.424830 0.839740 0.779780 0.136002
H11   H     H_    0.138387 0.806907 0.604255 0.118221
H12   H     H_    0.129900 0.912705 0.711561 0.123288
C13   C     C_R   0.273788 0.745977 0.184414 0.000343
C14   C     C_R   0.117934 0.807268 0.176949 -0.134711
C15   C     C_R   0.966484 0.798493 0.235013 -0.094830
H13   H     H_    0.843876 0.844071 0.231768 0.119078
C16   C     C_R   0.978074 0.735884 0.301744 -0.186883
H14   H     H_    0.861980 0.733497 0.346770 0.120508
C17   C     C_R   0.143792 0.681948 0.313856 -0.094238
C18   C     C_R   0.288175 0.687187 0.252850 0.016417
C19   C     C_3   0.497110 0.705920 0.262846 -0.418557
C20   C     C_3   0.485344 0.767602 0.186244 0.296728
H15   H     H_    0.584729 0.642426 0.253455 0.186272
H16   H     H_    0.527489 0.744791 0.321241 0.125197
H17   H     H_    0.514822 0.841467 0.200218 0.067026
C21   C     C_R   0.491339 0.252727 0.688739 -0.032193
C22   C     C_R   0.646461 0.313679 0.682106 -0.128368
C23   C     C_R   0.797556 0.303649 0.739387 -0.090683
H18   H     H_    0.919011 0.350033 0.737111 0.124493
C24   C     C_R   0.787260 0.237843 0.803652 -0.186134
H19   H     H_    0.902023 0.234719 0.848757 0.124883
C25   C     C_R   0.624160 0.181211 0.813162 -0.086511
C26   C     C_R   0.479814 0.188214 0.753015 0.013194
C27   C     C_3   0.269653 0.203177 0.765600 -0.439518
C28   C     C_3   0.280878 0.274831 0.696729 0.310896
H20   H     H_    0.236870 0.233524 0.827857 0.139176
H21   H     H_    0.184488 0.140834 0.749069 0.178650
H22   H     H_    0.257255 0.346329 0.720216 0.065855
C29   C     C_R   0.491651 0.315067 0.259292 0.013227
C30   C     C_R   0.647060 0.315608 0.314338 -0.098658
C31   C     C_R   0.797834 0.253355 0.297792 -0.204233
H23   H     H_    0.921432 0.251446 0.337973 0.126955
C32   C     C_R   0.785798 0.189189 0.231790 -0.104725
H24   H     H_    0.900214 0.139300 0.223926 0.128382
C33   C     C_R   0.623396 0.185842 0.179568 -0.147974
C34   C     C_R   0.481323 0.253301 0.192044 0.020698
C35   C     C_3   0.269494 0.241418 0.205287 0.316222
C36   C     C_3   0.282664 0.308503 0.279098 -0.471112
H25   H     H_    0.235494 0.169957 0.225612 0.065997
H26   H     H_    0.257929 0.274465 0.340213 0.145526
H27   H     H_    0.209501 0.376020 0.273200 0.174513
O11   O     O_R   0.771490 0.080820 0.910070 -0.540438
O12   O     O_R   0.441590 0.092730 0.083780 -0.533671
O13   O     O_R   0.271350 0.913900 0.084390 -0.549552
C37   C     C_R   0.610268 0.115264 0.112476 0.698622
O14   O     O_R   0.441780 0.091820 0.910670 -0.537627
O15   O     O_R   0.271540 0.912980 0.910040 -0.547188
C38   C     C_R   0.611079 0.114233 0.882350 0.697578
O16   O     O_R   0.771300 0.081740 0.084420 -0.531246
O17   O     O_3   0.604960 0.938700 0.997240 -0.375778
V3    V     V_3+5 0.330090 0.008230 0.997220 1.413355
O18   O     O_R   0.941820 0.901930 0.910640 -0.545381
C39   C     C_R   0.111127 0.879556 0.881844 0.641417
O19   O     O_R   0.941630 0.902840 0.083750 -0.527384
C40   C     C_R   0.110402 0.879329 0.111408 0.677602
V4    V     V_3+5 0.830090 0.986410 0.997190 1.418281
O20   O     O_3   0.105080 0.055990 0.997200 -0.354048
O21   O     O_3   0.608069 0.732159 0.122084 -0.563481
C41   C     C_3   0.517021 0.707909 0.046309 0.166647
H28   H     H_    0.611437 0.731482 0.994523 0.122056
H29   H     H_    0.376238 0.742062 0.036041 0.094713
C42   C     C_3   0.500296 0.602621 0.040867 -0.338445
H30   H     H_    0.645772 0.571744 0.045075 0.205764
H31   H     H_    0.413175 0.576813 0.093987 0.197620
C43   C     C_3   0.409969 0.570822 0.959302 -0.885086
H32   H     H_    0.261498 0.597565 0.954655 0.229613
H33   H     H_    0.404341 0.494215 0.957646 0.230816
H34   H     H_    0.496537 0.594977 0.905270 0.228494
O22   O     O_3   0.156348 0.253959 0.628819 -0.535451
C44   C     C_3   0.239935 0.198298 0.565782 0.169568
H35   H     H_    0.293933 0.132130 0.591824 0.100690
H36   H     H_    0.358724 0.236052 0.534106 0.114108
C45   C     C_3   0.087634 0.176133 0.501183 -0.748650
H37   H     H_    0.026067 0.241297 0.476875 0.231507
H38   H     H_    0.152345 0.136332 0.448750 0.156881
H39   H     H_    0.970699 0.134704 0.529944 0.214755
O23   O     O_3   0.153774 0.267053 0.135689 -0.554842
C46   C     C_3   0.167510 0.360685 0.110474 0.130062
H40   H     H_    0.183924 0.361785 0.041535 0.115450
H41   H     H_    0.295472 0.397597 0.134993 0.108292
C47   C     C_3   0.980828 0.411637 0.133302 -0.323228
H42   H     H_    0.864221 0.389668 0.090434 0.189768
H43   H     H_    0.935315 0.393734 0.197523 0.213094
C48   C     C_3   0.005076 0.516088 0.129019 -0.847196
H44   H     H_    0.124138 0.538209 0.170158 0.231625
H45   H     H_    0.871857 0.550475 0.151439 0.245593
H46   H     H_    0.035283 0.537848 0.063983 0.237231

loop_
_geom_bond_atom_site_label_1
_geom_bond_atom_site_label_2
_ccdc_geom_bond_type
C7    C11   S    
C10   C12   S    
C8    C12   S    
C41   H28   S    
C45   H38   S    
C16   H14   S    
O23   C46   S    
C1    O6    A    
C44   H36   S    
V3    O20   S    
C15   C16   A    
C6    C10   S    
C19   C20   S    
C23   H18   S    
C14   C40   S    
C8    C9    S    
O14   V3    S    
C21   C28   S    
C3    C17   S    
O5    C3    A    
C14   C15   A    
C20   O21   S    
C27   H20   S    
C47   H42   S    
C42   C43   S    
C5    C6    S    
C25   C26   A    
C48   H44   S    
C46   H40   S    
O8    V2    S    
C31   C32   A    
C42   H31   S    
C45   H37   S    
C34   C35   S    
O1    V2    S    
C4    C9    S    
O7    V1    S    
C27   H21   S    
C19   H15   S    
O12   V3    S    
C41   H29   S    
O9    C4    A    
C16   C17   A    
O17   V4    S    
C10   C39   S    
C36   H27   S    
C46   H41   S    
C44   H35   S    
C23   C24   A    
C21   C22   A    
O12   C37   A    
O13   C40   A    
C24   C25   A    
C29   C36   S    
C1    C22   S    
C22   C23   A    
C5    C9    S    
O17   V3    S    
C36   H26   S    
O18   V4    S    
O11   C38   A    
C15   H13   S    
O4    C2    A    
O18   C39   A    
O6    V2    S    
C47   H43   S    
C27   C28   S    
C32   H24   S    
C35   O23   S    
C32   C33   A    
C48   H46   S    
C12   H10   S    
O2    C1    A    
C17   C18   A    
C13   C14   A    
C43   H32   S    
C20   H17   S    
C29   C34   A    
C47   C48   S    
C42   H30   S    
C5    H1    S    
C6    H3    S    
C44   C45   S    
O15   C39   A    
O3    C4    A    
C7    H11   S    
O13   V3    S    
O14   C38   A    
C43   H33   S    
O19   V4    S    
C41   C42   S    
O9    V2    S    
C45   H39   S    
C33   C37   S    
V4    O20   S    
O2    V1    S    
C18   C19   S    
C35   H25   S    
C19   H16   S    
O16   V4    S    
C24   H19   S    
C28   H22   S    
O1    C2    A    
C21   C26   A    
C6    H4    S    
O5    V1    S    
O8    C3    A    
C25   C38   S    
C7    C9    S    
C8    H7    S    
C28   O22   S    
C30   C31   A    
C13   C18   A    
O7    V2    S    
H6    C11   S    
C35   C36   S    
O3    V1    S    
V1    O10   S    
C12   H9    S    
C37   O16   A    
C26   C27   S    
C10   C11   S    
O21   C41   S    
C5    H2    S    
H5    C7    S    
C33   C34   A    
C48   H45   S    
C2    C30   S    
C29   C30   A    
O4    V1    S    
C43   H34   S    
O19   C40   A    
C8    H8    S    
C31   H23   S    
O22   C44   S    
C11   H12   S    
C13   C20   S    
C46   C47   S    
O15   V3    S    
V2    O10   S    
O11   V4    S    
