data_mof_unit_1575.cif
_audit_creation_date              2012-12-11T14:49:45-0500
_audit_creation_method            fapswitch 2.2
_symmetry_space_group_name_H-M    P1
_symmetry_Int_Tables_number       1
_space_group_crystal_system       triclinic
_cell_length_a                    10.907225
_cell_length_b                    10.888299
_cell_length_c                    18.904549
_cell_angle_alpha                 89.881725
_cell_angle_beta                  90.060033
_cell_angle_gamma                 119.947794
_cell_volume                      1945.35364654

loop_
_atom_site_label
_atom_site_type_symbol
_atom_type_description
_atom_site_fract_x
_atom_site_fract_y
_atom_site_fract_z
_atom_type_partial_charge
C1    C     C_R   0.529457 0.466204 0.645296 0.539441
C2    C     C_R   0.469982 0.528215 0.353085 0.535625
C3    C     C_R   0.470680 0.937186 0.145394 0.569885
C4    C     C_R   0.059846 0.530080 0.353643 0.543430
C5    C     C_R   0.376248 0.989873 0.537803 -0.047197
C6    C     C_R   0.631730 0.618772 0.963311 -0.004319
C7    C     C_R   0.020176 0.392576 0.540280 -0.045450
C8    C     C_R   0.378875 0.006886 0.962376 -0.034678
C9    C     C_R   0.615893 0.623258 0.537460 -0.013923
C10   C     C_R   0.988855 0.369024 0.963249 -0.013566
C11   C     C_R   0.990265 0.375841 0.038081 -0.050828
C12   C     C_R   0.941553 0.471267 0.853133 0.556985
C13   C     C_R   0.620309 0.628348 0.462491 -0.002302
C14   C     C_R   0.383744 0.007479 0.037305 -0.011017
C15   C     C_R   0.017901 0.383354 0.465719 -0.038977
C16   C     C_R   0.624462 0.613523 0.038140 -0.044040
C17   C     C_R   0.367913 0.987505 0.463019 -0.008291
C18   C     C_R   0.487011 0.006520 0.422880 0.013223
C19   C     C_R   0.494364 0.517821 0.070793 -0.011236
C20   C     C_R   0.002303 0.486037 0.425072 0.011889
C21   C     C_R   0.484042 0.980609 0.071271 0.008955
C22   C     C_R   0.514879 0.510832 0.423712 -0.042796
C23   C     C_R   0.534891 0.064990 0.644840 0.516614
C24   C     C_R   0.022937 0.505548 0.070786 -0.014442
C25   C     C_R   0.004291 0.487637 0.923525 0.018125
C26   C     C_R   0.516841 0.495228 0.570968 -0.022582
C27   C     C_R   0.485664 0.996677 0.923866 -0.021533
C28   C     C_R   0.983690 0.486915 0.572377 0.025145
C29   C     C_R   0.512979 0.516738 0.923573 0.003837
C30   C     C_R   0.507499 0.027293 0.570039 -0.017170
C31   C     C_R   0.616759 0.054598 0.455832 -0.132110
C32   C     C_R   0.375966 0.429511 0.029437 -0.104670
C33   C     C_R   0.962870 0.574693 0.458606 -0.172391
C34   C     C_R   0.528897 0.470121 0.853189 0.565859
C35   C     C_R   0.579298 0.958874 0.030934 -0.162243
C36   C     C_R   0.424536 0.384531 0.458280 -0.129482
C37   C     C_R   0.051422 0.623947 0.029471 -0.146089
C38   C     C_R   0.044709 0.615718 0.957264 -0.168367
C39   C     C_R   0.423724 0.377485 0.530420 -0.127503
C40   C     C_R   0.577868 0.963703 0.958773 -0.153473
C41   C     C_R   0.954917 0.576038 0.530666 -0.161600
C42   C     C_R   0.384722 0.430691 0.957267 -0.125802
C43   C     C_R   0.626829 0.062856 0.528147 -0.124891
C44   C     C_2   0.249912 0.950873 0.582888 0.224996
C45   C     C_R   0.938126 0.471489 0.645861 0.581541
C46   C     C_2   0.763096 0.727923 0.927897 0.302962
C47   C     C_2   0.068653 0.309735 0.583543 0.242027
C48   C     C_2   0.262846 0.013210 0.923746 0.232599
C49   C     C_2   0.708923 0.749219 0.581590 0.290579
C50   C     C_2   0.968604 0.238252 0.927808 0.317146
C51   C     C_2   0.954542 0.249339 0.082810 0.221085
C52   C     C_2   0.733333 0.752528 0.424042 0.308195
C53   C     C_2   0.285641 0.035990 0.079520 0.299776
C54   C     C_2   0.013092 0.255501 0.434458 0.205239
C55   C     C_2   0.750825 0.702989 0.082891 0.213437
C56   C     C_R   0.530028 0.058264 0.853096 0.528916
C57   C     C_2   0.235504 0.963569 0.428080 0.301181
C58   C     C_R   0.465799 0.529617 0.145199 0.534308
C59   C     C_R   0.471101 0.941658 0.353037 0.565146
C60   C     C_R   0.063624 0.534127 0.145194 0.514423
Cr1   Cr    Cr6+3 0.776430 0.541680 0.750000 1.082917
Cr2   Cr    Cr6+3 0.765250 0.223570 0.750000 1.119065
Cr3   Cr    Cr6+3 0.458320 0.234750 0.750000 1.094534
Cr4   Cr    Cr6+3 0.541680 0.776430 0.250000 1.063423
Cr5   Cr    Cr6+3 0.223570 0.765250 0.250000 1.096181
Cr6   Cr    Cr6+3 0.234750 0.458320 0.250000 1.136206
H1    H     H_    0.709517 0.077787 0.425344 0.166213
H2    H     H_    0.922439 0.646227 0.553517 0.204086
H3    H     H_    0.291886 0.356848 0.927895 0.229576
H4    H     H_    0.730458 0.099668 0.551113 0.154745
H5    H     H_    0.234679 0.890665 0.631131 0.129049
H6    H     H_    0.866076 0.752929 0.947924 0.145074
H7    H     H_    0.057072 0.210694 0.564441 0.149805
H8    H     H_    0.223497 0.955392 0.874529 0.126119
H9    H     H_    0.666161 0.770490 0.628833 0.117748
H10   H     H_    0.894246 0.134618 0.948684 0.159378
H11   H     H_    0.894670 0.232292 0.131229 0.128557
H12   H     H_    0.273568 0.359588 0.052688 0.213581
H13   H     H_    0.781460 0.735558 0.377626 0.100706
H14   H     H_    0.175020 0.988651 0.065024 0.178835
H15   H     H_    0.937550 0.152335 0.455299 0.140477
H16   H     H_    0.766071 0.660126 0.131871 0.125158
H17   H     H_    0.133140 0.886573 0.449086 0.151674
H18   H     H_    0.943195 0.648436 0.429074 0.134589
H19   H     H_    0.654332 0.933714 0.054874 0.205127
H20   H     H_    0.347383 0.292057 0.429695 0.225650
H21   H     H_    0.082076 0.726003 0.052781 0.148367
H22   H     H_    0.062674 0.708714 0.927900 0.127139
H23   H     H_    0.350393 0.276502 0.554226 0.199474
H24   H     H_    0.655893 0.949563 0.930318 0.192575
O1    O     O_R   0.916700 0.566820 0.669930 -0.522839
O2    O     O_R   0.566820 0.916700 0.330070 -0.498024
O3    O     O_R   0.083300 0.650120 0.169930 -0.523378
O4    O     O_R   0.349880 0.433180 0.330070 -0.438042
O5    O     O_R   0.649840 0.534790 0.674920 -0.512106
O6    O     O_R   0.884950 0.350160 0.825080 -0.459513
O7    O     O_R   0.465210 0.115050 0.674920 -0.508154
O8    O     O_R   0.649840 0.534790 0.825080 -0.472164
O9    O     O_R   0.884950 0.350160 0.674920 -0.463966
O10   O     O_R   0.465210 0.115050 0.825080 -0.510703
O11   O     O_R   0.534790 0.649840 0.174920 -0.514681
O12   O     O_R   0.650120 0.083300 0.830070 -0.498975
O13   O     O_R   0.350160 0.884950 0.325080 -0.462529
O14   O     O_R   0.115050 0.465210 0.174920 -0.505696
O15   O     O_R   0.534790 0.649840 0.325080 -0.518077
O16   O     O_R   0.350160 0.884950 0.174920 -0.471643
O17   O     O_R   0.115050 0.465210 0.325080 -0.444272
O18   O     O_3   0.666667 0.333333 0.750000 -0.284027
O19   O     O_3   0.333333 0.666667 0.250000 -0.281124
O20   O     O_2   0.165797 0.990261 0.568643 -0.491718
O21   O     O_2   0.756977 0.793731 0.876926 -0.492755
O22   O     O_2   0.128825 0.355156 0.640010 -0.466082
O23   O     O_R   0.433180 0.349880 0.669930 -0.473714
O24   O     O_2   0.213050 0.085007 0.944670 -0.488171
O25   O     O_2   0.834158 0.825715 0.568053 -0.453011
O26   O     O_2   0.038327 0.245589 0.875824 -0.457103
O27   O     O_2   0.995963 0.167038 0.068081 -0.472111
O28   O     O_2   0.768453 0.873546 0.441164 -0.486364
O29   O     O_2   0.328829 0.115083 0.130543 -0.468979
O30   O     O_2   0.098929 0.262009 0.391431 -0.432464
O31   O     O_2   0.835314 0.825733 0.067434 -0.500507
O32   O     O_2   0.240058 0.033519 0.376540 -0.467555
O33   O     O_R   0.916700 0.566820 0.830070 -0.528732
O34   O     O_R   0.650120 0.083300 0.669930 -0.513097
O35   O     O_R   0.433180 0.349880 0.830070 -0.479795
O36   O     O_R   0.566820 0.916700 0.169930 -0.520219
O37   O     O_R   0.083300 0.650120 0.330070 -0.530319
O38   O     O_R   0.349880 0.433180 0.169930 -0.473017

loop_
_geom_bond_atom_site_label_1
_geom_bond_atom_site_label_2
_ccdc_geom_bond_type
C55   O31   D    
C58   O38   A    
C54   O30   D    
C29   C42   A    
C11   C24   A    
Cr1   O8    S    
Cr6   O17   S    
C51   H11   S    
C3    O36   A    
Cr4   O15   S    
C31   H1    S    
Cr3   O10   S    
C31   C43   A    
Cr5   O37   S    
C14   C21   A    
Cr2   O6    S    
C34   O35   A    
C26   C39   A    
C5    C17   A    
C47   O22   D    
C28   C41   A    
C44   H5    S    
Cr1   O18   S    
C9    C13   A    
C34   O8    A    
C57   O32   D    
C2    C22   S    
C49   H9    S    
C52   H13   S    
C46   H6    S    
C24   C60   S    
Cr6   O4    S    
C60   O3    A    
Cr5   O3    S    
C3    O16   A    
C46   O21   D    
Cr4   O11   S    
C1    O23   A    
C19   C32   A    
Cr2   O34   S    
C48   H8    S    
C9    C26   A    
C24   C37   A    
C41   H2    S    
C19   C58   S    
C32   C42   A    
C15   C20   A    
C4    O17   A    
C28   C45   S    
C23   C30   S    
Cr6   O14   S    
C2    O4    A    
C53   H14   S    
C9    C49   S    
C47   H7    S    
C15   C54   S    
C45   O9    A    
C27   C56   S    
C36   H20   S    
C32   H12   S    
C29   C34   S    
C42   H3    S    
C7    C28   A    
C38   H22   S    
C56   O12   A    
C7    C47   S    
C8    C48   S    
C37   C38   A    
C50   H10   S    
C25   C38   A    
C13   C52   S    
C27   C40   A    
C1    O5    A    
C6    C29   A    
C57   H17   S    
C17   C18   A    
C58   O11   A    
C55   H16   S    
Cr5   O19   S    
Cr3   O35   S    
C20   C33   A    
C10   C25   A    
C49   O25   D    
C5    C44   S    
C43   H4    S    
Cr4   O36   S    
C1    C26   S    
C30   C43   A    
C3    C21   S    
C56   O10   A    
C10   C50   S    
C52   O28   D    
Cr5   O16   S    
C48   O24   D    
C5    C30   A    
C53   O29   D    
C8    C14   A    
C6    C46   S    
C4    O37   A    
C23   O7    A    
C37   H21   S    
C36   C39   A    
Cr1   O5    S    
C23   O34   A    
C21   C35   A    
C22   C36   A    
C2    O15   A    
C12   C25   S    
Cr1   O33   S    
C33   C41   A    
C35   C40   A    
C16   C55   S    
C59   O13   A    
Cr3   O7    S    
C35   H19   S    
Cr4   O19   S    
C12   O33   A    
C16   C19   A    
C7    C15   A    
C51   O27   D    
Cr6   O38   S    
C13   C22   A    
Cr3   O23   S    
C50   O26   D    
C59   O2    A    
Cr6   O19   S    
C45   O1    A    
C33   H18   S    
C11   C51   S    
C10   C11   A    
C6    C16   A    
Cr2   O9    S    
C4    C20   S    
C18   C59   S    
C14   C53   S    
Cr2   O18   S    
C8    C27   A    
Cr5   O13   S    
C12   O6    A    
C18   C31   A    
Cr4   O2    S    
C40   H24   S    
Cr3   O18   S    
C60   O14   A    
C39   H23   S    
C54   H15   S    
Cr1   O1    S    
C17   C57   S    
Cr2   O12   S    
C44   O20   D    
