data_mof_unit_865.cif
_audit_creation_date              2012-12-10T20:26:26-0500
_audit_creation_method            fapswitch 2.2
_symmetry_space_group_name_H-M    P1
_symmetry_Int_Tables_number       1
_space_group_crystal_system       triclinic
_cell_length_a                    10.641032
_cell_length_b                    10.672292
_cell_length_c                    9.870422
_cell_angle_alpha                 90.040511
_cell_angle_beta                  91.012572
_cell_angle_gamma                 90.268266
_cell_volume                      1120.73890843

loop_
_atom_site_label
_atom_site_type_symbol
_atom_type_description
_atom_site_fract_x
_atom_site_fract_y
_atom_site_fract_z
_atom_type_partial_charge
C1    C     C_R   0.503573 0.259989 0.500046 0.855383
C2    C     C_R   0.523378 0.128735 0.500146 -0.121558
C3    C     C_R   0.537823 0.064758 0.377351 -0.201766
C4    C     C_R   0.538204 0.935437 0.377342 -0.229547
C5    C     C_R   0.523084 0.871521 0.500140 -0.071207
C6    C     C_R   0.531862 0.936345 0.622423 0.019873
C7    C     C_3   0.453161 0.927758 0.746378 -0.482349
C8    C     C_3   0.453232 0.070257 0.747183 0.330154
C9    C     C_R   0.409877 0.435322 0.069704 0.148550
C10   C     C_R   0.595199 0.554193 0.073739 -0.132521
C11   C     C_R   0.595382 0.553881 0.929854 -0.127797
C12   C     C_R   0.262174 0.501774 0.498485 0.974500
C13   C     C_R   0.408917 0.436720 0.927161 0.211111
C14   C     C_3   0.270662 0.461205 0.920809 0.259020
C15   C     C_3   0.272158 0.457615 0.074856 -0.565028
C16   C     C_R   0.503372 0.740063 0.500027 0.885409
C17   C     C_R   0.737553 0.508132 0.501399 0.955929
C18   C     C_2   0.931153 0.563288 0.394678 -0.311984
C19   C     C_2   0.867941 0.538390 0.506899 -0.404032
C20   C     C_2   0.067777 0.577924 0.403318 0.515910
C21   C     C_2   0.128965 0.504354 0.492850 -0.413686
C22   C     C_R   0.533204 0.064312 0.622399 -0.030137
H1    H     H_    0.884411 0.566521 0.296042 0.164675
H2    H     H_    0.670484 0.600752 0.129294 0.134029
H3    H     H_    0.670881 0.599986 0.877119 0.135295
H4    H     H_    0.218269 0.382914 0.870233 0.058231
H5    H     H_    0.250038 0.548905 0.122452 0.274629
H6    H     H_    0.220680 0.375806 0.116447 0.169067
H7    H     H_    0.912186 0.544558 0.606724 0.149924
H8    H     H_    0.081678 0.440452 0.560836 0.095814
H9    H     H_    0.539323 0.113443 0.281234 0.181979
H10   H     H_    0.540789 0.886730 0.281087 0.175714
H11   H     H_    0.358744 0.886245 0.725270 0.184503
H12   H     H_    0.505474 0.885130 0.833155 0.219195
H13   H     H_    0.358558 0.109993 0.725395 0.093814
N1    N     N_R   0.499170 0.499140 0.142800 -0.094236
N2    N     N_R   0.499170 0.499180 0.857150 -0.086166
O1    O     O_R   0.500020 0.316790 0.614690 -0.629796
O2    O     O_R   0.500000 0.316760 0.385350 -0.619006
O3    O     O_R   0.319080 0.500020 0.614640 -0.591682
O4    O     O_R   0.319070 0.499980 0.385300 -0.570699
O5    O     O_R   0.500000 0.683240 0.614650 -0.603270
O6    O     O_R   0.499980 0.683210 0.385310 -0.618165
O7    O     O_R   0.680930 0.500020 0.614700 -0.641356
O8    O     O_R   0.680920 0.499980 0.385360 -0.620747
Zn1   Zn    Zn3+2 0.500010 0.500020 0.653130 0.970214
Zn2   Zn    Zn3+2 0.499990 0.499980 0.346870 0.961129
O9    O     O_3   0.506769 0.121082 0.869221 -0.598416
C23   C     C_3   0.638816 0.137106 0.866995 0.143639
H14   H     H_    0.664344 0.211592 0.793550 0.163377
H15   H     H_    0.686588 0.047979 0.840775 0.133929
C24   C     C_3   0.685827 0.177404 0.006757 -0.861710
H16   H     H_    0.667786 0.101793 0.081153 0.248203
H17   H     H_    0.788525 0.196009 0.004446 0.202392
H18   H     H_    0.637229 0.264049 0.038809 0.262672
O10   O     O_3   0.245457 0.582259 0.869245 -0.554215
C25   C     C_3   0.114292 0.600115 0.859392 0.130739
H19   H     H_    0.071957 0.599677 0.961698 0.135721
H20   H     H_    0.068592 0.526085 0.795907 0.117320
C26   C     C_3   0.088068 0.726286 0.793443 -0.850174
H21   H     H_    0.128618 0.729021 0.690543 0.261233
H22   H     H_    0.985035 0.741244 0.784695 0.199030
H23   H     H_    0.130486 0.802740 0.855723 0.251148
O11   O     O_3   0.136245 0.654544 0.316330 -0.609963
C27   C     C_3   0.064176 0.753348 0.261031 0.073135
H24   H     H_    0.011732 0.803646 0.341127 0.148719
H25   H     H_    0.997799 0.717125 0.181886 0.129952
C28   C     C_3   0.152145 0.846575 0.194253 -0.811799
H26   H     H_    0.205792 0.799377 0.113434 0.268320
H27   H     H_    0.096910 0.924292 0.148498 0.200497
H28   H     H_    0.219302 0.885836 0.270781 0.258936

loop_
_geom_bond_atom_site_label_1
_geom_bond_atom_site_label_2
_ccdc_geom_bond_type
C2    C22   A    
C9    N1    A    
C14   O10   S    
C10   N1    A    
C8    O9    S    
C20   O11   S    
C6    C7    S    
C21   H8    S    
C1    C2    S    
C8    C22   S    
C24   H18   S    
C24   H16   S    
C23   C24   S    
O11   C27   S    
C27   C28   S    
C23   H15   S    
C2    C3    A    
O4    Zn2   S    
C17   O7    A    
C5    C16   S    
C7    C8    S    
C28   H28   S    
C4    H10   S    
C13   C14   S    
C14   H4    S    
C3    H9    S    
C7    H11   S    
C16   O6    A    
C25   H19   S    
C12   O4    A    
O5    Zn1   S    
C13   N2    A    
C26   H21   S    
C26   H23   S    
C1    O1    A    
C15   H5    S    
C26   H22   S    
O9    C23   S    
C17   C19   S    
C24   H17   S    
C27   H24   S    
C18   C20   S    
O8    Zn2   S    
C9    C15   S    
C5    C6    A    
C7    H12   S    
O1    Zn1   S    
C25   H20   S    
O10   C25   S    
O3    Zn1   S    
C15   H6    S    
C18   H1    S    
C6    C22   A    
C11   H3    S    
C16   O5    A    
C20   C21   D    
N1    Zn2   S    
O2    Zn2   S    
C23   H14   S    
C10   C11   A    
C11   N2    A    
C28   H27   S    
C1    O2    A    
C14   C15   S    
C18   C19   D    
C25   C26   S    
C9    C13   A    
C12   O3    A    
O7    Zn1   S    
C10   H2    S    
N2    Zn1   S    
C28   H26   S    
O6    Zn2   S    
C12   C21   S    
C3    C4    A    
C17   O8    A    
C4    C5    A    
C27   H25   S    
C8    H13   S    
C19   H7    S    
