data_mof_unit_2327.cif
_audit_creation_date              2012-12-11T14:30:09-0500
_audit_creation_method            fapswitch 2.2
_symmetry_space_group_name_H-M    P1
_symmetry_Int_Tables_number       1
_space_group_crystal_system       triclinic
_cell_length_a                    12.753099
_cell_length_b                    12.765361
_cell_length_c                    27.160564
_cell_angle_alpha                 90.000864
_cell_angle_beta                  90.003275
_cell_angle_gamma                 119.787593
_cell_volume                      3837.45960488

loop_
_atom_site_label
_atom_site_type_symbol
_atom_type_description
_atom_site_fract_x
_atom_site_fract_y
_atom_site_fract_z
_atom_type_partial_charge
C1    C     C_R   0.557631 0.457572 0.821536 0.526124
C2    C     C_R   0.899772 0.441007 0.678074 0.530318
C3    C     C_R   0.543045 0.102295 0.822456 0.528363
C4    C     C_R   0.557627 0.457569 0.678463 0.526117
C5    C     C_R   0.899793 0.441016 0.821921 0.530330
C6    C     C_R   0.543040 0.102298 0.677543 0.528292
C7    C     C_R   0.455787 0.560591 0.322674 0.542706
C8    C     C_R   0.439661 0.893721 0.177079 0.537393
C9    C     C_R   0.104669 0.545335 0.322574 0.539502
C10   C     C_R   0.455780 0.560590 0.177324 0.542694
C11   C     C_R   0.439687 0.893757 0.322914 0.537363
C12   C     C_R   0.104650 0.545322 0.177427 0.539502
C13   C     C_R   0.985031 0.497491 0.975302 0.013325
C14   C     C_R   0.461941 0.969653 0.528437 0.001795
C15   C     C_R   0.508885 0.511337 0.973473 0.014600
C16   C     C_R   0.985007 0.497569 0.524690 0.013352
C17   C     C_R   0.461870 0.969604 0.971550 0.001752
C18   C     C_R   0.508900 0.511344 0.526523 0.014632
C19   C     C_R   0.460173 0.954801 0.476913 -0.010686
C20   C     C_R   0.000806 0.511102 0.026657 0.032672
C21   C     C_R   0.498177 0.513384 0.474994 0.012759
C22   C     C_R   0.460057 0.954694 0.023071 -0.010447
C23   C     C_R   0.000857 0.511202 0.473339 0.032626
C24   C     C_R   0.498156 0.513380 0.025002 0.012728
C25   C     C_R   0.126712 0.710252 0.963379 -0.125694
C26   C     C_R   0.571418 0.860442 0.538566 -0.123207
C27   C     C_R   0.290565 0.403817 0.964818 -0.130236
C28   C     C_R   0.127129 0.710152 0.536674 -0.125619
C29   C     C_R   0.571140 0.860190 0.961409 -0.123198
C30   C     C_R   0.290581 0.403774 0.535160 -0.130242
C31   C     C_R   0.565388 0.841067 0.487594 -0.123511
C32   C     C_R   0.145782 0.722810 0.014381 -0.119446
C33   C     C_R   0.279400 0.406933 0.483917 -0.135807
C34   C     C_R   0.565093 0.840792 0.012379 -0.123574
C35   C     C_R   0.146275 0.722716 0.485678 -0.119419
C36   C     C_R   0.279378 0.406978 0.016060 -0.135814
C37   C     C_R   0.021436 0.581308 0.892207 -0.178709
C38   C     C_R   0.548027 0.967773 0.608933 -0.149207
C39   C     C_R   0.419046 0.442512 0.892046 -0.164983
C40   C     C_R   0.021573 0.581255 0.607810 -0.178671
C41   C     C_R   0.547933 0.967688 0.891056 -0.149005
C42   C     C_R   0.419046 0.442500 0.607942 -0.164998
C43   C     C_R   0.514065 0.878797 0.405394 -0.157867
C44   C     C_R   0.107674 0.634100 0.096568 -0.151732
C45   C     C_R   0.372403 0.463715 0.402653 -0.154078
C46   C     C_R   0.513872 0.878598 0.094586 -0.157818
C47   C     C_R   0.108039 0.634099 0.403469 -0.151662
C48   C     C_R   0.372377 0.463732 0.097335 -0.154081
C49   C     C_R   0.054117 0.531668 0.127474 -0.005620
C50   C     C_R   0.469049 0.935542 0.374238 -0.003365
C51   C     C_R   0.475413 0.530297 0.126958 0.001602
C52   C     C_R   0.054215 0.531740 0.372532 -0.005562
C53   C     C_R   0.468970 0.935440 0.125747 -0.003223
C54   C     C_R   0.475434 0.530297 0.373038 0.001611
C55   C     C_R   0.516965 0.052475 0.626411 0.007972
C56   C     C_R   0.949565 0.464207 0.872983 -0.011521
C57   C     C_R   0.534674 0.479025 0.627034 -0.002172
C58   C     C_R   0.516994 0.052492 0.873590 0.008040
C59   C     C_R   0.949464 0.464180 0.627002 -0.011497
C60   C     C_R   0.534678 0.479027 0.872964 -0.002174
C61   C     C_R   0.047183 0.596899 0.943187 0.002083
C62   C     C_R   0.524778 0.929549 0.559261 0.021093
C63   C     C_R   0.405185 0.453166 0.943099 0.017096
C64   C     C_R   0.047348 0.596870 0.556834 0.002055
C65   C     C_R   0.524624 0.929418 0.940722 0.021152
C66   C     C_R   0.405195 0.453153 0.556889 0.017093
C67   C     C_R   0.514219 0.891832 0.456492 -0.002456
C68   C     C_R   0.085045 0.623417 0.046028 0.011665
C69   C     C_R   0.382694 0.460345 0.453688 0.007398
C70   C     C_R   0.514010 0.891629 0.043487 -0.002405
C71   C     C_R   0.085353 0.623418 0.454002 0.011527
C72   C     C_R   0.382670 0.460363 0.046299 0.007385
C73   C     C_R   0.910409 0.363947 0.905654 0.016261
C74   C     C_R   0.453423 0.090547 0.594579 0.019329
C75   C     C_R   0.635592 0.531538 0.904950 -0.021001
C76   C     C_R   0.910031 0.363980 0.594296 0.015992
C77   C     C_R   0.453521 0.090631 0.905425 0.019108
C78   C     C_R   0.635594 0.531554 0.595057 -0.020985
C79   C     C_R   0.427296 0.009821 0.394311 0.011951
C80   C     C_R   0.966292 0.418180 0.108292 -0.001706
C81   C     C_R   0.593175 0.586638 0.394785 -0.023019
C82   C     C_R   0.427276 0.009771 0.105677 0.011972
C83   C     C_R   0.966130 0.418364 0.391675 -0.001779
C84   C     C_R   0.593155 0.586634 0.105216 -0.023036
C85   C     C_R   0.907372 0.383156 0.956182 0.028957
C86   C     C_R   0.412996 0.037191 0.548221 0.030023
C87   C     C_R   0.624348 0.564911 0.952554 0.004208
C88   C     C_R   0.907072 0.383317 0.543775 0.029045
C89   C     C_R   0.413044 0.037261 0.951775 0.029955
C90   C     C_R   0.624360 0.564930 0.547451 0.004217
C91   C     C_R   0.409933 0.008545 0.445881 0.023444
C92   C     C_R   0.931311 0.412156 0.058396 0.056870
C93   C     C_R   0.603498 0.565482 0.445020 0.005580
C94   C     C_R   0.409895 0.008502 0.054107 0.023485
C95   C     C_R   0.931170 0.412383 0.441570 0.056978
C96   C     C_R   0.603476 0.565467 0.054982 0.005593
C97   C     C_R   0.828543 0.311895 0.038568 0.102991
C98   C     C_R   0.338086 0.052265 0.467571 0.089112
C99   C     C_R   0.717160 0.607648 0.032256 0.136157
C100  C     C_R   0.828211 0.312338 0.461365 0.103098
C101  C     C_R   0.338141 0.052337 0.032421 0.089057
C102  C     C_R   0.717181 0.607664 0.467754 0.136115
C103  C     C_R   0.335902 0.061457 0.519046 0.088135
C104  C     C_R   0.821214 0.294036 0.987406 0.083649
C105  C     C_R   0.727029 0.630784 0.517601 0.130184
C106  C     C_R   0.336000 0.061594 0.980949 0.088213
C107  C     C_R   0.820767 0.294452 0.512524 0.083714
C108  C     C_R   0.727006 0.630772 0.982410 0.130192
Cr1   Cr    Cr6+3 0.487630 0.241180 0.750000 1.001238
Cr2   Cr    Cr6+3 0.753550 0.512370 0.750000 0.999449
Cr3   Cr    Cr6+3 0.758820 0.246450 0.750000 0.992259
Cr4   Cr    Cr6+3 0.241180 0.487630 0.250000 0.998209
Cr5   Cr    Cr6+3 0.512370 0.753550 0.250000 0.990995
Cr6   Cr    Cr6+3 0.246450 0.758820 0.250000 1.007742
H1    H     H_    0.175213 0.720864 0.111133 0.144060
H2    H     H_    0.545806 0.821340 0.389927 0.134208
H3    H     H_    0.282836 0.423913 0.113412 0.135380
H4    H     H_    0.175780 0.720776 0.388928 0.144038
H5    H     H_    0.545554 0.821088 0.110050 0.134185
H6    H     H_    0.282865 0.423879 0.386570 0.135432
H7    H     H_    0.596377 0.938078 0.632738 0.105375
H8    H     H_    0.056807 0.658718 0.867860 0.116020
H9    H     H_    0.340713 0.398762 0.631760 0.111005
H10   H     H_    0.596218 0.937929 0.867247 0.105360
H11   H     H_    0.057147 0.658614 0.632182 0.116032
H12   H     H_    0.340716 0.398789 0.868221 0.110992
H13   H     H_    0.207156 0.810163 0.029326 0.131766
H14   H     H_    0.605240 0.790567 0.472272 0.124785
H15   H     H_    0.189840 0.367124 0.032082 0.111122
H16   H     H_    0.207849 0.809999 0.470758 0.131819
H17   H     H_    0.604878 0.790224 0.027697 0.124800
H18   H     H_    0.189867 0.367055 0.467888 0.111128
H19   H     H_    0.617442 0.826205 0.561376 0.121203
H20   H     H_    0.173919 0.788736 0.939894 0.130641
H21   H     H_    0.209703 0.360121 0.557581 0.114453
H22   H     H_    0.617101 0.825892 0.938595 0.121214
H23   H     H_    0.174496 0.788563 0.560179 0.130677
H24   H     H_    0.209686 0.360182 0.942390 0.114439
O1    O     O_R   0.460870 0.120930 0.805240 -0.510595
O2    O     O_R   0.660060 0.539130 0.694760 -0.508763
O3    O     O_R   0.879070 0.339940 0.805240 -0.521445
O4    O     O_R   0.460870 0.120930 0.694760 -0.510603
O5    O     O_R   0.660060 0.539130 0.805240 -0.508760
O6    O     O_R   0.879070 0.339940 0.694760 -0.521474
O7    O     O_R   0.120930 0.460870 0.305240 -0.527531
O8    O     O_R   0.539130 0.660060 0.194760 -0.530057
O9    O     O_R   0.339940 0.879070 0.305240 -0.518369
O10   O     O_R   0.120930 0.460870 0.194760 -0.527529
O11   O     O_R   0.539130 0.660060 0.305240 -0.530047
O12   O     O_R   0.339940 0.879070 0.194760 -0.518397
O13   O     O_R   0.498910 0.350470 0.801870 -0.514495
O14   O     O_R   0.851560 0.501090 0.698130 -0.508876
O15   O     O_R   0.649530 0.148440 0.801870 -0.509154
O16   O     O_R   0.498910 0.350470 0.698130 -0.514497
O17   O     O_R   0.851560 0.501090 0.801870 -0.508873
O18   O     O_R   0.649530 0.148440 0.698130 -0.509267
O19   O     O_R   0.350470 0.498910 0.301870 -0.502592
O20   O     O_R   0.501090 0.851560 0.198130 -0.506360
O21   O     O_R   0.148440 0.649530 0.301870 -0.502518
O22   O     O_R   0.350470 0.498910 0.198130 -0.502591
O23   O     O_R   0.501090 0.851560 0.301870 -0.506357
O24   O     O_R   0.148440 0.649530 0.198130 -0.502547
O25   O     O_3   0.666667 0.333333 0.750000 -0.237572
O26   O     O_3   0.333333 0.666667 0.250000 -0.237860
C109  C     C_3   0.922748 0.304236 0.139111 -0.354385
H25   H     H_    0.999836 0.291168 0.148707 0.144128
H26   H     H_    0.876769 0.309778 0.172912 0.142463
H27   H     H_    0.863055 0.219162 0.119847 0.148498
C110  C     C_3   0.412221 0.096401 0.360759 -0.339390
H28   H     H_    0.467744 0.115883 0.326906 0.118334
H29   H     H_    0.316238 0.057738 0.349700 0.177287
H30   H     H_    0.444908 0.184845 0.379285 0.145861
C111  C     C_3   0.703521 0.684786 0.132489 -0.374212
H31   H     H_    0.690710 0.762770 0.140538 0.156958
H32   H     H_    0.721169 0.647630 0.166469 0.146569
H33   H     H_    0.787775 0.731111 0.111420 0.113518
C112  C     C_3   0.922215 0.304471 0.360798 -0.354557
H34   H     H_    0.999090 0.291152 0.351118 0.144216
H35   H     H_    0.862415 0.219440 0.380053 0.148614
H36   H     H_    0.876241 0.310245 0.327044 0.142364
C113  C     C_3   0.412297 0.096411 0.139231 -0.339429
H37   H     H_    0.467836 0.115874 0.173082 0.118329
H38   H     H_    0.445036 0.184858 0.120702 0.145874
H39   H     H_    0.316324 0.057812 0.150293 0.177257
C114  C     C_3   0.703539 0.684770 0.367512 -0.374210
H40   H     H_    0.690741 0.762761 0.359462 0.156939
H41   H     H_    0.787802 0.731084 0.388581 0.113530
H42   H     H_    0.721162 0.647598 0.333532 0.146572
C115  C     C_3   0.458802 0.209427 0.603722 -0.316299
H43   H     H_    0.542062 0.268918 0.623981 0.136633
H44   H     H_    0.468127 0.258890 0.568905 0.132509
H45   H     H_    0.377767 0.195762 0.624299 0.186822
C116  C     C_3   0.887372 0.240654 0.888910 -0.331275
H46   H     H_    0.958164 0.250639 0.862442 0.134605
H47   H     H_    0.894223 0.187631 0.919943 0.125063
H48   H     H_    0.796190 0.187911 0.872524 0.191370
C117  C     C_3   0.743295 0.516498 0.605472 -0.349973
H49   H     H_    0.716865 0.434993 0.627748 0.149141
H50   H     H_    0.778552 0.497895 0.571312 0.136722
H51   H     H_    0.814790 0.598193 0.624021 0.164839
C118  C     C_3   0.458987 0.209548 0.896287 -0.316365
H52   H     H_    0.542211 0.268973 0.876001 0.136587
H53   H     H_    0.377929 0.195925 0.875736 0.186900
H54   H     H_    0.468424 0.259046 0.931108 0.132548
C119  C     C_3   0.886587 0.240574 0.610994 -0.331477
H55   H     H_    0.957273 0.250219 0.637425 0.134738
H56   H     H_    0.795482 0.188139 0.627401 0.191394
H57   H     H_    0.893116 0.187479 0.579944 0.125154
C120  C     C_3   0.743312 0.516501 0.894542 -0.350043
H58   H     H_    0.716915 0.435028 0.872247 0.149122
H59   H     H_    0.814801 0.598214 0.876005 0.164804
H60   H     H_    0.778561 0.497865 0.928701 0.136667
N1    N     N_3   0.725838 0.238874 0.069260 -0.648111
H61   H     H_    0.653927 0.250887 0.058274 0.240306
H62   H     H_    0.700674 0.148089 0.064702 0.230262
N2    N     N_3   0.260661 0.078331 0.437911 -0.663207
H63   H     H_    0.282508 0.167820 0.443889 0.234248
H64   H     H_    0.170850 0.020977 0.448141 0.232311
N3    N     N_3   0.815712 0.602228 0.055610 -0.628604
H65   H     H_    0.790837 0.558161 0.089601 0.240510
H66   H     H_    0.889832 0.689121 0.059429 0.242682
N4    N     N_3   0.725492 0.239594 0.430643 -0.648323
H67   H     H_    0.653785 0.251927 0.441599 0.240340
H68   H     H_    0.700011 0.148752 0.435198 0.230345
N5    N     N_3   0.260755 0.078451 0.062082 -0.663258
H69   H     H_    0.282694 0.167976 0.056130 0.234277
H70   H     H_    0.170939 0.021182 0.051828 0.232256
N6    N     N_3   0.815728 0.602230 0.444407 -0.628629
H71   H     H_    0.790847 0.558154 0.410417 0.240563
H72   H     H_    0.889855 0.689117 0.440590 0.242693
N7    N     N_3   0.252781 0.091119 0.542291 -0.655019
H73   H     H_    0.164691 0.024215 0.533738 0.235766
H74   H     H_    0.266947 0.173512 0.528546 0.234875
N8    N     N_3   0.719146 0.192028 0.966575 -0.651101
H75   H     H_    0.714799 0.115156 0.982054 0.240845
H76   H     H_    0.642917 0.197405 0.976356 0.240360
N9    N     N_3   0.841295 0.721997 0.536853 -0.647007
H77   H     H_    0.830773 0.749644 0.571826 0.226697
H78   H     H_    0.899891 0.687465 0.538868 0.252686
N10   N     N_3   0.252969 0.091388 0.957705 -0.655053
H79   H     H_    0.164847 0.024521 0.966231 0.235686
H80   H     H_    0.267196 0.173785 0.971474 0.234938
N11   N     N_3   0.718536 0.192622 0.533319 -0.651170
H81   H     H_    0.714089 0.115695 0.517853 0.240880
H82   H     H_    0.642409 0.198123 0.523490 0.240311
N12   N     N_3   0.841249 0.722026 0.963167 -0.647019
H83   H     H_    0.830708 0.749659 0.928193 0.226679
H84   H     H_    0.899862 0.687517 0.961149 0.252697

loop_
_geom_bond_atom_site_label_1
_geom_bond_atom_site_label_2
_ccdc_geom_bond_type
C44   C49   A    
C4    O16   A    
C109  H25   S    
C82   C94   A    
C73   C116  S    
C52   C83   A    
C18   C21   A    
C2    O6    A    
C118  H52   S    
C5    C56   S    
C11   O23   A    
C6    C55   S    
C8    O20   A    
C50   C79   A    
C114  H41   S    
N6    H72   S    
C12   C49   S    
C41   H10   S    
C113  H37   S    
C78   C90   A    
C31   C67   A    
C99   C108  A    
C20   C92   A    
C82   C113  S    
C77   C89   A    
C32   H13   S    
Cr1   O13   S    
N2    H64   S    
C41   C58   A    
Cr2   O14   S    
C24   C96   A    
C44   H1    S    
N3    H66   S    
C9    O21   A    
N11   H81   S    
C14   C62   A    
C96   C99   A    
C108  N12   S    
Cr6   O9    S    
C3    O15   A    
C120  H60   S    
Cr4   O7    S    
C102  C105  A    
C101  N5    S    
C84   C96   A    
C9    O7    A    
C117  H50   S    
C98   N2    S    
Cr2   O17   S    
C58   C77   A    
C120  H59   S    
C7    O11   A    
C55   C74   A    
C5    O3    A    
C48   C51   A    
C38   C55   A    
C94   C101  A    
C23   C95   A    
N11   H82   S    
C89   C106  A    
C42   H9    S    
Cr2   O5    S    
C19   C67   A    
Cr1   O4    S    
C119  H55   S    
C78   C117  S    
Cr5   O20   S    
C6    O4    A    
Cr4   O22   S    
Cr3   O18   S    
C34   C70   A    
C1    O13   A    
C79   C91   A    
C13   C20   A    
C33   C69   A    
C32   C68   A    
C116  H48   S    
C25   C32   A    
C104  N8    S    
C35   C71   A    
C26   C31   A    
C109  H26   S    
C40   C59   A    
C106  N10   S    
N9    H77   S    
C2    O14   A    
N10   H80   S    
C118  H53   S    
C107  N11   S    
C115  H43   S    
C9    C52   S    
N8    H76   S    
C31   H14   S    
C48   C72   A    
C86   C103  A    
C14   C19   A    
C42   C57   A    
C81   C114  S    
N6    H71   S    
C92   C97   A    
C120  H58   S    
C10   O22   A    
C113  H38   S    
C24   C72   A    
C103  N7    S    
Cr4   O26   S    
N12   H84   S    
C27   H24   S    
Cr4   O19   S    
C87   C108  A    
C45   C69   A    
C115  H45   S    
C18   C90   A    
C110  H28   S    
Cr5   O11   S    
Cr3   O25   S    
N2    H63   S    
C14   C86   A    
Cr1   O25   S    
C1    C60   S    
N3    H65   S    
C88   C107  A    
C83   C112  S    
C2    C59   S    
C114  H42   S    
C41   C65   A    
C116  H47   S    
C111  H31   S    
Cr5   O23   S    
C29   C34   A    
C11   O9    A    
C22   C94   A    
Cr4   O10   S    
C21   C69   A    
C53   C82   A    
C47   H4    S    
Cr5   O8    S    
C80   C92   A    
C117  H51   S    
C8    O12   A    
C1    O5    A    
C23   C71   A    
C43   H2    S    
C4    O2    A    
C74   C115  S    
C81   C93   A    
Cr6   O26   S    
C100  N4    S    
C112  H36   S    
C83   C95   A    
C102  N6    S    
N5    H69   S    
C17   C89   A    
N7    H74   S    
C25   C61   A    
C74   C86   A    
N4    H68   S    
Cr1   O16   S    
Cr3   O15   S    
C35   H16   S    
C47   C71   A    
C30   C66   A    
C111  H32   S    
C27   C63   A    
C37   C56   A    
C10   O8    A    
C29   C65   A    
C39   C60   A    
Cr3   O6    S    
C45   H6    S    
C75   C87   A    
C15   C24   A    
C99   N3    S    
C34   H17   S    
C116  H46   S    
C16   C23   A    
C109  H27   S    
N9    H78   S    
C118  H54   S    
C44   C68   A    
C3    O1    A    
N8    H75   S    
Cr6   O12   S    
C13   C85   A    
C84   C111  S    
C25   H20   S    
C80   C109  S    
C76   C119  S    
C28   C64   A    
C15   C87   A    
C73   C85   A    
C119  H57   S    
C101  C106  A    
C28   C35   A    
C76   C88   A    
C33   H18   S    
C75   C120  S    
C100  C107  A    
C105  N9    S    
C56   C73   A    
C113  H39   S    
C30   C33   A    
C95   C100  A    
C93   C102  A    
C57   C78   A    
C20   C68   A    
C19   C91   A    
C42   C66   A    
C28   H23   S    
C90   C105  A    
C112  H34   S    
C77   C118  S    
C8    C53   S    
C45   C54   A    
C111  H33   S    
Cr2   O25   S    
C49   C80   A    
C43   C50   A    
C48   H3    S    
C7    O19   A    
C27   C36   A    
C18   C66   A    
C39   C63   A    
C60   C75   A    
C17   C65   A    
C17   C22   A    
C40   C64   A    
C16   C88   A    
C97   C104  A    
Cr1   O1    S    
C10   C51   S    
C12   O10   A    
N12   H83   S    
C85   C104  A    
C37   C61   A    
N1    H62   S    
C26   H19   S    
C5    O17   A    
C36   H15   S    
Cr5   O26   S    
C79   C110  S    
C114  H40   S    
C21   C93   A    
N1    H61   S    
C40   H11   S    
C59   C76   A    
C46   C53   A    
Cr2   O2    S    
N10   H79   S    
N5    H70   S    
C112  H35   S    
C46   H5    S    
C11   C50   S    
C91   C98   A    
C26   C62   A    
C117  H49   S    
N4    H67   S    
Cr6   O21   S    
C46   C70   A    
C38   H7    S    
Cr6   O24   S    
Cr3   O3    S    
C12   O24   A    
C37   H8    S    
C3    C58   S    
C36   C72   A    
C29   H22   S    
C13   C61   A    
C43   C67   A    
C30   H21   S    
C47   C52   A    
N7    H73   S    
C39   H12   S    
C15   C63   A    
C97   N1    S    
C110  H30   S    
C16   C64   A    
C7    C54   S    
C115  H44   S    
C119  H56   S    
C51   C84   A    
C22   C70   A    
C54   C81   A    
C6    O18   A    
C98   C103  A    
C4    C57   S    
C38   C62   A    
C110  H29   S    
