data_mof_unit_1306.cif
_audit_creation_date              2012-12-10T17:37:18-0500
_audit_creation_method            fapswitch 2.2
_symmetry_space_group_name_H-M    P1
_symmetry_Int_Tables_number       1
_space_group_crystal_system       triclinic
_cell_length_a                    12.320575
_cell_length_b                    13.127706
_cell_length_c                    15.837039
_cell_angle_alpha                 77.791539
_cell_angle_beta                  101.199069
_cell_angle_gamma                 116.626535
_cell_volume                      2223.5132264

loop_
_atom_site_label
_atom_site_type_symbol
_atom_type_description
_atom_site_fract_x
_atom_site_fract_y
_atom_site_fract_z
_atom_type_partial_charge
C1    C     C_R   0.854860 0.286608 0.504989 0.798751
C2    C     C_3   0.996915 0.496581 0.916985 0.015891
C3    C     C_3   0.076526 0.600917 0.021961 -0.209476
C4    C     C_3   0.997326 0.496340 0.083316 0.023235
C5    C     C_3   0.963137 0.578608 0.952364 -0.263556
C6    C     C_3   0.885422 0.474123 0.014534 0.355853
C7    C     C_1   0.996927 0.497030 0.825271 0.042260
C8    C     C_1   0.998334 0.496962 0.175037 0.069324
C9    C     C_R   0.269289 0.027793 0.394200 -0.149279
C10   C     C_R   0.228032 0.835731 0.468873 -0.052063
C11   C     C_R   0.817346 0.081197 0.539655 -0.195210
C12   C     C_R   0.999214 0.499308 0.659968 0.831845
C13   C     C_R   0.739701 0.964549 0.545754 0.214778
C14   C     C_R   0.615167 0.929052 0.519867 -0.185886
C15   C     C_R   0.566457 0.010174 0.483040 0.055619
C16   C     C_R   0.648642 0.126994 0.464389 0.052260
C17   C     C_R   0.438976 0.978683 0.462693 0.066947
C18   C     C_R   0.395914 0.060249 0.413756 0.112287
C19   C     C_R   0.480520 0.171394 0.384474 0.107639
C20   C     C_R   0.604660 0.202665 0.408269 -0.195788
C21   C     C_R   0.352986 0.868768 0.492246 -0.220369
C22   C     C_R   0.186082 0.916049 0.420866 -0.180771
C23   C     C_R   0.145220 0.713790 0.487181 0.800373
C24   C     C_R   0.772858 0.163812 0.501131 -0.118975
C25   C     C_R   0.344086 0.326114 0.637556 -0.258413
C26   C     C_R   0.761261 0.648100 0.385011 0.084335
C27   C     C_R   0.666375 0.682311 0.361353 0.125581
C28   C     C_R   0.562335 0.626168 0.404929 -0.177140
C29   C     C_R   0.552359 0.535311 0.473575 -0.019697
C30   C     C_R   0.652950 0.504885 0.496324 0.259581
C31   C     C_R   0.447494 0.474644 0.520961 -0.036730
C32   C     C_R   0.446087 0.385839 0.590783 0.120237
C33   C     C_R   0.546730 0.358738 0.612858 0.082419
C34   C     C_R   0.000101 0.499725 0.340083 0.808417
C35   C     C_R   0.646992 0.417551 0.566434 -0.175026
C36   C     C_R   0.342979 0.498152 0.502130 0.060391
C37   C     C_R   0.245076 0.353822 0.615805 0.070611
C38   C     C_3   0.031538 0.416663 0.046434 0.359565
C39   C     C_3   0.918496 0.392900 0.979076 0.309569
C40   C     C_1   0.997697 0.498018 0.749643 -0.149828
C41   C     C_1   0.999429 0.498128 0.250573 -0.143426
C42   C     C_3   0.111443 0.520360 0.984657 -0.272116
Cu1   Cu    Cu3+1 0.098270 0.475420 0.519690 0.954873
Cu2   Cu    Cu3+1 0.901730 0.524580 0.480310 0.958654
H1    H     H_    0.381175 0.806873 0.534437 0.153599
H2    H     H_    0.912493 0.106913 0.565472 0.174909
H3    H     H_    0.559770 0.837428 0.526465 0.145093
H4    H     H_    0.665838 0.286274 0.379284 0.198707
H5    H     H_    0.166536 0.307786 0.651778 0.131032
H6    H     H_    0.339380 0.258131 0.690871 0.177134
H7    H     H_    0.335880 0.563293 0.450135 0.123724
H8    H     H_    0.841925 0.692003 0.351195 0.141792
H9    H     H_    0.491901 0.656337 0.384191 0.152448
H10   H     H_    0.719333 0.392062 0.588697 0.221104
H11   H     H_    0.935879 0.645312 0.911969 0.165601
H12   H     H_    0.141215 0.686014 0.041576 0.174774
H13   H     H_    0.204066 0.540176 0.970243 0.158330
H14   H     H_    0.089325 0.891810 0.401986 0.168126
H15   H     H_    0.233269 0.087227 0.356952 0.174965
N1    N     N_R   0.246280 0.438200 0.549540 -0.184253
N2    N     N_R   0.754330 0.561180 0.450980 -0.214080
O1    O     O_R   0.972510 0.318130 0.524770 -0.579924
O2    O     O_R   0.806530 0.359650 0.491510 -0.605832
O3    O     O_R   0.082970 0.479240 0.637550 -0.579916
O4    O     O_R   0.916990 0.520750 0.604290 -0.578036
O5    O     O_R   0.193470 0.640350 0.508490 -0.592640
O6    O     O_R   0.027490 0.681870 0.475230 -0.578055
O7    O     O_R   0.083010 0.479250 0.395710 -0.569182
O8    O     O_R   0.917030 0.520760 0.362450 -0.580792
O9    O     O_3   0.837173 0.287497 0.949185 -0.583884
C43   C     C_3   0.780962 0.205743 0.019203 0.068525
H16   H     H_    0.740446 0.239681 0.057137 0.182153
H17   H     H_    0.847843 0.178217 0.063269 0.188883
C44   C     C_3   0.678522 0.100357 0.983703 -0.725440
H18   H     H_    0.715646 0.062956 0.946180 0.259945
H19   H     H_    0.634471 0.034558 0.038257 0.215146
H20   H     H_    0.608783 0.124709 0.940501 0.262980
I1    I     I_    0.809583 0.840847 0.597164 -0.394396
I2    I     I_    0.558440 0.229846 0.717000 -0.415348
O10   O     O_3   0.064944 0.333147 0.101377 -0.574253
C45   C     C_3   0.114793 0.288634 0.053326 0.066088
H21   H     H_    0.207796 0.353484 0.038610 0.158660
H22   H     H_    0.056102 0.263095 0.991427 0.161120
C46   C     C_3   0.125363 0.182236 0.107276 -0.734037
H23   H     H_    0.033331 0.114832 0.121340 0.244862
H24   H     H_    0.167184 0.147863 0.070961 0.201187
H25   H     H_    0.183514 0.204369 0.169605 0.275016
I3    I     I_    0.681211 0.820431 0.260748 -0.402087
O11   O     O_3   0.769794 0.449603 0.036653 -0.578488
C47   C     C_3   0.688419 0.447828 0.960241 0.081108
H26   H     H_    0.688073 0.391478 0.916464 0.190402
H27   H     H_    0.713154 0.536520 0.924641 0.154718
C48   C     C_3   0.559566 0.401030 0.984756 -0.745886
H28   H     H_    0.555623 0.456222 0.027367 0.263589
H29   H     H_    0.494665 0.399902 0.925124 0.199635
H30   H     H_    0.531967 0.311893 0.019730 0.250417
I4    I     I_    0.430964 0.300438 0.305821 -0.406790

loop_
_geom_bond_atom_site_label_1
_geom_bond_atom_site_label_2
_ccdc_geom_bond_type
C3    C42   S    
C48   H28   S    
C19   C20   A    
C46   H25   S    
C4    C8    S    
C1    O1    A    
C45   H21   S    
C19   I4    S    
C10   C22   A    
C26   C27   A    
C44   H19   S    
C30   C35   A    
C23   O5    A    
C28   C29   A    
C26   N2    A    
C46   H24   S    
C38   C42   S    
C5    C6    S    
C12   O3    A    
C9    C22   A    
C15   C16   A    
C11   C24   A    
C18   C19   A    
C23   O6    A    
C25   H6    S    
C25   C37   A    
C2    C39   S    
C2    C7    S    
Cu1   O7    S    
C44   H20   S    
C7    C40   T    
O9    C43   S    
C11   H2    S    
C25   C32   A    
C16   C24   A    
C13   C14   A    
C35   H10   S    
Cu2   O4    S    
C34   C41   S    
C1    O2    A    
C42   H13   S    
C45   H22   S    
Cu1   O3    S    
C21   H1    S    
C10   C21   A    
C44   H18   S    
C46   H23   S    
C4    C6    S    
C34   O7    A    
C43   H17   S    
C33   I2    S    
C3    C5    S    
C17   C21   A    
C9    H15   S    
C12   C40   S    
Cu1   Cu2   S    
C29   C30   A    
C26   H8    S    
C37   H5    S    
C3    H12   S    
C47   H27   S    
C31   C32   A    
C14   C15   A    
C16   C20   A    
C17   C18   A    
Cu2   O8    S    
C8    C41   T    
C34   O8    A    
C20   H4    S    
C36   H7    S    
Cu1   N1    S    
C4    C38   S    
C48   H30   S    
Cu2   N2    S    
C2    C5    S    
C3    C4    S    
C45   C46   S    
C47   C48   S    
C15   C17   A    
C13   I1    S    
C31   C36   A    
C5    H11   S    
O10   C45   S    
C36   N1    A    
C22   H14   S    
C43   C44   S    
C28   H9    S    
C14   H3    S    
C10   C23   S    
C6    O11   S    
C12   O4    A    
C32   C33   A    
C43   H16   S    
C29   C31   A    
C11   C13   A    
C47   H26   S    
C38   C39   S    
C38   O10   S    
C2    C42   S    
Cu1   O5    S    
C33   C35   A    
C39   O9    S    
C27   I3    S    
C37   N1    A    
C9    C18   A    
C1    C24   S    
C48   H29   S    
Cu2   O2    S    
C30   N2    A    
C27   C28   A    
C6    C39   S    
Cu2   O6    S    
O11   C47   S    
Cu1   O1    S    
