data_mof_unit_1953.cif
_audit_creation_date              2012-12-10T16:45:49-0500
_audit_creation_method            fapswitch 2.2
_symmetry_space_group_name_H-M    P1
_symmetry_Int_Tables_number       1
_space_group_crystal_system       triclinic
_cell_length_a                    13.828743
_cell_length_b                    8.750989
_cell_length_c                    7.513162
_cell_angle_alpha                 103.184533
_cell_angle_beta                  88.881213
_cell_angle_gamma                 93.552777
_cell_volume                      883.525509524

loop_
_atom_site_label
_atom_site_type_symbol
_atom_type_description
_atom_site_fract_x
_atom_site_fract_y
_atom_site_fract_z
_atom_type_partial_charge
C1    C     C_R   0.498495 0.200550 0.454273 0.819867
C2    C     C_R   0.501698 0.799348 0.545737 0.829636
C3    C     C_R   0.318923 0.503358 0.531763 0.805384
C4    C     C_R   0.681079 0.496691 0.468249 0.813531
C5    C     C_1   0.783242 0.489691 0.445802 -0.216165
C6    C     C_1   0.216766 0.510441 0.554261 -0.212845
C7    C     C_2   0.973552 0.475052 0.422185 0.207310
C8    C     C_2   0.026463 0.525216 0.577935 0.207444
C9    C     C_1   0.130484 0.517174 0.567741 -0.030548
C10   C     C_1   0.869529 0.483033 0.432366 -0.032765
C11   C     C_2   0.512874 0.035805 0.431490 0.036973
C12   C     C_2   0.487783 0.964072 0.568860 0.035118
Cu1   Cu    Cu3+1 0.510540 0.517220 0.682700 0.945349
Cu2   Cu    Cu3+1 0.489460 0.482780 0.317300 1.001854
N1    N     N_2   0.473570 0.456830 0.042740 0.015523
N2    N     N_2   0.526430 0.543170 0.957260 -0.022929
O1    O     O_R   0.506850 0.286020 0.618680 -0.568878
O2    O     O_R   0.493150 0.713980 0.381320 -0.532492
O3    O     O_R   0.489050 0.256940 0.310110 -0.586756
O4    O     O_R   0.510950 0.743060 0.689890 -0.603407
O5    O     O_R   0.372320 0.516630 0.676100 -0.612712
O6    O     O_R   0.627680 0.483370 0.323900 -0.554622
O7    O     O_R   0.354510 0.487550 0.367530 -0.557148
O8    O     O_R   0.645490 0.512450 0.632470 -0.603671
N3    N     N_2   0.980772 0.583269 0.752049 -0.443480
H1    H     H_    0.915224 0.632834 0.749961 0.249755
C13   C     C_3   0.041378 0.662500 0.904633 -0.658731
H2    H     H_    0.995975 0.696123 0.029413 0.230712
H3    H     H_    0.078239 0.770593 0.875217 0.220743
H4    H     H_    0.096018 0.583091 0.932300 0.251518
N4    N     N_2   0.019255 0.417022 0.248079 -0.441148
H5    H     H_    0.084722 0.367222 0.250184 0.254400
C14   C     C_3   0.958647 0.338117 0.095354 -0.658054
H6    H     H_    0.004072 0.304551 0.970592 0.231575
H7    H     H_    0.904106 0.417731 0.067804 0.250084
H8    H     H_    0.921671 0.230017 0.124525 0.219460
N5    N     N_2   0.567274 0.960028 0.276011 -0.412853
H9    H     H_    0.549174 0.989681 0.156192 0.263157
C15   C     C_3   0.670926 0.974460 0.305385 -0.687363
H10   H     H_    0.708593 0.912526 0.180445 0.219305
H11   H     H_    0.689375 0.920876 0.420039 0.221964
H12   H     H_    0.697357 0.100284 0.336424 0.212174
N6    N     N_2   0.434773 0.040223 0.725875 -0.427335
H13   H     H_    0.457529 0.016504 0.846180 0.270434
C16   C     C_3   0.330701 0.016712 0.704947 -0.724000
H14   H     H_    0.294412 0.080575 0.830729 0.231394
H15   H     H_    0.307997 0.889661 0.682533 0.224601
H16   H     H_    0.307037 0.062877 0.587787 0.223965
N7    N     N_3   0.378939 0.418421 0.983702 -0.444834
H17   H     H_    0.343747 0.521457 0.987350 0.234203
H18   H     H_    0.378782 0.339697 0.857085 0.267692
N8    N     N_3   0.618145 0.586155 0.028928 -0.392160
H19   H     H_    0.644533 0.680961 0.975755 0.212473
H20   H     H_    0.662006 0.493284 0.975193 0.217297

loop_
_geom_bond_atom_site_label_1
_geom_bond_atom_site_label_2
_ccdc_geom_bond_type
Cu2   O7    S    
C7    C10   S    
C11   C12   D    
N4    C14   S    
N5    H9    S    
C13   H3    S    
C4    O6    A    
Cu2   O2    S    
C3    O7    A    
N4    H5    S    
C1    C11   S    
Cu1   O1    S    
N6    H13   S    
C3    C6    S    
C2    C12   S    
Cu2   O6    S    
C6    C9    T    
N1    N7    S    
C14   H6    S    
Cu1   O5    S    
C7    C8    D    
N5    C15   S    
Cu1   Cu2   S    
C13   H4    S    
C8    N3    S    
N6    C16   S    
C14   H7    S    
N8    H20   S    
C12   N6    S    
C16   H15   S    
N3    C13   S    
C4    O8    A    
C3    O5    A    
C2    O2    A    
C2    O4    A    
N1    N2    D    
C16   H14   S    
C5    C10   T    
C14   H8    S    
C7    N4    S    
N8    H19   S    
C15   H11   S    
N7    H17   S    
Cu1   N2    S    
C15   H10   S    
C11   N5    S    
C15   H12   S    
C8    C9    S    
C16   H16   S    
Cu1   O4    S    
N7    H18   S    
N3    H1    S    
Cu2   N1    S    
C1    O3    A    
C1    O1    A    
Cu2   O3    S    
N2    N8    S    
Cu1   O8    S    
C4    C5    S    
C13   H2    S    
