data_mof_unit_2963.cif
_audit_creation_date              2012-12-10T16:32:36-0500
_audit_creation_method            fapswitch 2.2
_symmetry_space_group_name_H-M    P1
_symmetry_Int_Tables_number       1
_space_group_crystal_system       triclinic
_cell_length_a                    16.859454
_cell_length_b                    16.913417
_cell_length_c                    16.900426
_cell_angle_alpha                 65.418129
_cell_angle_beta                  65.381964
_cell_angle_gamma                 65.365195
_cell_volume                      3807.25969917

loop_
_atom_site_label
_atom_site_type_symbol
_atom_type_description
_atom_site_fract_x
_atom_site_fract_y
_atom_site_fract_z
_atom_type_partial_charge
C1    C     C_R   0.589322 0.040788 0.585513 0.168037
C2    C     C_R   0.820816 0.561711 0.038798 0.934435
C3    C     C_R   0.435585 0.966711 0.179102 0.943396
C4    C     C_R   0.564414 0.033291 0.820897 0.943202
C5    C     C_R   0.564713 0.820960 0.032707 0.943595
C6    C     C_R   0.435291 0.179042 0.967282 0.943424
C7    C     C_R   0.036356 0.562882 0.820824 0.936620
C8    C     C_R   0.962936 0.437472 0.179158 0.935868
C9    C     C_R   0.820790 0.038532 0.561836 0.938823
C10   C     C_R   0.179210 0.961477 0.438160 0.936563
C11   C     C_R   0.544818 0.020659 0.539538 0.128240
C12   C     C_R   0.410668 0.959234 0.414482 0.167970
C13   C     C_R   0.455170 0.979365 0.460457 0.128294
C14   C     C_R   0.020793 0.541590 0.542666 0.128469
C15   C     C_R   0.980147 0.459347 0.455709 0.128776
C16   C     C_R   0.545199 0.539415 0.020355 0.128066
C17   C     C_R   0.454836 0.460610 0.979548 0.128036
C18   C     C_R   0.572591 0.932199 0.532798 0.017259
C19   C     C_R   0.427394 0.067824 0.467201 0.017326
C20   C     C_R   0.929957 0.544001 0.563150 0.014656
C21   C     C_R   0.070949 0.457085 0.435084 0.014530
C22   C     C_R   0.470111 0.510849 0.087215 0.035628
C23   C     C_R   0.041385 0.586728 0.587606 0.168775
C24   C     C_R   0.529924 0.489177 0.912688 0.035606
C25   C     C_R   0.527716 0.911583 0.492793 0.036474
C26   C     C_R   0.472271 0.088441 0.507204 0.036498
C27   C     C_R   0.424902 0.470978 0.066863 0.018030
C28   C     C_R   0.575132 0.529051 0.933038 0.018096
C29   C     C_R   0.909616 0.502471 0.519600 0.034627
C30   C     C_R   0.091311 0.498559 0.478681 0.035273
C31   C     C_R   0.550061 0.035365 0.677481 0.018298
C32   C     C_R   0.449929 0.964658 0.322514 0.018237
C33   C     C_R   0.042226 0.676843 0.546163 0.022555
C34   C     C_R   0.959598 0.413714 0.411258 0.169046
C35   C     C_R   0.961337 0.322832 0.451892 0.021428
C36   C     C_R   0.675719 0.540732 0.053509 0.032107
C37   C     C_R   0.324297 0.459281 0.946433 0.032143
C38   C     C_R   0.324240 0.947287 0.458996 0.030042
C39   C     C_R   0.675755 0.052725 0.541001 0.030158
C40   C     C_R   0.448683 0.322106 0.966868 0.018045
C41   C     C_R   0.551342 0.677912 0.033059 0.018003
C42   C     C_R   0.951410 0.457212 0.323585 0.027815
C43   C     C_R   0.046741 0.543914 0.676328 0.027080
C44   C     C_R   0.594988 0.051328 0.722762 -0.161611
C45   C     C_R   0.589908 0.585612 0.039981 0.167467
C46   C     C_R   0.405008 0.948681 0.277236 -0.161492
C47   C     C_R   0.054614 0.722500 0.593198 -0.159080
C48   C     C_R   0.947230 0.277350 0.405878 -0.159026
C49   C     C_R   0.721843 0.590059 0.061532 -0.163989
C50   C     C_R   0.278160 0.409947 0.938439 -0.164440
C51   C     C_R   0.278148 0.938978 0.409753 -0.163881
C52   C     C_R   0.721850 0.061029 0.590245 -0.164442
C53   C     C_R   0.404378 0.277037 0.949832 -0.160752
C54   C     C_R   0.595632 0.722970 0.050130 -0.160638
C55   C     C_R   0.941745 0.408622 0.277749 -0.160078
C56   C     C_R   0.410122 0.414410 0.959932 0.167546
C57   C     C_R   0.057091 0.592012 0.722257 -0.160291
C58   C     C_R   0.673965 0.077570 0.673681 0.079453
C59   C     C_R   0.326035 0.922434 0.326320 0.079547
C60   C     C_R   0.076901 0.673970 0.674062 0.076782
C61   C     C_R   0.923239 0.326100 0.325855 0.076876
C62   C     C_R   0.674065 0.673721 0.077404 0.079446
C63   C     C_R   0.325933 0.326280 0.922574 0.079439
C64   C     C_R   0.965890 0.179114 0.436023 0.938973
C65   C     C_R   0.035029 0.820854 0.563536 0.938216
C66   C     C_R   0.179183 0.438295 0.961188 0.936212
H1    H     H_    0.451462 0.224599 0.450507 0.186728
H2    H     H_    0.629314 0.609454 0.809704 0.180784
H3    H     H_    0.370667 0.390630 0.190214 0.180759
H4    H     H_    0.297746 0.494676 0.155763 0.176418
H5    H     H_    0.302088 0.160720 0.485011 0.179917
H6    H     H_    0.378466 0.189843 0.381757 0.180390
H7    H     H_    0.621507 0.810183 0.618251 0.180389
H8    H     H_    0.697890 0.839294 0.514997 0.180003
H9    H     H_    0.555770 0.540923 0.775557 0.186416
H10   H     H_    0.627251 0.436481 0.811683 0.188761
H11   H     H_    0.372778 0.563545 0.188219 0.188637
H12   H     H_    0.376543 0.193565 0.554243 0.191183
H13   H     H_    0.444261 0.459106 0.224347 0.186374
H14   H     H_    0.174001 0.458772 0.316819 0.177890
H15   H     H_    0.189624 0.359670 0.401869 0.179580
H16   H     H_    0.811330 0.641579 0.596080 0.179329
H17   H     H_    0.826737 0.542588 0.681299 0.178162
H18   H     H_    0.414404 0.065298 0.748789 0.232434
H19   H     H_    0.473760 0.950369 0.771945 0.206940
H20   H     H_    0.526217 0.049663 0.228043 0.206930
H21   H     H_    0.585587 0.934737 0.251208 0.232459
H22   H     H_    0.084535 0.745923 0.411510 0.230973
H23   H     H_    0.623444 0.806459 0.445753 0.191117
H24   H     H_    0.967271 0.768713 0.458990 0.212399
H25   H     H_    0.040608 0.229726 0.534601 0.211681
H26   H     H_    0.923911 0.253156 0.587032 0.230536
H27   H     H_    0.740894 0.410230 0.114570 0.230032
H28   H     H_    0.762623 0.436501 0.998915 0.217256
H29   H     H_    0.237401 0.563506 0.001037 0.217423
H30   H     H_    0.259102 0.589780 0.885389 0.230144
H31   H     H_    0.258377 0.888330 0.590147 0.231166
H32   H     H_    0.236792 0.004269 0.561527 0.216262
H33   H     H_    0.763201 0.995739 0.438474 0.216455
H34   H     H_    0.548524 0.775424 0.549489 0.186729
H35   H     H_    0.741621 0.111677 0.409850 0.231250
H36   H     H_    0.584266 0.250330 0.940223 0.231720
H37   H     H_    0.522005 0.226912 0.054374 0.206096
H38   H     H_    0.478028 0.773131 0.945554 0.206083
H39   H     H_    0.415755 0.749674 0.059701 0.231746
H40   H     H_    0.897431 0.589793 0.256850 0.229800
H41   H     H_    0.014638 0.554758 0.234603 0.215941
H42   H     H_    0.979802 0.449481 0.766197 0.215732
H43   H     H_    0.097210 0.410584 0.743806 0.229727
H44   H     H_    0.223866 0.429817 0.473883 0.184828
H45   H     H_    0.207435 0.529226 0.389393 0.187181
H46   H     H_    0.793542 0.471743 0.608967 0.186773
H47   H     H_    0.777037 0.571096 0.524424 0.185286
H48   H     H_    0.702275 0.505412 0.844075 0.176362
I1    I     I_    0.714045 0.155153 0.716602 -0.343323
I2    I     I_    0.285962 0.844836 0.283409 -0.345730
I3    I     I_    0.154693 0.715748 0.715201 -0.366514
I4    I     I_    0.845136 0.284041 0.285393 -0.366469
I5    I     I_    0.713734 0.716639 0.155339 -0.351431
I6    I     I_    0.286234 0.283349 0.844671 -0.349784
N1    N     N_3   0.445026 0.177832 0.515444 -0.442133
N2    N     N_3   0.440648 0.522725 0.175446 -0.442536
N3    N     N_3   0.141759 0.411923 0.370097 -0.464188
N4    N     N_3   0.859094 0.589331 0.627986 -0.464372
N5    N     N_3   0.465172 0.013288 0.721961 -0.451921
N6    N     N_3   0.534811 0.986747 0.278031 -0.451921
N7    N     N_3   0.030615 0.719056 0.456655 -0.452305
N8    N     N_3   0.977345 0.279726 0.539511 -0.452852
N9    N     N_3   0.713216 0.445518 0.059997 -0.445672
N10   N     N_3   0.286797 0.554494 0.939949 -0.445661
N11   N     N_3   0.286107 0.942780 0.553801 -0.445879
N12   N     N_3   0.554961 0.822192 0.484552 -0.442146
N13   N     N_3   0.713888 0.057229 0.446198 -0.445904
N14   N     N_3   0.532130 0.277045 0.991710 -0.452555
N15   N     N_3   0.467901 0.722980 0.008205 -0.452545
N16   N     N_3   0.952199 0.550465 0.284029 -0.450063
N17   N     N_3   0.042624 0.451717 0.716698 -0.450376
N18   N     N_3   0.183171 0.497416 0.458833 -0.442209
N19   N     N_3   0.817775 0.503518 0.539512 -0.442462
N20   N     N_3   0.650867 0.560343 0.865449 -0.466660
N21   N     N_3   0.349148 0.439716 0.134441 -0.466428
N22   N     N_3   0.354190 0.136212 0.432160 -0.468332
N23   N     N_3   0.645789 0.863808 0.567845 -0.468076
N24   N     N_3   0.559382 0.477303 0.824457 -0.442510
O1    O     O_R   0.982940 0.138950 0.510160 -0.651412
O2    O     O_R   0.982940 0.510160 0.138950 -0.650332
O3    O     O_R   0.861050 0.017060 0.489840 -0.650353
O4    O     O_R   0.138950 0.982940 0.510160 -0.651047
O5    O     O_R   0.867700 0.025880 0.612340 -0.587776
O6    O     O_R   0.132300 0.974120 0.387660 -0.588465
O7    O     O_R   0.025880 0.612340 0.867700 -0.588427
O8    O     O_R   0.974120 0.387660 0.132300 -0.588386
O9    O     O_R   0.612340 0.867700 0.025880 -0.588394
O10   O     O_R   0.387660 0.132300 0.974120 -0.588471
O11   O     O_R   0.387660 0.974120 0.132300 -0.588470
O12   O     O_R   0.017060 0.861050 0.489840 -0.651475
O13   O     O_R   0.612340 0.025880 0.867700 -0.588577
O14   O     O_R   0.132300 0.387660 0.974120 -0.588216
O15   O     O_R   0.867700 0.612340 0.025880 -0.588722
O16   O     O_R   0.974120 0.132300 0.387660 -0.588830
O17   O     O_R   0.025880 0.867700 0.612340 -0.588608
O18   O     O_R   0.138950 0.510160 0.982940 -0.648909
O19   O     O_R   0.861050 0.489840 0.017060 -0.649457
O20   O     O_R   0.510160 0.982940 0.138950 -0.652696
O21   O     O_R   0.489840 0.017060 0.861050 -0.652704
O22   O     O_R   0.489840 0.861050 0.017060 -0.652363
O23   O     O_R   0.510160 0.138950 0.982940 -0.652384
O24   O     O_R   0.017060 0.489840 0.861050 -0.650702
Zn1   Zn    Zn3+2 0.004880 0.004880 0.583590 0.989093
Zn2   Zn    Zn3+2 0.995120 0.995120 0.416410 0.988833
Zn3   Zn    Zn3+2 0.004880 0.583590 0.004880 0.988691
Zn4   Zn    Zn3+2 0.995120 0.416410 0.995120 0.988604
Zn5   Zn    Zn3+2 0.583590 0.004880 0.004880 0.990968
Zn6   Zn    Zn3+2 0.416410 0.995120 0.995120 0.990975

loop_
_geom_bond_atom_site_label_1
_geom_bond_atom_site_label_2
_ccdc_geom_bond_type
C16   C28   A    
C7    O24   A    
C11   C18   A    
C30   N18   S    
H38   N15   S    
C64   O1    A    
H20   N6    S    
H19   N5    S    
C34   C42   A    
C1    C31   A    
H8    N23   S    
O7    Zn3   S    
O16   Zn2   S    
C4    O21   A    
H6    N22   S    
C9    C52   S    
H33   N13   S    
H23   N12   S    
O15   Zn3   S    
H15   N3    S    
O5    Zn1   S    
H43   N17   S    
C18   N23   S    
C8    O8    A    
H37   N14   S    
C65   O12   A    
C39   N13   S    
H42   N17   S    
O8    Zn4   S    
C48   C64   S    
C10   C51   S    
H3    N21   S    
O9    Zn5   S    
C33   N7    S    
C23   C43   A    
C37   N10   S    
C66   O18   A    
C42   N16   S    
C34   C35   A    
C32   N6    S    
H12   N1    S    
C19   C26   A    
H11   N2    S    
C47   C60   A    
C37   C56   A    
O18   Zn3   S    
C44   C58   A    
C2    O15   A    
C40   C56   A    
C28   N20   S    
H32   N11   S    
H29   N10   S    
H24   N7    S    
H47   N19   S    
C22   N2    S    
C26   N1    S    
H48   N20   S    
H17   N4    S    
C15   C34   S    
O3    Zn2   S    
O23   Zn5   S    
O17   Zn1   S    
H40   N16   S    
C39   C52   A    
O2    Zn3   S    
C12   C32   A    
C50   C63   A    
H46   N19   S    
C13   C25   A    
C18   C25   A    
C14   C30   A    
H27   N9    S    
C35   C48   A    
H1    N1    S    
C8    C55   S    
H16   N4    S    
C15   C29   A    
C20   C29   A    
C29   N19   S    
H13   N2    S    
O1    Zn1   S    
O22   Zn6   S    
C17   C24   A    
C31   C44   A    
O10   Zn6   S    
C17   C27   A    
C14   C20   A    
C5    C54   S    
H44   N18   S    
H31   N11   S    
H25   N8    S    
C1    C39   A    
C59   I2    S    
C57   C60   A    
C38   C51   A    
C4    C44   S    
C11   C26   A    
C23   C33   A    
O21   Zn6   S    
C40   N14   S    
C9    O3    A    
C14   C23   S    
C21   N3    S    
H36   N14   S    
H41   N16   S    
C2    C49   S    
C42   C55   A    
C4    O13   A    
O24   Zn4   S    
C9    O5    A    
C64   O16   A    
C3    O11   A    
O4    Zn1   S    
O20   Zn5   S    
C5    O22   A    
O19   Zn4   S    
C50   C66   S    
C17   C56   S    
C62   I5    S    
C6    O10   A    
C52   C58   A    
C3    O20   A    
H5    N22   S    
C7    O7    A    
H10   N24   S    
O11   Zn6   S    
C19   N22   S    
C36   C45   A    
C22   C27   A    
C60   I3    S    
C58   I1    S    
C33   C47   A    
H2    N20   S    
C51   C59   A    
C31   N5    S    
C6    C53   S    
O12   Zn2   S    
C41   N15   S    
H30   N10   S    
H7    N23   S    
H18   N5    S    
C6    O23   A    
H26   N8    S    
H4    N21   S    
C16   C22   A    
C49   C62   A    
C61   I4    S    
C32   C46   A    
C8    O2    A    
C66   O14   A    
C24   C28   A    
C2    O19   A    
H34   N12   S    
H35   N13   S    
H22   N7    S    
C54   C62   A    
C21   C30   A    
C3    C46   S    
H39   N15   S    
C38   N11   S    
C36   N9    S    
C10   O6    A    
C63   I6    S    
C53   C63   A    
O14   Zn4   S    
C48   C61   A    
O6    Zn2   S    
C24   N24   S    
C5    O9    A    
C55   C61   A    
C37   C50   A    
C27   N21   S    
C47   C65   S    
C43   N17   S    
C12   C38   A    
C35   N8    S    
C41   C54   A    
C20   N4    S    
H28   N9    S    
H9    N24   S    
C43   C57   A    
C16   C45   S    
C15   C21   A    
C12   C13   S    
C46   C59   A    
O13   Zn5   S    
C40   C53   A    
C65   O17   A    
C13   C19   A    
C41   C45   A    
C1    C11   S    
C25   N12   S    
C7    C57   S    
H21   N6    S    
C36   C49   A    
H45   N18   S    
C10   O4    A    
H14   N3    S    
