data_mof_unit_3813.cif
_audit_creation_date              2012-12-10T19:08:06-0500
_audit_creation_method            fapswitch 2.2
_symmetry_space_group_name_H-M    P1
_symmetry_Int_Tables_number       1
_space_group_crystal_system       triclinic
_cell_length_a                    9.070697
_cell_length_b                    10.848338
_cell_length_c                    9.560481
_cell_angle_alpha                 90.748483
_cell_angle_beta                  89.84211
_cell_angle_gamma                 90.440834
_cell_volume                      940.658894419

loop_
_atom_site_label
_atom_site_type_symbol
_atom_type_description
_atom_site_fract_x
_atom_site_fract_y
_atom_site_fract_z
_atom_type_partial_charge
C1    C     C_R   0.496239 0.262484 0.499127 0.784705
C2    C     C_R   0.476314 0.934140 0.371734 -0.169021
C3    C     C_R   0.483027 0.871269 0.499645 -0.094761
C4    C     C_R   0.465985 0.939165 0.623764 0.122047
C5    C     C_3   0.553076 0.938925 0.756178 -0.474233
C6    C     C_3   0.550122 0.078430 0.754427 -0.433832
C7    C     C_R   0.622254 0.538394 0.073914 0.215308
C8    C     C_R   0.385649 0.450792 0.073843 -0.053482
C9    C     C_R   0.385521 0.451018 0.925226 -0.049687
C10   C     C_R   0.622469 0.536311 0.926292 0.181776
C11   C     C_3   0.695171 0.658427 0.917022 -0.543137
C12   C     C_R   0.220721 0.499650 0.500114 0.834043
C13   C     C_3   0.690722 0.665027 0.075679 0.261128
C14   C     C_R   0.497648 0.737873 0.500499 0.827122
C15   C     C_R   0.779243 0.499080 0.499983 0.885705
C16   C     C_1   0.065560 0.498960 0.500329 -0.156474
C17   C     C_1   0.934415 0.498639 0.500185 -0.118710
C18   C     C_R   0.464418 0.066116 0.622219 0.123326
C19   C     C_R   0.479934 0.129635 0.497257 -0.095247
C20   C     C_R   0.474930 0.062749 0.370515 -0.204143
Cu1   Cu    Cu3+1 0.499990 0.499980 0.640670 0.954030
Cu2   Cu    Cu3+1 0.500010 0.500020 0.359330 0.998323
H1    H     H_    0.477946 0.109079 0.270865 0.169905
H2    H     H_    0.622319 0.725646 0.867710 0.182478
H3    H     H_    0.615312 0.737239 0.116805 0.092812
H4    H     H_    0.479443 0.884874 0.272599 0.166699
H5    H     H_    0.488496 0.900655 0.844761 0.200531
H6    H     H_    0.665859 0.901460 0.740951 0.209249
H7    H     H_    0.483612 0.119413 0.840859 0.200158
H8    H     H_    0.660732 0.121102 0.738719 0.206460
H9    H     H_    0.292005 0.412342 0.128719 0.167376
H10   H     H_    0.291708 0.412887 0.869683 0.151737
H11   H     H_    0.806759 0.651131 0.869444 0.239991
N1    N     N_R   0.500920 0.500930 0.147930 -0.224494
N2    N     N_R   0.500930 0.500890 0.852020 -0.184553
O1    O     O_R   0.500000 0.319640 0.618810 -0.584718
O2    O     O_R   0.500020 0.319680 0.381230 -0.590873
O3    O     O_R   0.288380 0.499980 0.618770 -0.587788
O4    O     O_R   0.288400 0.500020 0.381190 -0.568383
O5    O     O_R   0.499980 0.680320 0.618770 -0.582927
O6    O     O_R   0.500000 0.680360 0.381190 -0.575354
O7    O     O_R   0.711600 0.499980 0.618810 -0.593948
O8    O     O_R   0.711620 0.500020 0.381230 -0.515701
S1    S     S_3+6 0.871277 0.673085 0.151441 0.005566
O9    O     O_2   0.939194 0.547174 0.154932 -0.298327
O10   O     O_2   0.967582 0.757292 0.066465 -0.296371
O11   O     O_3   0.857483 0.731275 0.314728 -0.546182
H12   H     H_    0.960560 0.744525 0.345768 0.361870

loop_
_geom_bond_atom_site_label_1
_geom_bond_atom_site_label_2
_ccdc_geom_bond_type
C7    C10   A    
C20   H1    S    
C10   N2    A    
Cu1   N2    S    
Cu2   O8    S    
C5    H6    S    
O11   H12   S    
S1    O11   S    
C1    O2    A    
C4    C18   A    
C12   O4    A    
C7    C13   S    
C2    C3    A    
C15   O8    A    
C2    H4    S    
Cu1   O1    S    
C8    N1    A    
Cu1   Cu2   S    
C11   C13   S    
C13   H3    S    
C16   C17   T    
C3    C14   S    
C14   O6    A    
Cu2   N1    S    
Cu2   O4    S    
C6    H8    S    
S1    O10   D    
C12   O3    A    
C5    C6    S    
C6    C18   S    
C7    N1    A    
C1    C19   S    
Cu2   O6    S    
C10   C11   S    
Cu1   O3    S    
C2    C20   A    
C3    C4    A    
C12   C16   S    
C11   H2    S    
C11   H11   S    
C6    H7    S    
S1    O9    D    
C15   O7    A    
C15   C17   S    
C18   C19   A    
C9    N2    A    
C8    C9    A    
Cu1   O7    S    
C9    H10   S    
C5    H5    S    
Cu2   O2    S    
C14   O5    A    
C13   S1    S    
C8    H9    S    
C19   C20   A    
C1    O1    A    
C4    C5    S    
Cu1   O5    S    
