data_mof_unit_2931.cif
_audit_creation_date              2012-12-10T18:14:24-0500
_audit_creation_method            fapswitch 2.2
_symmetry_space_group_name_H-M    P1
_symmetry_Int_Tables_number       1
_space_group_crystal_system       triclinic
_cell_length_a                    12.631218
_cell_length_b                    13.172599
_cell_length_c                    19.159868
_cell_angle_alpha                 91.432311
_cell_angle_beta                  102.899919
_cell_angle_gamma                 81.539997
_cell_volume                      3073.55972602

loop_
_atom_site_label
_atom_site_type_symbol
_atom_type_description
_atom_site_fract_x
_atom_site_fract_y
_atom_site_fract_z
_atom_type_partial_charge
C1    C     C_R   0.437974 0.691426 0.490609 0.945257
C2    C     C_R   0.503248 0.500369 0.708946 -0.195366
C3    C     C_R   0.486895 0.511298 0.067412 0.347419
C4    C     C_R   0.491200 0.508438 0.927705 0.332415
C5    C     C_R   0.388813 0.534665 0.166234 0.078907
C6    C     C_R   0.390995 0.536605 0.239720 0.451793
C7    C     C_R   0.492021 0.510023 0.289171 -0.191844
C8    C     C_R   0.590171 0.492513 0.265602 -0.374657
C9    C     C_R   0.589376 0.495252 0.193155 0.200775
C10   C     C_R   0.488258 0.514090 0.143315 -0.058024
C11   C     C_R   0.700707 0.055980 0.447346 0.479969
C12   C     C_R   0.501344 0.499694 0.633739 0.955058
C13   C     C_R   0.597440 0.198716 0.497745 -0.233994
C14   C     C_R   0.301523 0.841178 0.508656 0.525399
C15   C     C_R   0.282192 0.945524 0.523697 -0.234718
C16   C     C_R   0.357572 0.009478 0.517105 -0.256423
C17   C     C_R   0.452906 0.971537 0.491783 0.075385
C18   C     C_R   0.464512 0.869455 0.466919 -0.113810
C19   C     C_R   0.535374 0.032394 0.488423 0.025456
C20   C     C_R   0.624126 0.992806 0.456674 -0.123589
C21   C     C_R   0.629174 0.894468 0.428119 -0.316639
C22   C     C_R   0.544125 0.837139 0.426115 0.551019
C23   C     C_R   0.561340 0.308474 0.505537 0.932569
C24   C     C_R   0.532240 0.131861 0.515855 -0.313879
C25   C     C_R   0.679238 0.161480 0.460161 0.466116
C26   C     C_R   0.397220 0.801786 0.484587 -0.242966
C27   C     C_R   0.091604 0.339253 0.406483 -0.359328
C28   C     C_R   0.799278 0.626120 0.588521 0.566578
C29   C     C_R   0.908635 0.642335 0.616316 0.021442
C30   C     C_R   0.993170 0.587444 0.587658 0.111455
C31   C     C_R   0.966341 0.523487 0.527245 -0.068128
C32   C     C_R   0.856412 0.503729 0.505860 0.049403
C33   C     C_R   0.044414 0.473319 0.489615 0.029060
C34   C     C_R   0.497320 0.503388 0.365650 0.919893
C35   C     C_R   0.014816 0.394519 0.440353 0.122009
C36   C     C_R   0.908325 0.372242 0.424422 -0.216940
C37   C     C_R   0.829955 0.428100 0.455552 -0.097255
C38   C     C_R   0.149782 0.500082 0.496518 -0.099404
C39   C     C_R   0.196707 0.365313 0.418990 0.370219
C40   C     C_R   0.493176 0.410518 0.743014 0.522112
C41   C     C_R   0.491892 0.414002 0.815578 -0.337559
C42   C     C_R   0.495349 0.507052 0.852551 -0.104540
C43   C     C_R   0.506043 0.596804 0.817885 0.566690
C44   C     C_R   0.509146 0.592815 0.745703 -0.355901
H1    H     H_    0.695536 0.863812 0.402968 0.193874
H2    H     H_    0.474044 0.162282 0.547248 0.184210
H3    H     H_    0.337320 0.088617 0.530936 0.148092
H4    H     H_    0.210851 0.976364 0.544167 0.165080
H5    H     H_    0.885341 0.312764 0.386437 0.177917
H6    H     H_    0.070168 0.276749 0.370705 0.153886
H7    H     H_    0.487356 0.344224 0.842854 0.186518
H8    H     H_    0.176444 0.565455 0.526174 0.202908
H9    H     H_    0.749097 0.409304 0.441216 0.241003
H10   H     H_    0.514996 0.662037 0.718189 0.187936
H11   H     H_    0.668320 0.476896 0.303595 0.183807
N1    N     N_R   0.542026 0.427366 0.970607 -0.185073
N2    N     N_R   0.540273 0.428941 0.039576 -0.160714
N3    N     N_R   0.434873 0.591905 0.024486 -0.160489
N4    N     N_R   0.437130 0.590516 0.955553 -0.112549
N5    N     N_R   0.222200 0.444680 0.463280 -0.125700
N6    N     N_R   0.776960 0.554780 0.536340 -0.173022
O1    O     O_R   0.366740 0.627160 0.482470 -0.592097
O2    O     O_R   0.544830 0.662520 0.505920 -0.553002
O3    O     O_R   0.410920 0.482320 0.590130 -0.617070
O4    O     O_R   0.589010 0.517690 0.613590 -0.568374
O5    O     O_R   0.455170 0.337480 0.494080 -0.616593
O6    O     O_R   0.633260 0.372840 0.517530 -0.606536
O7    O     O_R   0.410990 0.482310 0.386410 -0.563021
O8    O     O_R   0.589080 0.517680 0.409870 -0.625208
Zn1   Zn    Zn3+2 0.381090 0.476390 0.484340 0.983351
Zn2   Zn    Zn3+2 0.618910 0.523610 0.515660 1.009205
O9    O     O_3   0.496920 0.317883 0.707215 -0.605822
C45   C     C_3   0.391842 0.287329 0.692609 -0.314510
H12   H     H_    0.395887 0.213037 0.664056 0.186866
H13   H     H_    0.330844 0.343637 0.656819 0.181312
H14   H     H_    0.364023 0.275319 0.742530 0.160388
O10   O     O_3   0.797158 0.014878 0.427381 -0.594661
C46   C     C_3   0.782804 0.016258 0.352158 -0.329565
H15   H     H_    0.697868 0.008065 0.322560 0.129350
H16   H     H_    0.838434 0.950617 0.336695 0.174817
H17   H     H_    0.807647 0.087300 0.334962 0.205898
O11   O     O_3   0.234054 0.776419 0.525798 -0.606897
C47   C     C_3   0.135023 0.787689 0.473252 -0.320501
H18   H     H_    0.150203 0.765364 0.419514 0.159524
H19   H     H_    0.090000 0.867128 0.471563 0.174426
H20   H     H_    0.080829 0.735933 0.486998 0.183396
O12   O     O_3   0.536373 0.750063 0.383768 -0.607867
C48   C     C_3   0.539282 0.772943 0.312496 -0.370465
H21   H     H_    0.625401 0.767473 0.306572 0.178257
H22   H     H_    0.492218 0.849430 0.293841 0.152941
H23   H     H_    0.500766 0.715425 0.276379 0.192378
N7    N     N_2   0.277994 0.308315 0.387344 -0.259860
H24   H     H_    0.299561 0.233845 0.406358 0.213031
C49   C     C_3   0.255581 0.313194 0.310010 -0.761462
H25   H     H_    0.190660 0.266041 0.286296 0.207767
H26   H     H_    0.331478 0.283003 0.291630 0.231649
H27   H     H_    0.228669 0.393606 0.290898 0.295169
O13   O     O_3   0.715506 0.670063 0.620447 -0.587224
C50   C     C_3   0.696202 0.777954 0.611279 -0.272027
H28   H     H_    0.727461 0.805985 0.566365 0.159106
H29   H     H_    0.731191 0.815317 0.661866 0.161884
H30   H     H_    0.606518 0.803694 0.600459 0.188503
N8    N     N_2   0.103808 0.584078 0.626788 -0.294579
H31   H     H_    0.125585 0.653035 0.647034 0.273706
C51   C     C_3   0.141371 0.500729 0.678117 -0.751799
H32   H     H_    0.229580 0.500931 0.703113 0.233858
H33   H     H_    0.131884 0.425890 0.651167 0.238448
H34   H     H_    0.094002 0.510036 0.720831 0.249195
N9    N     N_2   0.935604 0.703747 0.678313 -0.296486
H35   H     H_    0.888032 0.703899 0.715597 0.249657
C52   C     C_3   0.969180 0.801755 0.667339 -0.788521
H36   H     H_    0.905696 0.865661 0.675849 0.232059
H37   H     H_    0.982988 0.809262 0.612447 0.249995
H38   H     H_    0.046678 0.809291 0.706654 0.254846
O14   O     O_3   0.510016 0.689025 0.853736 -0.590955
C53   C     C_3   0.620698 0.704423 0.875301 -0.299502
H39   H     H_    0.657044 0.712912 0.828297 0.165650
H40   H     H_    0.670384 0.641088 0.911010 0.158247
H41   H     H_    0.624341 0.776652 0.906199 0.195732
N10   N     N_2   0.286622 0.550887 0.115267 -0.285239
H42   H     H_    0.227894 0.604567 0.130206 0.253760
C54   C     C_3   0.243992 0.457390 0.089861 -0.742181
H43   H     H_    0.167566 0.476322 0.047915 0.234321
H44   H     H_    0.224896 0.416690 0.134670 0.243896
H45   H     H_    0.304322 0.406056 0.066060 0.242171
O15   O     O_3   0.293303 0.558238 0.262135 -0.609393
C55   C     C_3   0.277394 0.662937 0.280382 -0.316907
H46   H     H_    0.280501 0.713806 0.235546 0.136945
H47   H     H_    0.338271 0.679244 0.329315 0.195809
H48   H     H_    0.194808 0.681868 0.292336 0.184292
N11   N     N_2   0.690685 0.478830 0.170688 -0.284907
H49   H     H_    0.751611 0.430135 0.203902 0.221605
C56   C     C_3   0.728815 0.572151 0.154879 -0.772863
H50   H     H_    0.746306 0.619114 0.204021 0.229994
H51   H     H_    0.666572 0.617816 0.112742 0.248484
H52   H     H_    0.805369 0.552514 0.135005 0.238711
O16   O     O_3   0.728287 0.227517 0.427411 -0.604351
C57   C     C_3   0.658296 0.255800 0.359946 -0.411957
H53   H     H_    0.584709 0.308793 0.366416 0.167472
H54   H     H_    0.630527 0.189084 0.328093 0.155030
H55   H     H_    0.703225 0.295202 0.327968 0.180181

loop_
_geom_bond_atom_site_label_1
_geom_bond_atom_site_label_2
_ccdc_geom_bond_type
O12   C48   S    
O15   C55   S    
C45   H12   S    
C19   C20   A    
C18   C26   A    
C2    C12   S    
C1    O1    A    
C56   H50   S    
C7    C8    A    
O10   C46   S    
N1    N2    A    
C51   H33   S    
C13   C23   S    
C23   O5    A    
C29   N9    S    
C28   C29   A    
C32   N6    A    
N9    C52   S    
C5    C6    A    
C12   O3    A    
C46   H16   S    
C38   H8    S    
C11   C25   A    
C15   C16   A    
C53   H39   S    
O1    Zn1   S    
C41   C42   A    
C23   O6    A    
O8    Zn2   S    
C11   O10   S    
C43   O14   S    
C52   H36   S    
C27   C39   A    
C8    C9    A    
C30   N8    S    
C56   H52   S    
C31   C33   A    
O3    Zn1   S    
C9    C10   A    
C27   H6    S    
C3    N3    A    
C37   H9    S    
C28   N6    A    
N6    Zn2   S    
C21   C22   A    
C4    N1    A    
C45   H13   S    
C13   C25   A    
C15   H4    S    
C1    O2    A    
C8    H11   S    
N10   C54   S    
C21   H1    S    
C9    N11   S    
C51   H34   S    
C11   C20   A    
C5    N10   S    
C6    O15   S    
C52   H37   S    
C2    C44   A    
C16   H3    S    
C46   H15   S    
C16   C17   A    
C49   H27   S    
C27   C35   A    
N3    N4    A    
O4    Zn2   S    
C13   C24   A    
C35   C36   A    
C25   O16   S    
C43   C44   A    
C55   H47   S    
C29   C30   A    
C2    C40   A    
C12   O4    A    
C47   H18   S    
C14   C15   A    
C48   H23   S    
N5    Zn1   S    
C30   C31   A    
C47   H20   S    
N7    C49   S    
C17   C18   A    
N8    C51   S    
C32   C37   A    
C14   C26   A    
C49   H26   S    
C34   O8    A    
C57   H54   S    
C38   N5    A    
C3    N2    A    
C40   C41   A    
C47   H19   S    
O2    Zn2   S    
N11   H49   S    
O13   C50   S    
C1    C26   S    
C45   H14   S    
C42   C43   A    
C14   O11   S    
C34   O7    A    
C55   H46   S    
C39   N7    S    
C7    C34   S    
O16   C57   S    
C28   O13   S    
C36   C37   A    
C40   O9    S    
C50   H29   S    
C20   C21   A    
C18   C22   A    
C31   C32   A    
C48   H22   S    
O9    C45   S    
N11   C56   S    
C57   H55   S    
C22   O12   S    
C6    C7    A    
C51   H32   S    
C33   C38   A    
C53   H41   S    
C24   H2    S    
C54   H45   S    
C19   C24   A    
C55   H48   S    
C5    C10   A    
C3    C10   S    
C50   H28   S    
C46   H17   S    
O5    Zn1   S    
C4    C42   S    
C39   N5    A    
C4    N4    A    
N7    H24   S    
C33   C35   A    
C53   H40   S    
C52   H38   S    
O6    Zn2   S    
C49   H25   S    
C57   H53   S    
C17   C19   A    
C44   H10   S    
C50   H30   S    
C48   H21   S    
O7    Zn1   S    
O11   C47   S    
N8    H31   S    
C56   H51   S    
N10   H42   S    
C54   H43   S    
N9    H35   S    
C54   H44   S    
C41   H7    S    
C36   H5    S    
O14   C53   S    
