data_mof_unit_3779.cif
_audit_creation_date              2012-12-11T15:35:30-0500
_audit_creation_method            fapswitch 2.2
_symmetry_space_group_name_H-M    P1
_symmetry_Int_Tables_number       1
_space_group_crystal_system       triclinic
_cell_length_a                    17.34825
_cell_length_b                    24.326547
_cell_length_c                    14.879427
_cell_angle_alpha                 90.255418
_cell_angle_beta                  125.136372
_cell_angle_gamma                 89.516272
_cell_volume                      5135.06220579

loop_
_atom_site_label
_atom_site_type_symbol
_atom_type_description
_atom_site_fract_x
_atom_site_fract_y
_atom_site_fract_z
_atom_type_partial_charge
C1    C     C_R   0.351021 0.152186 0.908370 -0.075844
C2    C     C_R   0.594072 0.133435 0.911787 -0.072930
C3    C     C_R   0.254337 0.545981 0.304558 -0.147837
C4    C     C_R   0.099059 0.373943 0.909659 -0.067034
C5    C     C_R   0.098525 0.622441 0.908136 -0.105302
C6    C     C_R   0.529885 0.999799 0.702823 0.050188
C7    C     C_R   0.935369 0.500031 0.632252 0.047832
C8    C     C_R   0.798987 0.000310 0.369095 0.016147
C9    C     C_R   0.300738 0.500212 0.368040 0.006027
C10   C     C_R   0.682233 0.146177 0.004842 0.075401
C11   C     C_R   0.684326 0.855018 0.004358 0.093779
C12   C     C_R   0.185601 0.636847 0.999567 0.052852
C13   C     C_R   0.335676 0.854235 0.908771 -0.002558
C14   C     C_R   0.188049 0.360878 0.002655 0.068863
C15   C     C_3   0.022968 0.949443 0.637941 -0.281834
C16   C     C_3   0.021376 0.052577 0.638735 -0.359836
C17   C     C_3   0.522591 0.449213 0.640844 -0.384627
C18   C     C_3   0.521846 0.552331 0.639119 -0.393541
C19   C     C_3   0.917854 0.950144 0.542664 -0.413825
C20   C     C_3   0.917635 0.053277 0.538782 -0.382511
C21   C     C_3   0.418714 0.449027 0.541362 -0.382252
C22   C     C_3   0.417985 0.552335 0.539656 -0.397387
C23   C     C_3   0.063012 0.001588 0.523141 -0.402100
C24   C     C_R   0.852462 0.652537 0.908389 -0.096304
C25   C     C_3   0.565353 0.499724 0.526738 -0.382152
C26   C     C_3   0.072341 0.001218 0.633114 0.281688
C27   C     C_3   0.573050 0.500445 0.635874 0.368478
C28   C     C_3   0.895976 0.000733 0.468160 0.343048
C29   C     C_3   0.397420 0.500275 0.468273 0.369691
C30   C     C_R   0.427577 0.855125 0.094114 -0.150871
C31   C     C_R   0.446502 0.153248 0.091005 -0.127440
C32   C     C_R   0.948558 0.346763 0.091146 -0.152177
C33   C     C_R   0.948651 0.653705 0.090707 -0.151602
C34   C     C_3   0.959861 0.999275 0.426712 -0.369502
C35   C     C_R   0.851909 0.347865 0.908688 -0.090761
C36   C     C_3   0.462613 0.499566 0.428777 -0.390732
C37   C     C_R   0.215188 0.780944 0.958260 0.486856
C38   C     C_R   0.312884 0.278061 0.909890 0.555875
C39   C     C_R   0.811777 0.223232 0.914267 0.483393
C40   C     C_R   0.812278 0.777422 0.909941 0.555965
C41   C     C_R   0.754371 0.183804 0.915146 -0.316888
C42   C     C_R   0.754302 0.816962 0.911221 -0.304443
C43   C     C_R   0.175142 0.732024 0.954757 -0.283210
C44   C     C_R   0.257938 0.320080 0.910766 -0.292207
C45   C     C_R   0.755250 0.176988 0.009109 0.097983
C46   C     C_R   0.686218 0.127635 0.094789 -0.126506
C47   C     C_R   0.759180 0.825827 0.007460 0.073821
C48   C     C_R   0.230602 0.684490 0.997714 0.064940
C49   C     C_R   0.263004 0.330791 0.006585 0.071761
C50   C     C_R   0.823787 0.202728 0.107062 -0.149698
C51   C     C_R   0.833750 0.803377 0.106503 -0.159222
C52   C     C_R   0.327140 0.684892 0.047420 -0.156530
C53   C     C_R   0.334922 0.306600 0.105512 -0.147184
C54   C     C_R   0.368199 0.733667 0.049990 -0.212936
C55   C     C_R   0.385428 0.263243 0.104142 -0.210980
C56   C     C_R   0.878228 0.242762 0.106107 -0.204346
C57   C     C_R   0.687362 0.872853 0.094485 -0.133819
C58   C     C_R   0.889140 0.763191 0.105264 -0.211378
C59   C     C_R   0.311870 0.780890 0.004061 -0.091700
C60   C     C_R   0.366262 0.244099 0.004133 -0.041144
C61   C     C_R   0.864620 0.257965 0.006960 -0.022731
C62   C     C_R   0.869641 0.744502 0.004730 -0.028259
C63   C     C_R   0.596001 0.949918 0.616721 -0.125904
C64   C     C_R   0.595611 0.049547 0.617363 -0.128277
C65   C     C_R   0.891792 0.450574 0.463209 -0.157693
C66   C     C_R   0.891860 0.550133 0.464203 -0.167221
C67   C     C_R   0.609696 0.949992 0.534164 -0.125790
C68   C     C_R   0.188868 0.623648 0.091868 -0.113365
C69   C     C_R   0.609090 0.049604 0.534634 -0.131002
C70   C     C_R   0.891808 0.450729 0.370204 -0.154613
C71   C     C_R   0.892069 0.550230 0.371346 -0.166106
C72   C     C_R   0.603214 0.999861 0.483424 0.091884
C73   C     C_R   0.903071 0.500492 0.331947 0.136673
C74   C     C_R   0.548782 0.045605 0.303612 -0.110160
C75   C     C_R   0.548995 0.954445 0.303494 -0.112095
C76   C     C_R   0.978395 0.546083 0.247034 -0.124952
C77   C     C_R   0.978622 0.454391 0.246983 -0.113230
C78   C     C_R   0.576934 0.999733 0.647979 0.110633
C79   C     C_R   0.188900 0.375356 0.093339 -0.122752
C80   C     C_R   0.901529 0.500248 0.516817 0.132800
C81   C     C_R   0.230388 0.954298 0.747378 -0.077330
C82   C     C_R   0.230711 0.046816 0.748745 -0.142015
C83   C     C_R   0.731246 0.453985 0.751373 -0.135570
C84   C     C_R   0.730943 0.546544 0.751100 -0.140148
C85   C     C_R   0.386560 0.185665 0.999854 0.114972
C86   C     C_R   0.354677 0.829369 0.002502 0.114742
C87   C     C_R   0.889548 0.686207 0.999825 0.113232
C88   C     C_R   0.888171 0.314752 0.000629 0.108261
C89   C     C_R   0.567587 0.000007 0.368172 0.039990
C90   C     C_R   0.595299 0.867218 0.911688 -0.140716
C91   C     C_R   0.946664 0.500381 0.272247 0.038046
C92   C     C_R   0.174043 0.000860 0.720386 0.041284
C93   C     C_R   0.674598 0.500424 0.724312 -0.005250
C94   C     C_R   0.502744 0.045478 0.733397 -0.128464
C95   C     C_R   0.502619 0.954321 0.732816 -0.126669
C96   C     C_R   0.951001 0.545487 0.696346 -0.136324
C97   C     C_R   0.951293 0.454511 0.696197 -0.138205
C98   C     C_R   0.753792 0.954358 0.305847 -0.146129
C99   C     C_R   0.753039 0.045953 0.305371 -0.152220
C100  C     C_R   0.254513 0.454294 0.305385 -0.147234
H1    H     H_    0.307941 0.164330 0.823546 0.171705
H2    H     H_    0.870373 0.055752 0.566667 0.179279
H3    H     H_    0.371809 0.448847 0.569822 0.176182
H4    H     H_    0.371071 0.553542 0.568092 0.161993
H5    H     H_    0.901873 0.911058 0.496457 0.160398
H6    H     H_    0.905970 0.090921 0.490309 0.158965
H7    H     H_    0.406170 0.410438 0.494711 0.153856
H8    H     H_    0.404945 0.590418 0.491782 0.153364
H9    H     H_    0.101013 0.965790 0.518420 0.158103
H10   H     H_    0.095108 0.039496 0.516667 0.172244
H11   H     H_    0.601335 0.462634 0.522670 0.164266
H12   H     H_    0.291906 0.838593 0.825759 0.087528
H13   H     H_    0.600577 0.536381 0.521368 0.163202
H14   H     H_    0.947342 0.960969 0.378885 0.161077
H15   H     H_    0.943528 0.034659 0.370932 0.163756
H16   H     H_    0.449180 0.462345 0.377899 0.160521
H17   H     H_    0.448465 0.536135 0.376387 0.160621
H18   H     H_    0.707808 0.159509 0.842163 0.147806
H19   H     H_    0.704086 0.839490 0.836769 0.160804
H20   H     H_    0.100591 0.730986 0.920353 0.207278
H21   H     H_    0.209744 0.343094 0.836264 0.167978
H22   H     H_    0.829604 0.196679 0.182644 0.119103
H23   H     H_    0.809360 0.664643 0.823488 0.173320
H24   H     H_    0.844055 0.812016 0.183989 0.116439
H25   H     H_    0.369587 0.647978 0.083211 0.127370
H26   H     H_    0.345925 0.316144 0.183009 0.118147
H27   H     H_    0.443135 0.734660 0.086185 0.142161
H28   H     H_    0.431133 0.241484 0.180692 0.137676
H29   H     H_    0.921931 0.265774 0.181326 0.135808
H30   H     H_    0.938245 0.742602 0.182298 0.131255
H31   H     H_    0.591192 0.910749 0.647170 0.120738
H32   H     H_    0.590601 0.088703 0.648364 0.110175
H33   H     H_    0.893306 0.411301 0.497843 0.120950
H34   H     H_    0.808172 0.335535 0.823940 0.181289
H35   H     H_    0.893372 0.589346 0.499522 0.113140
H36   H     H_    0.465300 0.842165 0.178946 0.106720
H37   H     H_    0.495961 0.166808 0.174670 0.094210
H38   H     H_    0.999084 0.332925 0.174515 0.102655
H39   H     H_    0.999226 0.667269 0.174080 0.095010
H40   H     H_    0.613354 0.910798 0.502300 0.127925
H41   H     H_    0.612133 0.088824 0.503020 0.122485
H42   H     H_    0.893404 0.411565 0.336722 0.115098
H43   H     H_    0.894029 0.589445 0.338882 0.110082
H44   H     H_    0.565757 0.087888 0.329911 0.088949
H45   H     H_    0.031384 0.947712 0.717873 0.228649
H46   H     H_    0.566389 0.912114 0.329643 0.088784
H47   H     H_    0.967652 0.588919 0.256271 0.094832
H48   H     H_    0.968305 0.411671 0.256246 0.098025
H49   H     H_    0.208298 0.912197 0.727623 0.112254
H50   H     H_    0.209567 0.089435 0.732477 0.107112
H51   H     H_    0.710251 0.411512 0.735562 0.105167
H52   H     H_    0.709571 0.589140 0.735270 0.103686
H53   H     H_    0.500095 0.087242 0.708842 0.086647
H54   H     H_    0.499647 0.912636 0.707152 0.087091
H55   H     H_    0.932866 0.587686 0.669451 0.094539
H56   H     H_    0.025395 0.051935 0.716106 0.184955
H57   H     H_    0.933656 0.412382 0.669031 0.107773
H58   H     H_    0.766558 0.912030 0.332464 0.091752
H59   H     H_    0.764520 0.088360 0.331439 0.093948
H60   H     H_    0.267286 0.411997 0.332271 0.095146
H61   H     H_    0.266805 0.588493 0.329962 0.089959
H62   H     H_    0.743221 0.131224 0.180456 0.092869
H63   H     H_    0.744591 0.869291 0.180085 0.092295
H64   H     H_    0.243853 0.633682 0.176201 0.101292
H65   H     H_    0.245851 0.371225 0.178866 0.092088
H66   H     H_    0.566328 0.853125 0.829600 0.094566
H67   H     H_    0.527057 0.449446 0.718502 0.171735
H68   H     H_    0.564667 0.147811 0.829757 0.085157
H69   H     H_    0.073025 0.367841 0.824710 0.106156
H70   H     H_    0.069927 0.631382 0.823233 0.107300
H71   H     H_    0.054159 0.911495 0.629475 0.180502
H72   H     H_    0.054401 0.091276 0.637916 0.163758
H73   H     H_    0.555767 0.410445 0.638850 0.158965
H74   H     H_    0.554479 0.590622 0.635792 0.159600
H75   H     H_    0.224938 0.893945 0.042792 0.340996
H76   H     H_    0.409429 0.234511 0.757714 0.364675
H77   H     H_    0.670166 0.235834 0.678930 0.328895
H78   H     H_    0.526329 0.553154 0.716780 0.161953
H79   H     H_    0.907289 0.740021 0.752832 0.374256
H80   H     H_    0.874058 0.951680 0.575309 0.189255
N1    N     N_R   0.392140 0.102630 0.941800 -0.053001
N2    N     N_R   0.525160 0.972040 0.206160 -0.035714
N3    N     N_R   0.025160 0.527960 0.206160 -0.040462
N4    N     N_R   0.025160 0.472040 0.206160 -0.040470
N5    N     N_R   0.317870 0.971120 0.792790 -0.052040
N6    N     N_R   0.317870 0.028880 0.792790 -0.043123
N7    N     N_R   0.817870 0.471120 0.792790 -0.038636
N8    N     N_R   0.817870 0.528880 0.792790 -0.039198
N9    N     N_R   0.473480 0.027920 0.793480 -0.041873
N10   N     N_R   0.473480 0.972080 0.793480 -0.042720
N11   N     N_R   0.973480 0.527920 0.793480 -0.042856
N12   N     N_R   0.392140 0.897370 0.941800 -0.051447
N13   N     N_R   0.973480 0.472080 0.793480 -0.045030
N14   N     N_R   0.681610 0.971120 0.207570 -0.034645
N15   N     N_R   0.681610 0.028880 0.207570 -0.035553
N16   N     N_R   0.181610 0.471120 0.207570 -0.037153
N17   N     N_R   0.181610 0.528880 0.207570 -0.036596
N18   N     N_R   0.605410 0.102620 0.056870 -0.042654
N19   N     N_R   0.605410 0.897380 0.056870 -0.044301
N20   N     N_R   0.105410 0.602620 0.056870 -0.041482
N21   N     N_R   0.105410 0.397380 0.056870 -0.043288
N22   N     N_R   0.549680 0.896430 0.944180 -0.045891
N23   N     N_R   0.892140 0.602630 0.941800 -0.052858
N24   N     N_R   0.549680 0.103570 0.944180 -0.038427
N25   N     N_R   0.049680 0.396430 0.944180 -0.040286
N26   N     N_R   0.049680 0.603570 0.944180 -0.035810
N27   N     N_R   0.892140 0.397370 0.941800 -0.053892
N28   N     N_R   0.450890 0.896450 0.057150 -0.041872
N29   N     N_R   0.450890 0.103550 0.057150 -0.044702
N30   N     N_R   0.950890 0.396450 0.057150 -0.046128
N31   N     N_R   0.950890 0.603550 0.057150 -0.045175
N32   N     N_R   0.525160 0.027960 0.206160 -0.037958
Ni1   Ni    Ni4+2 0.433410 0.064680 0.868830 0.242590
Ni2   Ni    Ni4+2 0.433410 0.935320 0.868830 0.214983
Ni3   Ni    Ni4+2 0.933410 0.564680 0.868830 0.232016
Ni4   Ni    Ni4+2 0.933410 0.435320 0.868830 0.246814
Ni5   Ni    Ni4+2 0.565650 0.934380 0.131170 0.214751
Ni6   Ni    Ni4+2 0.565650 0.065620 0.131170 0.220985
Ni7   Ni    Ni4+2 0.065650 0.434380 0.131170 0.218581
Ni8   Ni    Ni4+2 0.065650 0.565620 0.131170 0.212321
O1    O     O_2   0.100906 0.842726 0.783182 -0.325267
O2    O     O_2   0.728956 0.746446 0.701013 -0.355649
O3    O     O_2   0.817228 0.832328 0.758602 -0.247720
O4    O     O_3   0.912857 0.740995 0.822926 -0.545429
O5    O     O_2   0.061991 0.835380 0.916258 -0.225342
O6    O     O_3   0.201084 0.898211 0.964619 -0.524263
O7    O     O_2   0.232636 0.245630 0.702240 -0.335067
O8    O     O_2   0.321767 0.331165 0.759544 -0.282749
O9    O     O_3   0.416701 0.239713 0.828282 -0.562817
O10   O     O_2   0.908240 0.252013 0.830451 -0.271649
O11   O     O_2   0.820774 0.165882 0.766627 -0.278933
O12   O     O_3   0.725277 0.256769 0.694298 -0.553914
S1    S     S_3+6 0.141542 0.840041 0.903418 -0.049509
S2    S     S_3+6 0.318998 0.273973 0.795399 -0.073633
S3    S     S_3+6 0.819568 0.223970 0.800762 -0.055470
S4    S     S_3+6 0.815830 0.774671 0.793577 -0.052183

loop_
_geom_bond_atom_site_label_1
_geom_bond_atom_site_label_2
_ccdc_geom_bond_type
N26   Ni3   S    
C58   C62   A    
C24   N23   A    
N3    Ni8   S    
C31   C85   A    
C22   C29   S    
C99   H59   S    
C18   H74   S    
C53   C55   A    
C11   C47   S    
C50   H22   S    
C40   S4    S    
N23   N31   A    
H77   O12   S    
C22   H8    S    
C24   H23   S    
C22   H4    S    
C4    N25   A    
C39   C41   A    
C15   C19   S    
C7    C96   A    
C12   C68   A    
C29   C36   S    
O2    S4    D    
C13   N12   A    
N32   Ni6   S    
C82   N6    A    
N29   Ni6   S    
C96   N11   A    
N23   Ni3   S    
C8    C99   A    
C33   H39   S    
C13   H12   S    
C81   H49   S    
C42   H19   S    
C46   N18   A    
C14   C49   S    
C20   H2    S    
C65   H33   S    
C69   H41   S    
C65   C70   A    
C83   C93   A    
N6    Ni1   S    
C99   N15   A    
C44   H21   S    
C77   N4    A    
C82   C92   A    
N5    Ni2   S    
C98   N14   A    
C6    C78   S    
N1    N29   A    
C67   C72   A    
C23   C26   S    
C97   N13   A    
O9    S2    S    
O7    S2    D    
C8    C98   A    
C95   N10   A    
N11   Ni3   S    
C5    N26   A    
C81   C92   A    
C52   H25   S    
N4    Ni7   S    
C36   H17   S    
C98   H58   S    
N25   Ni4   S    
C17   H73   S    
C79   N21   A    
N19   Ni5   S    
C13   C86   A    
C16   H56   S    
N19   N22   A    
C5    H70   S    
N21   N25   A    
C63   H31   S    
C41   H18   S    
C30   C86   A    
C76   N3    A    
C43   C48   A    
O8    S2    D    
C56   H29   S    
C12   C48   S    
C43   H20   S    
C42   C47   A    
C68   H64   S    
N14   N15   A    
N17   Ni8   S    
C40   C62   A    
C28   C34   S    
C65   C80   A    
C55   C60   A    
C57   N19   A    
C16   C26   S    
C51   H24   S    
N12   N28   A    
C83   N7    A    
N18   Ni6   S    
C10   C45   S    
C39   C61   A    
C35   H34   S    
C81   N5    A    
N8    Ni3   S    
C52   C54   A    
C38   C44   A    
N14   Ni5   S    
C83   H51   S    
C54   C59   A    
C100  N16   A    
C75   H46   S    
C1    C85   A    
C34   H14   S    
C23   H9    S    
C63   C67   A    
C70   H42   S    
C4    H69   S    
C21   H3    S    
O4    S4    S    
C57   H63   S    
C17   C27   S    
C64   H32   S    
C2    N24   A    
N21   Ni7   S    
C5    C12   A    
C17   H67   S    
C15   H45   S    
C20   H6    S    
C1    N1    A    
N16   N17   A    
C15   C26   S    
C47   C51   A    
C20   C28   S    
C6    C94   A    
C34   H15   S    
C64   C69   A    
C21   C29   S    
N24   Ni1   S    
C44   C49   A    
C17   C21   S    
N30   Ni7   S    
C74   N32   A    
C97   H57   S    
C76   C91   A    
C37   C43   A    
C69   C72   A    
N3    N4    A    
N11   N13   A    
C32   H38   S    
C3    C9    A    
C61   C88   S    
C25   H13   S    
N27   N30   A    
C32   N30   A    
C35   C88   A    
C16   H72   S    
C66   C71   A    
C31   N29   A    
N31   Ni8   S    
C16   C20   S    
C23   C34   S    
C30   N28   A    
C70   C73   A    
N2    N32   A    
C15   H71   S    
O10   S3    D    
N12   Ni2   S    
C51   C58   A    
C82   H50   S    
C14   C79   A    
C79   H65   S    
C19   C28   S    
H75   O6    S    
C77   H48   S    
C73   C91   S    
C37   C59   A    
N9    Ni1   S    
N2    Ni5   S    
C38   C60   A    
C19   H5    S    
C35   N27   A    
C21   H7    S    
C9    C100  A    
C30   H36   S    
N10   Ni2   S    
N18   N24   A    
N20   Ni8   S    
C53   H26   S    
C27   C93   S    
C32   C88   A    
C8    C28   S    
C36   H16   S    
C2    H68   S    
C10   C46   A    
N16   Ni7   S    
C74   C89   A    
N13   Ni4   S    
C71   C73   A    
C54   H27   S    
N28   Ni5   S    
C23   H10   S    
C74   H44   S    
N7    Ni4   S    
C77   C91   A    
N20   N26   A    
C7    C97   A    
O1    S1    D    
C18   C22   S    
C64   C78   A    
C84   H52   S    
C18   C27   S    
C100  H60   S    
C38   S2    S    
O11   S3    D    
C60   C85   S    
C76   H47   S    
C37   S1    S    
C9    C29   S    
C25   C27   S    
C66   C80   A    
C62   C87   S    
C25   H11   S    
H79   O4    S    
C68   N20   A    
C95   H54   S    
O5    S1    D    
C33   C87   A    
C94   N9    A    
C31   H37   S    
N7    N8    A    
C39   S3    S    
C72   C89   S    
C33   N31   A    
C11   C90   A    
N5    N6    A    
C71   H43   S    
C1    H1    S    
C45   C50   A    
C58   H30   S    
C94   H53   S    
C49   C53   A    
H76   O9    S    
C40   C42   A    
N27   Ni4   S    
C3    N17   A    
C84   C93   A    
O12   S3    S    
C4    C14   A    
N9    N10   A    
C24   C87   A    
C50   C56   A    
C59   C86   S    
C84   N8    A    
O3    S4    D    
C3    H61   S    
C25   C36   S    
C66   H35   S    
C96   H55   S    
C48   C52   A    
C55   H28   S    
C18   H78   S    
N22   Ni2   S    
C6    C95   A    
C46   H62   S    
C75   C89   A    
O6    S1    S    
C67   H40   S    
C41   C45   A    
C56   C61   A    
N1    Ni1   S    
C11   C57   A    
C75   N2    A    
C26   C92   S    
C19   H80   S    
N15   Ni6   S    
C90   H66   S    
C7    C80   S    
C90   N22   A    
C63   C78   A    
C2    C10   A    
