data_mof_unit_4483.cif
_audit_creation_date              2012-12-10T17:48:53-0500
_audit_creation_method            fapswitch 2.2
_symmetry_space_group_name_H-M    P1
_symmetry_Int_Tables_number       1
_space_group_crystal_system       triclinic
_cell_length_a                    10.720769
_cell_length_b                    14.699757
_cell_length_c                    14.764772
_cell_angle_alpha                 64.742642
_cell_angle_beta                  103.627712
_cell_angle_gamma                 103.129897
_cell_volume                      2023.79750809

loop_
_atom_site_label
_atom_site_type_symbol
_atom_type_description
_atom_site_fract_x
_atom_site_fract_y
_atom_site_fract_z
_atom_type_partial_charge
C1    C     C_R   0.481698 0.119833 0.312235 0.801650
C2    C     C_3   0.878301 0.000413 0.500038 0.148761
C3    C     C_3   0.922608 0.898884 0.580095 -0.382708
C4    C     C_3   0.964890 0.089142 0.526096 -0.364223
C5    C     C_R   0.483503 0.187202 0.204790 -0.062743
C6    C     C_R   0.551768 0.812016 0.795051 -0.055906
C7    C     C_R   0.452302 0.215355 0.027548 -0.197233
C8    C     C_R   0.447549 0.149352 0.128448 -0.192631
C9    C     C_R   0.526893 0.290865 0.179312 -0.216133
C10   C     C_R   0.532481 0.359163 0.078353 0.112693
C11   C     C_R   0.492300 0.319948 0.001817 0.160797
C12   C     C_R   0.260010 0.000349 0.499946 0.762769
C13   C     C_R   0.570481 0.465674 0.051201 0.026509
C14   C     C_R   0.552620 0.532315 0.947344 0.065092
C15   C     C_R   0.519700 0.489948 0.873260 -0.204686
C16   C     C_R   0.491171 0.385589 0.900405 -0.225306
C17   C     C_R   0.625138 0.507597 0.124401 -0.232198
C18   C     C_R   0.648503 0.611870 0.098589 0.232755
C19   C     C_R   0.617921 0.678645 0.997357 0.098989
C20   C     C_R   0.569029 0.638994 0.921125 0.048852
C21   C     C_R   0.634853 0.784349 0.970428 -0.146504
C22   C     C_R   0.603061 0.850353 0.870119 -0.216234
C23   C     C_R   0.524437 0.880016 0.687746 0.793756
C24   C     C_R   0.532995 0.707189 0.821277 -0.232877
C25   C     C_R   0.727370 0.290495 0.659092 -0.317579
C26   C     C_R   0.689968 0.206862 0.632711 0.077228
C27   C     C_R   0.515925 0.283999 0.511631 -0.019685
C28   C     C_R   0.556524 0.375752 0.527675 -0.028226
C29   C     C_R   0.659932 0.374388 0.607968 0.182979
C30   C     C_R   0.494959 0.466003 0.471435 -0.011980
C31   C     C_R   0.524965 0.545445 0.508955 0.089165
C32   C     C_R   0.624661 0.537319 0.592759 -0.218141
C33   C     C_R   0.693235 0.455254 0.638714 -0.188196
C34   C     C_R   0.740105 0.999980 0.499998 0.752978
C35   C     C_R   0.407762 0.482059 0.378196 -0.023576
C36   C     C_R   0.333293 0.561352 0.337797 -0.155099
C37   C     C_R   0.355985 0.635134 0.377579 0.111126
C38   C     C_R   0.455919 0.631366 0.460381 -0.012332
C39   C     C_R   0.284683 0.716920 0.330138 -0.283815
C40   C     C_R   0.315687 0.796611 0.362275 0.085189
C41   C     C_R   0.483161 0.715613 0.489092 0.019361
C42   C     C_3   0.042131 0.014340 0.394062 -0.377875
C43   C     C_3   0.898059 0.014018 0.394067 -0.368237
C44   C     C_3   0.066688 0.899178 0.580185 -0.369838
C45   C     C_3   0.107723 0.089423 0.526061 -0.369644
C46   C     C_3   0.122220 0.000869 0.500077 0.146102
Cu1   Cu    Cu3+1 0.465900 0.918260 0.475680 0.933029
Cu2   Cu    Cu3+1 0.534100 0.081740 0.524320 0.930767
H1    H     H_    0.050453 0.951800 0.373235 0.176015
H2    H     H_    0.953023 0.081373 0.602122 0.164952
H3    H     H_    0.122902 0.888319 0.656889 0.154016
H4    H     H_    0.909017 0.887853 0.656762 0.152901
H5    H     H_    0.464656 0.356323 0.841281 0.147215
H6    H     H_    0.487205 0.680219 0.762433 0.150260
H7    H     H_    0.619061 0.931386 0.851394 0.154729
H8    H     H_    0.422724 0.184860 0.969378 0.135410
H9    H     H_    0.415274 0.069065 0.146550 0.157521
H10   H     H_    0.553028 0.316786 0.239853 0.147450
H11   H     H_    0.080494 0.087145 0.335560 0.162436
H12   H     H_    0.517648 0.535394 0.793314 0.138146
H13   H     H_    0.654335 0.461171 0.202903 0.161650
H14   H     H_    0.672972 0.817180 0.026189 0.184333
H15   H     H_    0.770696 0.453593 0.701455 0.142011
H16   H     H_    0.560211 0.721286 0.548856 0.116927
H17   H     H_    0.262965 0.860988 0.324130 0.123224
H18   H     H_    0.263733 0.570770 0.268976 0.184827
H19   H     H_    0.808274 0.289483 0.719330 0.138597
H20   H     H_    0.742920 0.142622 0.671046 0.119391
H21   H     H_    0.427290 0.272860 0.462665 0.130628
H22   H     H_    0.866615 0.086655 0.335550 0.157599
H23   H     H_    0.653477 0.593938 0.624625 0.123034
H24   H     H_    0.207721 0.720591 0.266658 0.151727
H25   H     H_    0.837697 0.951280 0.373357 0.185100
H26   H     H_    0.075541 0.834095 0.563468 0.179982
H27   H     H_    0.862728 0.833764 0.563225 0.173876
H28   H     H_    0.164120 0.081747 0.602046 0.171200
H29   H     H_    0.146571 0.163662 0.469552 0.179249
H30   H     H_    0.935447 0.163335 0.469649 0.180063
N1    N     N_R   0.585360 0.204570 0.560800 -0.174711
N2    N     N_R   0.414550 0.795430 0.439160 -0.179741
O1    O     O_R   0.455060 0.022100 0.338110 -0.586197
O2    O     O_R   0.512640 0.160150 0.379180 -0.584275
O3    O     O_R   0.288900 0.930980 0.479450 -0.588146
O4    O     O_R   0.346480 0.069030 0.520520 -0.587938
O5    O     O_R   0.487360 0.839850 0.620820 -0.589766
O6    O     O_R   0.544940 0.977900 0.661890 -0.585111
O7    O     O_R   0.653520 0.930970 0.479480 -0.585459
O8    O     O_R   0.711100 0.069020 0.520550 -0.592643
Br1   Br    Br    0.718603 0.657343 0.207316 -0.576534
C47   C     C_2   0.408824 0.430716 0.311152 0.358254
H31   H     H_    0.494829 0.400608 0.317166 0.068790
O9    O     O_2   0.315462 0.423553 0.247378 -0.547936

loop_
_geom_bond_atom_site_label_1
_geom_bond_atom_site_label_2
_ccdc_geom_bond_type
C43   H25   S    
C15   H12   S    
C19   C20   A    
C25   H19   S    
C41   N2    A    
C7    C8    A    
C45   C46   S    
C4    H30   S    
C30   C35   A    
C45   H28   S    
C1    C5    S    
Cu1   O5    S    
Cu2   N1    S    
C36   C37   A    
C19   C21   A    
C18   C19   A    
C27   N1    A    
C30   C31   A    
C36   H18   S    
C24   H6    S    
C15   C16   A    
C6    C22   A    
C29   C33   A    
C12   O4    A    
C9    H10   S    
C42   C46   S    
C20   C24   A    
C16   H5    S    
C17   H13   S    
C31   C32   A    
C23   O6    A    
C39   H24   S    
Cu2   O8    S    
Cu1   O3    S    
C3    H27   S    
C9    C10   A    
C27   H21   S    
C2    C34   S    
C21   C22   A    
Cu1   N2    S    
C44   C46   S    
C7    C11   A    
C32   H23   S    
C4    C45   S    
C25   C29   A    
C3    C44   S    
C14   C20   A    
C38   C41   A    
C12   C46   S    
C39   C40   A    
C1    O2    A    
Cu2   O4    S    
C12   O3    A    
C4    H2    S    
C35   C36   A    
Cu1   O7    S    
C2    C4    S    
C5    C9    A    
C37   C38   A    
C8    H9    S    
C11   C16   A    
C47   O9    D    
Cu1   Cu2   S    
C2    C43   S    
C33   H15   S    
C6    C24   A    
C40   N2    A    
C17   C18   A    
C34   O8    A    
C44   H26   S    
C21   H14   S    
C44   H3    S    
C43   H22   S    
C40   H17   S    
Cu2   O6    S    
C42   C43   S    
C28   C29   A    
C18   Br1   S    
C10   C13   A    
C42   H11   S    
C5    C8    A    
C3    H4    S    
C22   H7    S    
C26   N1    A    
C31   C38   A    
C13   C17   A    
C26   H20   S    
C32   C33   A    
C28   C30   A    
C2    C3    S    
C25   C26   A    
C37   C39   A    
C47   H31   S    
C6    C23   S    
Cu2   O2    S    
C7    H8    S    
C34   O7    A    
Cu1   O1    S    
C10   C11   A    
C42   H1    S    
C35   C47   S    
C23   O5    A    
C27   C28   A    
C14   C15   A    
C45   H29   S    
C41   H16   S    
C13   C14   A    
C1    O1    A    
