data_mof_unit_1495.cif
_audit_creation_date              2012-12-11T15:13:51-0500
_audit_creation_method            fapswitch 2.2
_symmetry_space_group_name_H-M    P1
_symmetry_Int_Tables_number       1
_space_group_crystal_system       triclinic
_cell_length_a                    6.951133
_cell_length_b                    13.583571
_cell_length_c                    20.077848
_cell_angle_alpha                 103.879399
_cell_angle_beta                  88.516196
_cell_angle_gamma                 90.909071
_cell_volume                      1839.71519463

loop_
_atom_site_label
_atom_site_type_symbol
_atom_type_description
_atom_site_fract_x
_atom_site_fract_y
_atom_site_fract_z
_atom_type_partial_charge
O1    O     O_R   0.506780 0.600060 0.449950 -0.534429
O2    O     O_R   0.179840 0.597110 0.589410 -0.553842
O3    O     O_R   0.004570 0.399940 0.550050 -0.539834
C1    C     C_R   0.346472 0.617945 0.617068 0.716153
O4    O     O_R   0.177380 0.612160 0.452890 -0.548505
O5    O     O_R   0.002100 0.415100 0.412560 -0.540727
C2    C     C_R   0.347172 0.638333 0.435917 0.704883
O6    O     O_R   0.509250 0.584900 0.587440 -0.535461
O7    O     O_3   0.337570 0.435330 0.486930 -0.372200
V1    V     V_3+5 0.064650 0.512000 0.502430 1.394062
O8    O     O_R   0.672090 0.402890 0.410590 -0.543323
C3    C     C_R   0.841895 0.381164 0.383043 0.676383
O9    O     O_R   0.674540 0.387840 0.547110 -0.543093
C4    C     C_R   0.839701 0.361884 0.564482 0.699476
V2    V     V_3+5 0.564040 0.488000 0.497570 1.417238
O10   O     O_3   0.840990 0.564670 0.513070 -0.373413
C5    C     C_R   0.622502 0.151241 0.628380 -0.154057
H1    H     H_    0.634130 0.191319 0.532278 0.109295
H2    H     H_    0.517628 0.049742 0.719954 0.164785
H3    H     H_    0.507646 0.097221 0.612191 0.115439
C6    C     C_R   0.826332 0.285055 0.604678 -0.049281
C7    C     C_R   0.990302 0.306989 0.926799 -0.160061
C8    C     C_R   0.039022 0.376508 0.888328 -0.120179
C9    C     C_R   0.985170 0.359145 0.820205 -0.159921
C10   C     C_R   0.873921 0.272810 0.789643 0.073350
C11   C     C_R   0.811317 0.205858 0.831249 0.072887
C12   C     C_R   0.821922 0.250722 0.719245 0.062934
C13   C     C_R   0.688831 0.170444 0.695184 0.141803
C14   C     C_R   0.620003 0.110337 0.738011 -0.216924
C15   C     C_R   0.685853 0.124921 0.803954 -0.222352
C16   C     C_R   0.892265 0.306746 0.672156 -0.227613
C17   C     C_R   0.694024 0.205763 0.583081 -0.167764
C18   C     C_R   0.878869 0.220687 0.898880 -0.092482
H4    H     H_    0.989510 0.370407 0.687141 0.111298
H5    H     H_    0.044058 0.319244 0.978374 0.107414
H6    H     H_    0.030068 0.415530 0.793190 0.126652
H7    H     H_    0.124407 0.442968 0.910864 0.120608
H8    H     H_    0.632759 0.072802 0.833201 0.149321
C19   C     C_3   0.675337 0.225318 0.229602 -0.115637
C20   C     C_3   0.766992 0.202773 0.293850 -0.137379
H9    H     H_    0.693746 0.163968 0.330379 0.100899
H10   H     H_    0.526082 0.204810 0.212681 0.107451
C21   C     C_3   0.851879 0.311103 0.312319 -0.007639
C22   C     C_3   0.760059 0.334448 0.248848 -0.137957
C23   C     C_3   0.945192 0.297246 0.206104 -0.140439
C24   C     C_3   0.036886 0.274656 0.270339 -0.121023
C25   C     C_3   0.952049 0.165578 0.251099 -0.140386
C26   C     C_3   0.860410 0.188926 0.187642 -0.006429
H11   H     H_    0.680857 0.404577 0.248276 0.097474
H12   H     H_    0.018419 0.335962 0.169524 0.099350
H13   H     H_    0.186200 0.294963 0.287257 0.107929
H14   H     H_    0.030387 0.095250 0.251476 0.105123
C27   C     C_3   0.455135 0.792486 0.703917 0.028729
C28   C     C_3   0.279515 0.838034 0.748752 0.266450
C29   C     C_3   0.366826 0.812170 0.812231 -0.117064
C30   C     C_3   0.545297 0.766438 0.767554 -0.243572
C31   C     C_3   0.441973 0.661199 0.749587 -0.190699
C32   C     C_3   0.266191 0.708476 0.793273 0.318237
C33   C     C_3   0.171733 0.734409 0.730991 -0.173754
C34   C     C_3   0.350907 0.688479 0.687229 -0.119077
H15   H     H_    0.697462 0.780856 0.782052 0.122778
H16   H     H_    0.507258 0.587315 0.750081 0.121606
H17   H     H_    0.018477 0.719440 0.719237 0.107066
C35   C     C_R   0.287211 0.887832 0.391031 -0.182503
H18   H     H_    0.260288 0.834784 0.483025 0.104766
H19   H     H_    0.277804 0.013744 0.308954 0.116277
H20   H     H_    0.249773 0.964740 0.417351 0.108047
C36   C     C_R   0.353717 0.716251 0.396907 -0.022960
C37   C     C_R   0.376830 0.681550 0.066798 -0.170247
C38   C     C_R   0.387948 0.605627 0.102144 -0.120570
C39   C     C_R   0.382473 0.629654 0.173660 -0.161711
C40   C     C_R   0.363550 0.731388 0.211900 0.077457
C41   C     C_R   0.346409 0.808570 0.175232 0.071796
C42   C     C_R   0.356391 0.758815 0.285185 0.073099
C43   C     C_R   0.317126 0.861042 0.319675 0.153519
C44   C     C_R   0.303273 0.935347 0.282703 -0.218642
C45   C     C_R   0.320543 0.909971 0.211677 -0.204800
C46   C     C_R   0.383207 0.688214 0.325707 -0.224512
C47   C     C_R   0.297388 0.814742 0.428800 -0.178476
C48   C     C_R   0.356039 0.782696 0.102592 -0.075644
H21   H     H_    0.420671 0.610323 0.303500 0.092015
H22   H     H_    0.386173 0.661522 0.011207 0.096425
H23   H     H_    0.390089 0.566635 0.197361 0.101814
H24   H     H_    0.402606 0.527404 0.073885 0.114613
H25   H     H_    0.308468 0.970506 0.185474 0.119836
O11   O     O_R   0.203580 0.914920 0.912610 -0.540063
O12   O     O_R   0.535710 0.887810 0.047120 -0.536198
O13   O     O_R   0.710730 0.084950 0.087430 -0.539822
C49   C     C_R   0.365472 0.860702 0.063340 0.689759
O14   O     O_R   0.533010 0.902850 0.910600 -0.546964
O15   O     O_R   0.708010 0.100090 0.949930 -0.543662
C50   C     C_R   0.366926 0.881259 0.883095 0.690882
O16   O     O_R   0.206300 0.899780 0.050100 -0.543872
O17   O     O_3   0.375170 0.064580 0.013100 -0.370845
V3    V     V_3+5 0.648200 0.988020 0.997570 1.403325
O18   O     O_R   0.038030 0.112330 0.952840 -0.541284
C51   C     C_R   0.872077 0.139409 0.936238 0.690518
O19   O     O_R   0.040730 0.097300 0.089360 -0.542931
C52   C     C_R   0.870848 0.118901 0.116935 0.681506
V4    V     V_3+5 0.148780 0.012220 0.002360 1.398568
O20   O     O_3   0.871930 0.935430 0.986900 -0.372567
N1    N     N_2   0.205565 0.938286 0.751647 -0.551248
H26   H     H_    0.211149 0.988583 0.798985 0.257867
C53   C     C_3   0.030449 0.943053 0.715985 -0.555378
H27   H     H_    0.003551 0.022860 0.714798 0.218423
H28   H     H_    0.907469 0.914201 0.742468 0.198629
H29   H     H_    0.045872 0.898371 0.662485 0.204196
C54   C     C_R   0.566840 0.822866 0.646118 0.075308
C55   C     C_R   0.490748 0.888940 0.609746 -0.184181
C56   C     C_R   0.589294 0.906930 0.551947 -0.130565
C57   C     C_R   0.763305 0.859216 0.529729 -0.097692
C58   C     C_R   0.837598 0.791571 0.564383 -0.103778
C59   C     C_R   0.738719 0.772474 0.621576 -0.096494
H30   H     H_    0.354682 0.925496 0.624889 0.136981
H31   H     H_    0.529612 0.957100 0.523540 0.112066
H32   H     H_    0.839007 0.873577 0.485160 0.113687
H33   H     H_    0.971996 0.753900 0.547004 0.128199
H34   H     H_    0.792923 0.715762 0.645458 0.112176
N2    N     N_2   0.170614 0.655628 0.839732 -0.546397
H35   H     H_    0.263177 0.623166 0.867436 0.239460
C60   C     C_3   0.007509 0.704510 0.879509 -0.506598
H36   H     H_    0.902776 0.645726 0.887589 0.188373
H37   H     H_    0.934713 0.755760 0.852963 0.196877
H38   H     H_    0.055066 0.748424 0.930489 0.203587

loop_
_geom_bond_atom_site_label_1
_geom_bond_atom_site_label_2
_ccdc_geom_bond_type
C22   H11   S    
C20   C25   S    
C29   C30   S    
H18   C47   S    
C57   C58   A    
C27   C54   S    
C1    O6    A    
C53   H28   S    
C31   H16   S    
C27   C28   S    
C30   C31   S    
C7    H5    S    
C6    C16   A    
C9    H6    S    
C4    C6    S    
C13   C14   A    
C3    C21   S    
O5    C3    A    
C58   H33   S    
C27   C30   S    
V2    O10   S    
C5    H3    S    
C54   C55   A    
C15   H8    S    
C48   C49   S    
C26   C52   S    
C56   C57   A    
C58   C59   A    
C60   H38   S    
C37   H22   S    
C2    C36   S    
C28   C29   S    
O8    V2    S    
C35   C43   A    
C20   C21   S    
O12   V3    S    
C8    C9    A    
C38   C39   A    
O1    V2    S    
C38   H24   S    
O7    V1    S    
C36   C47   A    
O13   V3    S    
C45   H25   S    
C33   C34   S    
O9    C4    A    
C49   O16   A    
N1    H26   S    
C53   H27   S    
C27   C34   S    
C19   H10   S    
C39   H23   S    
C28   C33   S    
N2    C60   S    
C36   C46   A    
C6    C17   A    
C42   C43   A    
C12   C16   A    
C35   H20   S    
O14   V3    S    
C9    C10   A    
C40   C42   A    
C19   C20   S    
O4    C2    A    
C31   C34   S    
C10   C11   A    
C8    H7    S    
C24   H13   S    
O15   C51   A    
C54   C59   A    
O2    C1    A    
C43   C44   A    
C14   C15   A    
C11   C18   A    
O14   C50   A    
C25   C26   S    
O17   V4    S    
O8    C3    A    
H19   C44   S    
O18   C51   A    
C1    C34   S    
C16   H4    S    
O17   V3    S    
C30   H15   S    
C44   C45   A    
N1    C53   S    
O16   V4    S    
C60   H36   S    
C19   C22   S    
O3    C4    A    
C55   H30   S    
C20   H9    S    
C29   C50   S    
C11   C15   A    
O6    V2    S    
O19   V4    S    
O12   C49   A    
C21   C22   S    
C35   C47   A    
H1    C17   S    
O2    V1    S    
O11   V4    S    
C22   C23   S    
C23   C26   S    
C7    C18   A    
C24   C25   S    
O1    C2    A    
C5    C13   A    
C28   N1    S    
C40   C41   A    
O5    V1    S    
N2    H35   S    
C25   H14   S    
C10   C12   A    
C33   H17   S    
C57   H32   S    
O9    V2    S    
C32   C33   S    
O4    V1    S    
O3    V1    S    
O11   C50   A    
C55   C56   A    
C46   H21   S    
C31   C32   S    
V1    O10   S    
C23   H12   S    
O18   V4    S    
C32   N2    S    
C41   C48   A    
C18   C51   S    
O7    V2    S    
C37   C38   A    
C21   C24   S    
C60   H37   S    
O13   C52   A    
O15   V3    S    
C59   H34   S    
C23   C24   S    
C39   C40   A    
O19   C52   A    
C42   C46   A    
C29   C32   S    
C12   C13   A    
C5    C17   A    
C41   C45   A    
C7    C8    A    
C37   C48   A    
V4    O20   S    
C56   H31   S    
C53   H29   S    
V3    O20   S    
C19   C26   S    
H2    C14   S    
