data_mof_unit_4453.cif
_audit_creation_date              2012-10-26T17:12:52-0400
_audit_creation_method            fapswitch 2.2
_symmetry_space_group_name_H-M    P1
_symmetry_Int_Tables_number       1
_space_group_crystal_system       triclinic
_cell_length_a                    27.908253
_cell_length_b                    18.665465
_cell_length_c                    16.729593
_cell_angle_alpha                 90.035692
_cell_angle_beta                  63.010851
_cell_angle_gamma                 89.986618
_cell_volume                      7765.67955463

loop_
_atom_site_label
_atom_site_type_symbol
_atom_type_description
_atom_site_fract_x
_atom_site_fract_y
_atom_site_fract_z
_atom_type_partial_charge
C1    C     C_R   0.291082 0.721407 0.332048 0.818892
C2    C     C_R   0.708257 0.278191 0.668185 0.816546
C3    C     C_R   0.703618 0.731936 0.672000 0.806182
C4    C     C_R   0.296476 0.267961 0.327840 0.807685
C5    C     C_R   0.796302 0.231587 0.328221 0.811302
C6    C     C_R   0.203513 0.767935 0.672151 0.807039
C7    C     C_R   0.208906 0.221439 0.667967 0.816739
C8    C     C_R   0.795788 0.769320 0.328328 0.809159
C9    C     C_R   0.411241 0.000085 0.461031 0.072119
C10   C     C_R   0.588971 0.000014 0.537956 0.071228
C11   C     C_R   0.911435 0.499852 0.460116 0.069787
C12   C     C_R   0.089239 0.500163 0.536837 0.070023
C13   C     C_R   0.582567 0.870739 0.550406 -0.223068
C14   C     C_R   0.417612 0.129364 0.448535 -0.229123
C15   C     C_R   0.418107 0.870897 0.446738 -0.219410
C16   C     C_R   0.582112 0.129215 0.552116 -0.220199
C17   C     C_R   0.082085 0.371062 0.552066 -0.228824
C18   C     C_R   0.918472 0.628963 0.444895 -0.229964
C19   C     C_R   0.917554 0.370510 0.448583 -0.238338
C20   C     C_R   0.083056 0.629506 0.548231 -0.240803
C21   C     C_R   0.194855 0.721917 0.976796 -0.003467
C22   C     C_R   0.792107 0.256341 0.034411 -0.002657
C23   C     C_R   0.761922 0.797565 0.064415 -0.001717
C24   C     C_R   0.248422 0.180513 0.927279 -0.000152
C25   C     C_R   0.730835 0.289233 0.944156 -0.001616
C26   C     C_R   0.251597 0.680535 0.072649 0.000194
C27   C     C_R   0.305177 0.221903 0.023122 -0.003102
C28   C     C_R   0.702174 0.765048 0.971181 -0.000425
C29   C     C_R   0.239639 0.674654 0.937491 0.070713
C30   C     C_R   0.741604 0.290588 0.079828 0.072266
C31   C     C_R   0.720617 0.745606 0.098212 0.072857
C32   C     C_R   0.298513 0.215796 0.881713 0.072408
C33   C     C_R   0.785675 0.269230 0.894754 0.072321
C34   C     C_R   0.201487 0.715853 0.118238 0.072043
C35   C     C_R   0.260430 0.174646 0.062375 0.070738
C36   C     C_R   0.743996 0.816364 0.936204 0.069428
C37   C     C_R   0.265960 0.650101 0.987878 -0.006029
C38   C     C_R   0.707534 0.296451 0.038321 -0.005638
C39   C     C_R   0.685576 0.737956 0.058530 -0.003262
C40   C     C_R   0.326630 0.240011 0.930258 -0.001805
C41   C     C_R   0.814344 0.243364 0.940879 0.002202
C42   C     C_R   0.173377 0.740064 0.069691 -0.001690
C43   C     C_R   0.234100 0.150094 0.011987 -0.006078
C44   C     C_R   0.769162 0.839545 0.989262 -0.007516
C45   C     C_R   0.128393 0.800056 0.959977 0.026337
C46   C     C_R   0.866706 0.192752 0.043035 0.026256
C47   C     C_R   0.836009 0.860998 0.074511 0.014802
C48   C     C_R   0.166703 0.130393 0.927019 0.018485
C49   C     C_R   0.645588 0.325916 0.946409 0.024740
C50   C     C_R   0.333313 0.630365 0.072910 0.018500
C51   C     C_R   0.371590 0.300069 0.040015 0.026805
C52   C     C_R   0.632456 0.693116 0.957698 0.019662
C53   C     C_R   0.111064 0.838633 0.903452 -0.104324
C54   C     C_R   0.887659 0.159162 0.097573 -0.105476
C55   C     C_R   0.873083 0.865579 0.111251 -0.102925
C56   C     C_R   0.129884 0.128990 0.888751 -0.101592
C57   C     C_R   0.617502 0.348797 0.897900 -0.112167
C58   C     C_R   0.370110 0.628966 0.111229 -0.101705
C59   C     C_R   0.388899 0.338692 0.096563 -0.101833
C60   C     C_R   0.612577 0.658747 0.902319 -0.110630
C61   C     C_R   0.135510 0.823868 0.811514 -0.266970
C62   C     C_R   0.864958 0.176031 0.189003 -0.267212
C63   C     C_R   0.861453 0.829982 0.191349 -0.267159
C64   C     C_R   0.144100 0.162910 0.806852 -0.274090
C65   C     C_R   0.638214 0.330564 0.807540 -0.264568
C66   C     C_R   0.355883 0.662906 0.193141 -0.271497
C67   C     C_R   0.364453 0.323954 0.188510 -0.262427
C68   C     C_R   0.635828 0.675361 0.810866 -0.265805
C69   C     C_R   0.177323 0.774185 0.772385 -0.122019
C70   C     C_R   0.821641 0.223512 0.228944 -0.123087
C71   C     C_R   0.816811 0.785206 0.231300 -0.127614
C72   C     C_R   0.194937 0.193059 0.758228 -0.113474
C73   C     C_R   0.689849 0.302004 0.761240 -0.117822
C74   C     C_R   0.305038 0.693040 0.241780 -0.113785
C75   C     C_R   0.322674 0.274246 0.227591 -0.122064
C76   C     C_R   0.678120 0.724489 0.771735 -0.122137
C77   C     C_R   0.195434 0.736653 0.828695 0.070299
C78   C     C_R   0.799819 0.255345 0.174988 0.070662
C79   C     C_R   0.788166 0.766568 0.182060 0.073839
C80   C     C_R   0.231943 0.193605 0.795681 0.066030
C81   C     C_R   0.723236 0.298260 0.804473 0.064220
C82   C     C_R   0.268032 0.693622 0.204314 0.065784
C83   C     C_R   0.304611 0.236685 0.171218 0.070337
C84   C     C_R   0.697752 0.759670 0.827397 0.069022
C85   C     C_R   0.196540 0.631719 0.527581 0.791895
C86   C     C_R   0.803507 0.368254 0.472127 0.786644
C87   C     C_R   0.803582 0.631722 0.471861 0.808536
C88   C     C_R   0.196455 0.368304 0.527881 0.826986
C89   C     C_R   0.696455 0.131730 0.527927 0.828646
C90   C     C_R   0.303556 0.868273 0.471999 0.827701
C91   C     C_R   0.303517 0.131729 0.472130 0.791503
C92   C     C_R   0.696496 0.868292 0.527771 0.814005
C93   C     C_R   0.172859 0.752970 0.921776 0.078821
C94   C     C_R   0.819670 0.234623 0.084123 0.075950
C95   C     C_R   0.795620 0.808069 0.106637 0.073309
C96   C     C_R   0.214828 0.170052 0.884394 0.075650
C97   C     C_R   0.699710 0.303962 0.898536 0.075201
C98   C     C_R   0.285173 0.670056 0.115558 0.076044
C99   C     C_R   0.327160 0.252985 0.078167 0.078931
C100  C     C_R   0.677425 0.739275 0.918503 0.076226
C101  C     C_R   0.102861 0.807069 0.053741 -0.198787
C102  C     C_R   0.890418 0.185481 0.949039 -0.199049
C103  C     C_R   0.835066 0.910898 0.012124 -0.189634
C104  C     C_R   0.161495 0.086559 0.999199 -0.192136
C105  C     C_R   0.621257 0.322470 0.040491 -0.184734
C106  C     C_R   0.338565 0.586515 0.000649 -0.191717
C107  C     C_R   0.397114 0.307021 0.946262 -0.197863
C108  C     C_R   0.607845 0.685942 0.051957 -0.192738
C109  C     C_R   0.126656 0.784601 0.106797 0.145750
C110  C     C_R   0.863951 0.205525 0.899114 0.143867
C111  C     C_R   0.801381 0.901949 0.971522 0.129218
C112  C     C_R   0.195521 0.094068 0.039420 0.116960
C113  C     C_R   0.651051 0.307008 0.086538 0.134795
C114  C     C_R   0.304563 0.594047 0.960387 0.116702
C115  C     C_R   0.373332 0.284515 0.893187 0.146087
C116  C     C_R   0.634298 0.705825 0.101968 0.128296
C117  C     C_R   0.235674 0.683579 0.795742 -0.194737
C118  C     C_R   0.759455 0.308576 0.206955 -0.176364
C119  C     C_R   0.752396 0.708222 0.205232 -0.173027
C120  C     C_R   0.287242 0.208945 0.745764 -0.173517
C121  C     C_R   0.779564 0.293253 0.756981 -0.169617
C122  C     C_R   0.212725 0.709019 0.254224 -0.172565
C123  C     C_R   0.264441 0.183583 0.204087 -0.192927
C124  C     C_R   0.737096 0.814304 0.796223 -0.187922
C125  C     C_R   0.259686 0.658084 0.846418 -0.167937
C126  C     C_R   0.729459 0.323626 0.161799 -0.168319
C127  C     C_R   0.719152 0.698247 0.164422 -0.166170
C128  C     C_R   0.319800 0.218534 0.788012 -0.156906
C129  C     C_R   0.810193 0.280721 0.801797 -0.160416
C130  C     C_R   0.180179 0.718626 0.211952 -0.156261
C131  C     C_R   0.240428 0.158076 0.153407 -0.167445
C132  C     C_R   0.761160 0.839313 0.847707 -0.169193
C133  C     C_R   0.922653 0.908948 0.069692 0.805009
C134  C     C_R   0.077680 0.090599 0.930543 0.806959
C135  C     C_R   0.071352 0.899078 0.935832 0.794671
C136  C     C_R   0.928412 0.100464 0.064387 0.798317
C137  C     C_R   0.428612 0.399116 0.064184 0.780755
C138  C     C_R   0.571860 0.600097 0.935372 0.814275
C139  C     C_R   0.572280 0.400537 0.934986 0.799133
C140  C     C_R   0.422316 0.590582 0.069463 0.809426
C141  C     C_R   0.042193 0.630060 0.522223 0.086098
C142  C     C_R   0.958779 0.369946 0.473757 0.086956
C143  C     C_R   0.960439 0.629749 0.468415 0.091026
C144  C     C_R   0.040495 0.370267 0.527655 0.089494
C145  C     C_R   0.540588 0.129936 0.527558 0.088281
C146  C     C_R   0.459773 0.870195 0.470954 0.091262
C147  C     C_R   0.458895 0.130031 0.473596 0.085375
C148  C     C_R   0.541434 0.870095 0.524991 0.090557
C149  C     C_R   0.021729 0.694963 0.508209 -0.189813
C150  C     C_R   0.979345 0.305044 0.487510 -0.184528
C151  C     C_R   0.982302 0.694758 0.478656 -0.174561
C152  C     C_R   0.018745 0.305250 0.517121 -0.175542
C153  C     C_R   0.519142 0.194925 0.516151 -0.154232
C154  C     C_R   0.481290 0.805217 0.482174 -0.155291
C155  C     C_R   0.479753 0.194990 0.486511 -0.160337
C156  C     C_R   0.520663 0.805142 0.511848 -0.165846
C157  C     C_R   0.979774 0.564843 0.484617 0.030181
C158  C     C_R   0.021283 0.435166 0.511225 0.030571
C159  C     C_R   0.022205 0.564957 0.508311 0.033293
C160  C     C_R   0.978862 0.435050 0.487505 0.032280
C161  C     C_R   0.478745 0.064988 0.488090 0.034423
C162  C     C_R   0.521614 0.935142 0.510457 0.034179
C163  C     C_R   0.521147 0.064958 0.511858 0.033766
C164  C     C_R   0.479224 0.935173 0.486661 0.032200
C165  C     C_R   0.457025 0.000088 0.476868 -0.039686
C166  C     C_R   0.543299 0.000035 0.521786 -0.041229
C167  C     C_R   0.957325 0.499900 0.475649 -0.045346
C168  C     C_R   0.043651 0.500110 0.520430 -0.044973
C169  C     C_R   0.388395 0.934302 0.453630 0.045536
C170  C     C_R   0.611755 0.065783 0.545550 0.049113
C171  C     C_R   0.611923 0.934218 0.544923 0.050248
C172  C     C_R   0.388210 0.065867 0.454291 0.045346
C173  C     C_R   0.888257 0.434048 0.453933 0.045784
C174  C     C_R   0.112220 0.565966 0.543601 0.047297
C175  C     C_R   0.111851 0.434413 0.545040 0.047262
C176  C     C_R   0.888603 0.565607 0.452560 0.047388
C177  C     C_R   0.336447 0.934463 0.456103 -0.115104
C178  C     C_R   0.663576 0.065574 0.543602 -0.113013
C179  C     C_R   0.663638 0.934441 0.543351 -0.110953
C180  C     C_R   0.336381 0.065605 0.456352 -0.105649
C181  C     C_R   0.836379 0.434337 0.456196 -0.106130
C182  C     C_R   0.163750 0.565655 0.542750 -0.105852
C183  C     C_R   0.163612 0.434542 0.543327 -0.115765
C184  C     C_R   0.836508 0.565486 0.455655 -0.113733
C185  C     C_R   0.312055 0.000035 0.456185 -0.267323
C186  C     C_R   0.687894 1.000000 0.543778 -0.267244
C187  C     C_R   0.812036 0.499922 0.456057 -0.278857
C188  C     C_R   0.187916 0.500089 0.543531 -0.270318
Cu1   Cu    Cu3+1 0.209920 0.785290 0.495070 0.953819
Cu2   Cu    Cu3+1 0.790080 0.214710 0.504930 0.959820
Cu3   Cu    Cu3+1 0.790080 0.785290 0.504930 0.947562
Cu4   Cu    Cu3+1 0.209920 0.214710 0.495070 0.945752
Cu5   Cu    Cu3+1 0.709920 0.285290 0.495070 0.953289
Cu6   Cu    Cu3+1 0.290080 0.714710 0.504930 0.947070
Cu7   Cu    Cu3+1 0.290080 0.285290 0.504930 0.957685
Cu8   Cu    Cu3+1 0.709920 0.714710 0.495070 0.953143
Cu9   Cu    Cu3+1 0.495240 0.500000 0.924150 0.979603
Cu10  Cu    Cu3+1 0.504760 0.500000 0.075850 0.978501
Cu11  Cu    Cu3+1 0.995240 0.000000 0.924150 0.978669
Cu12  Cu    Cu3+1 0.004760 1.000000 0.075850 0.978677
H1    H     H_    0.535999 0.754380 0.521881 0.149101
H2    H     H_    0.464456 0.245747 0.476371 0.155049
H3    H     H_    0.466460 0.754508 0.470837 0.153739
H4    H     H_    0.534019 0.245640 0.527366 0.156549
H5    H     H_    0.033391 0.254594 0.528999 0.151933
H6    H     H_    0.967629 0.745413 0.466831 0.153768
H7    H     H_    0.963797 0.254249 0.478068 0.150351
H8    H     H_    0.037267 0.745761 0.517664 0.150256
H9    H     H_    0.272095 0.000034 0.460660 0.192305
H10   H     H_    0.727759 0.999991 0.539702 0.192021
H11   H     H_    0.772003 0.499952 0.460841 0.189942
H12   H     H_    0.227693 0.500059 0.539815 0.192708
H13   H     H_    0.589861 0.820917 0.575340 0.174551
H14   H     H_    0.410195 0.179179 0.423735 0.183059
H15   H     H_    0.410475 0.821194 0.421905 0.180797
H16   H     H_    0.589602 0.178919 0.577121 0.177036
H17   H     H_    0.089534 0.321499 0.577372 0.177880
H18   H     H_    0.910633 0.678551 0.420120 0.176559
H19   H     H_    0.910112 0.320563 0.424058 0.179540
H20   H     H_    0.090109 0.679452 0.573232 0.180336
H21   H     H_    0.123027 0.853866 0.768740 0.190078
H22   H     H_    0.880052 0.149605 0.230669 0.191613
H23   H     H_    0.886199 0.839423 0.224888 0.189624
H24   H     H_    0.115983 0.163105 0.778618 0.185414
H25   H     H_    0.614716 0.341265 0.772106 0.191147
H26   H     H_    0.383999 0.663116 0.221380 0.187057
H27   H     H_    0.376916 0.353972 0.231323 0.191341
H28   H     H_    0.621842 0.647544 0.768551 0.190365
H29   H     H_    0.063893 0.831487 0.088667 0.196063
H30   H     H_    0.930341 0.164468 0.911210 0.195921
H31   H     H_    0.857258 0.960483 0.999395 0.194204
H32   H     H_    0.135185 0.040763 0.019500 0.204279
H33   H     H_    0.578133 0.327127 0.079202 0.186327
H34   H     H_    0.364899 0.540703 0.980292 0.204510
H35   H     H_    0.436070 0.331409 0.911362 0.194603
H36   H     H_    0.566896 0.668063 0.089283 0.195203
H37   H     H_    0.250292 0.659570 0.730615 0.186720
H38   H     H_    0.750577 0.340440 0.265714 0.173984
H39   H     H_    0.751039 0.667859 0.252455 0.166143
H40   H     H_    0.307360 0.209112 0.673450 0.180158
H41   H     H_    0.800849 0.302242 0.685439 0.170554
H42   H     H_    0.192596 0.709231 0.326538 0.180709
H43   H     H_    0.249883 0.159561 0.269152 0.186738
H44   H     H_    0.749985 0.840551 0.732648 0.183882
H45   H     H_    0.296061 0.627666 0.810920 0.179778
H46   H     H_    0.697940 0.363445 0.189792 0.171100
H47   H     H_    0.693943 0.651093 0.182370 0.172218
H48   H     H_    0.362283 0.221880 0.745517 0.175538
H49   H     H_    0.853256 0.283700 0.763306 0.173285
H50   H     H_    0.137691 0.722023 0.254430 0.176731
H51   H     H_    0.204087 0.127652 0.188875 0.179739
H52   H     H_    0.795432 0.874056 0.814862 0.178562
O1    O     O_R   0.255040 0.869590 0.478480 -0.572168
O2    O     O_R   0.744960 0.130410 0.521520 -0.572892
O3    O     O_R   0.744960 0.869590 0.521520 -0.582866
O4    O     O_R   0.255040 0.130410 0.478480 -0.585517
O5    O     O_R   0.755040 0.369590 0.478480 -0.589219
O6    O     O_R   0.244960 0.630410 0.521520 -0.585653
O7    O     O_R   0.244960 0.369590 0.521520 -0.572107
O8    O     O_R   0.755040 0.630410 0.478480 -0.584160
O9    O     O_R   0.182050 0.796550 0.624440 -0.582491
O10   O     O_R   0.817950 0.203450 0.375560 -0.585467
O11   O     O_R   0.817950 0.796550 0.375560 -0.581555
O12   O     O_R   0.182050 0.203450 0.624440 -0.585576
O13   O     O_R   0.682050 0.296550 0.624440 -0.589146
O14   O     O_R   0.317950 0.703450 0.375560 -0.584125
O15   O     O_R   0.317950 0.296550 0.375560 -0.580473
O16   O     O_R   0.682050 0.703450 0.624440 -0.583695
O17   O     O_R   0.250530 0.763330 0.367210 -0.586802
O18   O     O_R   0.749470 0.236670 0.632790 -0.579383
O19   O     O_R   0.749470 0.763330 0.632790 -0.594631
O20   O     O_R   0.250530 0.236670 0.367210 -0.595000
O21   O     O_R   0.750530 0.263330 0.367210 -0.586360
O22   O     O_R   0.249470 0.736670 0.632790 -0.594959
O23   O     O_R   0.249470 0.263330 0.632790 -0.586665
O24   O     O_R   0.750530 0.736670 0.367210 -0.584841
O25   O     O_R   0.177260 0.690030 0.513710 -0.613336
O26   O     O_R   0.822740 0.309970 0.486290 -0.609900
O27   O     O_R   0.822740 0.690030 0.486290 -0.594567
O28   O     O_R   0.177260 0.309970 0.513710 -0.593937
O29   O     O_R   0.677260 0.190030 0.513710 -0.590239
O30   O     O_R   0.322740 0.809970 0.486290 -0.594639
O31   O     O_R   0.322740 0.190030 0.486290 -0.613212
O32   O     O_R   0.677260 0.809970 0.513710 -0.592044
O33   O     O_R   0.051640 0.926880 0.885090 -0.579663
O34   O     O_R   0.948360 0.073120 0.114910 -0.579851
O35   O     O_R   0.948360 0.926880 0.114910 -0.583980
O36   O     O_R   0.051640 0.073120 0.885090 -0.582058
O37   O     O_R   0.551640 0.426880 0.885090 -0.581064
O38   O     O_R   0.448360 0.573120 0.114910 -0.581920
O39   O     O_R   0.448360 0.426880 0.114910 -0.583277
O40   O     O_R   0.551640 0.573120 0.885090 -0.576525
O41   O     O_R   0.940620 0.926560 0.986760 -0.586683
O42   O     O_R   0.059380 0.073440 0.013240 -0.591613
O43   O     O_R   0.059380 0.926560 0.013240 -0.591920
O44   O     O_R   0.940620 0.073440 0.986760 -0.593268
O45   O     O_R   0.440620 0.426560 0.986760 -0.593970
O46   O     O_R   0.559380 0.573440 0.013240 -0.586339
O47   O     O_R   0.559380 0.426560 0.013240 -0.585243
O48   O     O_R   0.440620 0.573440 0.986760 -0.591754
I1    I     I_    0.090519 0.838922 0.233713 -0.393392
I2    I     I_    0.899002 0.156806 0.768892 -0.388584
I3    I     I_    0.790062 0.996512 0.910301 -0.338196
I4    I     I_    0.198764 0.001489 0.112024 -0.352103
I5    I     I_    0.603586 0.283593 0.225719 -0.399923
I6    I     I_    0.301391 0.501480 0.887590 -0.353420
I7    I     I_    0.409478 0.338708 0.766296 -0.392748
I8    I     I_    0.586932 0.702827 0.244218 -0.422795

loop_
_geom_bond_atom_site_label_1
_geom_bond_atom_site_label_2
_ccdc_geom_bond_type
C4    O20   A    
C85   C182  S    
C90   O30   A    
C9    C169  A    
C34   C42   A    
C154  H3    S    
C181  C187  A    
C140  O48   A    
Cu9   O45   S    
C27   C99   A    
C170  C178  A    
Cu1   O17   S    
C42   C109  A    
C24   C96   A    
C126  H46   S    
C62   C70   A    
C13   H13   S    
Cu3   Cu8   S    
C89   O29   A    
Cu1   Cu6   S    
Cu4   O4    S    
C134  O36   A    
C135  O33   A    
C124  H44   S    
C155  H2    S    
Cu2   O26   S    
C143  C151  A    
C90   C177  S    
C117  H37   S    
Cu11  Cu12  S    
C11   C167  A    
C82   C98   A    
C76   C84   A    
C73   C81   A    
C161  C163  A    
C162  C164  A    
Cu11  O33   S    
C129  H49   S    
Cu6   O22   S    
C84   C100  A    
Cu4   Cu7   S    
C15   H15   S    
C57   C65   A    
C37   C114  A    
C27   C35   A    
C10   C171  A    
C55   C133  S    
C21   C29   A    
C81   C121  A    
C114  I6    S    
C23   C31   A    
C24   C32   A    
C86   O5    A    
C5    C70   S    
C146  C154  A    
Cu9   O40   S    
Cu10  O39   S    
C65   H25   S    
C8    O24   A    
C63   C71   A    
C185  H9    S    
C36   C44   A    
C5    O21   A    
C139  O37   A    
C32   C40   A    
C12   C174  A    
C58   C140  S    
C176  C184  A    
C8    C71   S    
Cu5   O29   S    
C3    O16   A    
C48   C96   A    
Cu12  O42   S    
Cu7   O7    S    
Cu8   O32   S    
C56   C134  S    
C68   H28   S    
C148  C162  A    
C183  C188  A    
C188  H12   S    
C108  C116  A    
C21   C93   A    
C78   C94   A    
C9    C165  A    
C112  I4    S    
C23   C95   A    
C57   C139  S    
C49   C97   A    
C21   C42   A    
C22   C41   A    
C92   O3    A    
C51   C107  A    
C102  H30   S    
C24   C43   A    
Cu1   O1    S    
C82   C122  A    
C161  C165  A    
C17   C175  A    
C60   C138  S    
C18   C176  A    
C6    C69   S    
C29   C125  A    
C69   C77   A    
Cu6   O14   S    
C31   C127  A    
C45   C93   A    
C174  C182  A    
C71   C79   A    
C179  C186  A    
C4    O15   A    
C121  H41   S    
C64   H24   S    
C11   C176  A    
C17   C144  A    
C1    C74   S    
C105  C113  A    
C18   C143  A    
C78   C118  A    
C36   C132  A    
C1    O17   A    
C66   C74   A    
C49   C57   A    
C124  C132  A    
C135  O43   A    
C52   C60   A    
C88   O7    A    
C59   C67   A    
C53   C61   A    
C141  C159  A    
C20   C174  A    
C55   C63   A    
C86   C181  S    
C56   C64   A    
C91   O31   A    
C138  O46   A    
C35   C43   A    
Cu10  O46   S    
C45   C53   A    
C22   C94   A    
C171  C179  A    
Cu2   O18   S    
C156  H1    S    
C149  H8    S    
C169  C177  A    
C131  H51   S    
C103  H31   S    
C50   C98   A    
C63   H23   S    
C7    C72   S    
C104  C112  A    
C145  C163  A    
C187  H11   S    
C146  C164  A    
C14   C147  A    
C52   C100  A    
C79   C119  A    
C16   C145  A    
C178  C186  A    
C134  O42   A    
C25   C38   A    
C46   C94   A    
C67   H27   S    
C27   C40   A    
C10   C166  A    
C91   C180  S    
C182  C188  A    
C89   C178  S    
C60   C68   A    
C2    C73   S    
C25   C97   A    
Cu9   O37   S    
C89   O2    A    
Cu7   O23   S    
Cu8   O16   S    
C67   C75   A    
C18   H18   S    
C147  C155  A    
C50   C106  A    
C22   C30   A    
C20   C141  A    
C115  I7    S    
C15   C146  A    
C68   C76   A    
Cu4   O20   S    
C184  C187  A    
C41   C110  A    
C32   C128  A    
C92   O32   A    
C172  C180  A    
C62   H22   S    
Cu9   Cu10  S    
C6    O22   A    
C140  O38   A    
C13   C171  A    
C19   H19   S    
Cu11  O41   S    
Cu6   O30   S    
Cu3   O19   S    
C117  C125  A    
C25   C33   A    
C119  C127  A    
C108  H36   S    
C125  H45   S    
C157  C167  A    
C30   C126  A    
C158  C168  A    
Cu11  O36   S    
Cu12  O35   S    
C164  C165  A    
C40   C115  A    
C101  C109  A    
C177  C185  A    
C14   H14   S    
C103  C111  A    
C16   H16   S    
C4    C75   S    
C138  O40   A    
Cu2   Cu5   S    
C162  C166  A    
C137  O45   A    
C1    O14   A    
C53   C135  S    
Cu5   O5    S    
C153  C155  A    
C137  O39   A    
C154  C156  A    
Cu8   O24   S    
C118  H38   S    
C173  C181  A    
C157  C159  A    
C83   C99   A    
C158  C160  A    
C74   C82   A    
C123  H43   S    
C116  I8    S    
C2    O18   A    
C109  I1    S    
C47   C103  A    
C141  C149  A    
C50   C58   A    
C163  C166  A    
C147  C161  A    
C38   C113  A    
C49   C105  A    
C54   C62   A    
C28   C39   A    
Cu4   O28   S    
Cu3   O3    S    
C23   C44   A    
C3    O19   A    
C19   C173  A    
C79   C95   A    
C92   C179  S    
C46   C54   A    
Cu1   O9    S    
C87   O27   A    
C8    O11   A    
C88   O28   A    
Cu3   O27   S    
C45   C101  A    
C120  H40   S    
C19   C142  A    
C186  H10   S    
C5    O10   A    
C102  C110  A    
C127  H47   S    
C35   C131  A    
C33   C129  A    
C123  C131  A    
C121  C129  A    
C87   O8    A    
C120  C128  A    
C26   C37   A    
C10   C170  A    
C77   C117  A    
C33   C41   A    
C142  C150  A    
C149  C151  A    
C75   C83   A    
Cu10  O38   S    
C77   C93   A    
C61   H21   S    
C44   C111  A    
C16   C170  A    
C28   C36   A    
C72   C80   A    
C39   C116  A    
C29   C37   A    
Cu2   O2    S    
C9    C172  A    
C101  H29   S    
C148  C156  A    
C83   C123  A    
C144  C152  A    
Cu9   O48   S    
Cu10  O47   S    
C80   C120  A    
C70   C78   A    
C136  O34   A    
Cu4   O12   S    
C65   C73   A    
C122  H42   S    
C139  O47   A    
C46   C102  A    
C106  C114  A    
C150  H7    S    
C7    O23   A    
C104  H32   S    
C91   O4    A    
C59   C137  S    
Cu5   O21   S    
C48   C104  A    
Cu12  O34   S    
C159  C168  A    
C15   C169  A    
Cu7   O31   S    
C160  C167  A    
Cu8   O8    S    
C58   C66   A    
C133  O35   A    
C113  I5    S    
C133  O41   A    
C85   O6    A    
C80   C96   A    
C136  O44   A    
C153  H4    S    
C145  C153  A    
C28   C100  A    
C86   O26   A    
C52   C108  A    
C20   H20   S    
C66   H26   S    
C26   C34   A    
C143  C157  A    
C130  H50   S    
C51   C99   A    
C11   C173  A    
C128  H48   S    
C152  H5    S    
C14   C172  A    
C87   C184  S    
C106  H34   S    
C88   C183  S    
C2    O13   A    
Cu1   O25   S    
C119  H39   S    
Cu6   O6    S    
Cu3   O11   S    
C54   C136  S    
C7    O12   A    
C3    C76   S    
C107  C115  A    
C26   C98   A    
C12   C175  A    
C90   O1    A    
Cu11  O44   S    
C110  I2    S    
Cu12  O43   S    
C150  C152  A    
C51   C59   A    
C43   C112  A    
C144  C158  A    
C17   H17   S    
C132  H52   S    
C47   C55   A    
C61   C69   A    
C48   C56   A    
C107  H35   S    
C175  C183  A    
C105  H33   S    
C142  C160  A    
C12   C168  A    
C84   C124  A    
C13   C148  A    
Cu5   O13   S    
Cu2   O10   S    
Cu7   O15   S    
C81   C97   A    
C111  I3    S    
C31   C39   A    
C6    O9    A    
C85   O25   A    
C64   C72   A    
C151  H6    S    
C180  C185  A    
C34   C130  A    
C47   C95   A    
C118  C126  A    
C30   C38   A    
C122  C130  A    
