data_mof_unit_4319.cif
_audit_creation_date              2012-12-10T20:25:44-0500
_audit_creation_method            fapswitch 2.2
_symmetry_space_group_name_H-M    P1
_symmetry_Int_Tables_number       1
_space_group_crystal_system       triclinic
_cell_length_a                    8.585626
_cell_length_b                    10.677046
_cell_length_c                    9.89278
_cell_angle_alpha                 89.797803
_cell_angle_beta                  98.654251
_cell_angle_gamma                 90.276777
_cell_volume                      896.523192506

loop_
_atom_site_label
_atom_site_type_symbol
_atom_type_description
_atom_site_fract_x
_atom_site_fract_y
_atom_site_fract_z
_atom_type_partial_charge
Br1   Br    Br    0.114427 0.508541 0.067399 -0.535673
C1    C     C_R   0.505105 0.259993 0.500825 0.870174
C2    C     C_R   0.432682 0.403189 0.920115 0.160835
C3    C     C_3   0.266382 0.360158 0.887777 -0.523178
C4    C     C_R   0.201240 0.500478 0.464142 0.981376
C5    C     C_3   0.255316 0.371810 0.038790 0.079029
C6    C     C_R   0.505558 0.739947 0.500525 0.873853
C7    C     C_R   0.798636 0.501838 0.535706 0.964967
C8    C     C_2   0.035915 0.499096 0.444869 -0.363576
C9    C     C_2   0.963601 0.507948 0.554251 -0.394891
C10   C     C_R   0.532286 0.063325 0.626799 0.144850
C11   C     C_R   0.531178 0.128623 0.504669 -0.100094
C12   C     C_R   0.561531 0.935801 0.387020 -0.216610
C13   C     C_R   0.561157 0.065377 0.387189 -0.223929
C14   C     C_R   0.531986 0.871333 0.504349 -0.099532
C15   C     C_R   0.532921 0.935517 0.626689 0.124313
C16   C     C_3   0.421908 0.926933 0.729182 -0.460833
C17   C     C_3   0.420575 0.068787 0.728762 -0.494354
C18   C     C_R   0.426820 0.406328 0.061340 0.140474
C19   C     C_R   0.582076 0.587554 0.082320 -0.069244
C20   C     C_R   0.581076 0.588165 0.938363 -0.080473
H1    H     H_    0.974049 0.488359 0.341240 0.216153
H2    H     H_    0.478812 0.886250 0.827869 0.203554
H3    H     H_    0.304386 0.108624 0.684924 0.202215
H4    H     H_    0.476164 0.110100 0.827425 0.205021
H5    H     H_    0.646239 0.659544 0.144509 0.138478
H6    H     H_    0.643940 0.660919 0.892285 0.144156
H7    H     H_    0.191876 0.426845 0.821458 0.245733
H8    H     H_    0.256859 0.261901 0.851591 0.168915
H9    H     H_    0.230958 0.281401 0.087727 0.130207
H10   H     H_    0.024785 0.521063 0.657343 0.187729
H11   H     H_    0.572953 0.114786 0.293399 0.171661
H12   H     H_    0.573457 0.887248 0.293170 0.170125
H13   H     H_    0.306362 0.884579 0.686587 0.210914
N1    N     N_R   0.498950 0.499140 0.142680 -0.091599
N2    N     N_R   0.498950 0.499180 0.857030 -0.096238
O1    O     O_R   0.500020 0.316790 0.614690 -0.614990
O2    O     O_R   0.500000 0.316760 0.385350 -0.632528
O3    O     O_R   0.271760 0.500010 0.587850 -0.625856
O4    O     O_R   0.271740 0.499970 0.358500 -0.568996
O5    O     O_R   0.500000 0.683240 0.614650 -0.626156
O6    O     O_R   0.499980 0.683210 0.385310 -0.620488
O7    O     O_R   0.728260 0.500030 0.641500 -0.612708
O8    O     O_R   0.728240 0.499990 0.412150 -0.619119
Zn1   Zn    Zn3+2 0.500010 0.500020 0.653130 0.957738
Zn2   Zn    Zn3+2 0.499990 0.499980 0.346870 0.978597

loop_
_geom_bond_atom_site_label_1
_geom_bond_atom_site_label_2
_ccdc_geom_bond_type
C10   C11   A    
C10   C17   S    
C2    C18   A    
C8    C9    D    
C1    O2    A    
C3    H8    S    
C7    O7    A    
O3    Zn1   S    
C1    C11   S    
C6    O5    A    
C16   C17   S    
C20   H6    S    
N2    Zn1   S    
C20   N2    A    
C18   N1    A    
C12   C13   A    
O4    Zn2   S    
C5    C18   S    
O7    Zn1   S    
C1    O1    A    
C4    C8    S    
C16   H2    S    
C17   H4    S    
C19   H5    S    
C2    N2    A    
C17   H3    S    
C3    C5    S    
C5    H9    S    
C11   C13   A    
C12   C14   A    
C8    H1    S    
O2    Zn2   S    
C10   C15   A    
C16   H13   S    
O1    Zn1   S    
C14   C15   A    
C7    O8    A    
C19   C20   A    
C7    C9    S    
C12   H12   S    
O6    Zn2   S    
C6    O6    A    
C13   H11   S    
Br1   C5    S    
C4    O3    A    
O5    Zn1   S    
C6    C14   S    
C3    H7    S    
C4    O4    A    
N1    Zn2   S    
C9    H10   S    
C19   N1    A    
C2    C3    S    
O8    Zn2   S    
C15   C16   S    
