data_mof_unit_652.cif
_audit_creation_date              2012-12-10T18:46:20-0500
_audit_creation_method            fapswitch 2.2
_symmetry_space_group_name_H-M    P1
_symmetry_Int_Tables_number       1
_space_group_crystal_system       triclinic
_cell_length_a                    9.919726
_cell_length_b                    10.72879
_cell_length_c                    13.101755
_cell_angle_alpha                 90.50917
_cell_angle_beta                  68.592107
_cell_angle_gamma                 89.75387
_cell_volume                      1298.07794207

loop_
_atom_site_label
_atom_site_type_symbol
_atom_type_description
_atom_site_fract_x
_atom_site_fract_y
_atom_site_fract_z
_atom_type_partial_charge
C1    C     C_R   0.501344 0.739892 0.496958 0.838075
C2    C     C_R   0.366141 0.490247 0.825488 -0.032188
C3    C     C_R   0.629614 0.935691 0.484853 -0.186041
C4    C     C_R   0.418718 0.495619 0.705149 0.884043
C5    C     C_R   0.629214 0.063402 0.486272 -0.220921
C6    C     C_R   0.503539 0.127549 0.492676 0.016556
C7    C     C_R   0.380092 0.064412 0.493661 -0.174926
C8    C     C_R   0.380756 0.936737 0.492059 -0.194020
C9    C     C_R   0.504016 0.872468 0.490980 -0.029217
C10   C     C_R   0.947860 0.399914 0.460710 -0.172185
C11   C     C_R   0.091237 0.400240 0.460175 -0.141238
C12   C     C_R   0.442537 0.495431 0.982051 0.042164
C13   C     C_R   0.050797 0.599679 0.542149 0.440109
C14   C     C_R   0.907380 0.600379 0.541235 0.449924
C15   C     C_R   0.501229 0.260106 0.497639 0.901777
C16   C     C_R   0.582190 0.497422 0.294875 0.835786
C17   C     C_R   0.796155 0.393949 0.001388 -0.052311
C18   C     C_R   0.637387 0.483488 0.175143 -0.129078
C19   C     C_R   0.238524 0.553625 0.886907 -0.212195
C20   C     C_R   0.210273 0.585983 0.995149 -0.070136
C21   C     C_R   0.312315 0.560904 0.041857 -0.114351
C22   C     C_2   0.865880 0.375017 0.167818 0.356080
C23   C     C_R   0.458626 0.445262 0.878179 0.006442
C24   C     C_3   0.071236 0.692644 0.692331 0.119615
C25   C     C_3   0.152281 0.792087 0.730332 -0.833460
C26   C     C_3   0.733049 0.715641 0.676867 0.176390
C27   C     C_3   0.736719 0.845430 0.723537 -0.915977
C28   C     C_3   0.736294 0.131049 0.888772 0.071280
C29   C     C_3   0.869051 0.049437 0.871077 -0.805116
C30   C     C_2   0.944150 0.354439 0.927941 0.526927
C31   C     C_2   0.553273 0.259860 0.749072 0.440025
C32   C     C_R   0.555688 0.476846 0.022479 -0.010183
C33   C     C_R   0.680442 0.405137 0.961608 -0.011961
C34   C     C_R   0.678052 0.334200 0.870673 0.380722
C35   C     C_R   0.566043 0.351913 0.830513 -0.136654
C36   C     C_R   0.545769 0.525153 0.124017 -0.211897
C37   C     C_R   0.767613 0.420660 0.113458 -0.110477
H1    H     H_    0.726434 0.111341 0.483383 0.151436
H2    H     H_    0.727508 0.887186 0.480145 0.217051
H3    H     H_    0.822584 0.320908 0.242185 0.082464
H4    H     H_    0.099525 0.598792 0.712304 0.183531
H5    H     H_    0.955631 0.706260 0.741004 0.134425
H6    H     H_    0.110385 0.797006 0.821297 0.202448
H7    H     H_    0.269490 0.769628 0.700959 0.244777
H8    H     H_    0.136148 0.884728 0.699353 0.265163
H9    H     H_    0.753570 0.643027 0.729968 0.088293
H10   H     H_    0.620377 0.703911 0.682062 0.184812
H11   H     H_    0.849800 0.877449 0.700560 0.285072
H12   H     H_    0.282688 0.113087 0.496836 0.159603
H13   H     H_    0.678385 0.912914 0.690398 0.257937
H14   H     H_    0.683293 0.844220 0.814182 0.214265
H15   H     H_    0.658722 0.078600 0.861682 0.154234
H16   H     H_    0.684151 0.150310 0.978608 0.125155
H17   H     H_    0.938428 0.091998 0.911611 0.239937
H18   H     H_    0.835311 0.955986 0.906745 0.204221
H19   H     H_    0.933440 0.039259 0.782182 0.271551
H20   H     H_    0.012702 0.299090 0.958398 0.101808
H21   H     H_    0.649352 0.214867 0.691233 0.103616
H22   H     H_    0.284280 0.889024 0.493369 0.213047
H23   H     H_    0.910344 0.319754 0.428333 0.159696
H24   H     H_    0.160917 0.320304 0.427375 0.163465
H25   H     H_    0.459520 0.587449 0.170495 0.151049
H26   H     H_    0.162834 0.583080 0.850984 0.160503
H27   H     H_    0.283605 0.592283 0.125389 0.133107
H28   H     H_    0.111430 0.635841 0.041758 0.157152
N1    N     N_R   0.142790 0.500030 0.500030 -0.136105
N2    N     N_R   0.857180 0.499940 0.500010 -0.141343
O1    O     O_R   0.385370 0.683250 0.500010 -0.570133
O2    O     O_3   0.100344 0.704489 0.579003 -0.594062
O3    O     O_3   0.828666 0.710754 0.565824 -0.598094
O4    O     O_3   0.779275 0.240228 0.825512 -0.592054
O5    O     O_2   0.992660 0.386688 0.832272 -0.569137
O6    O     O_2   0.434745 0.228882 0.749513 -0.593266
O7    O     O_R   0.614700 0.683220 0.500010 -0.587465
O8    O     O_R   0.328400 0.499990 0.653620 -0.583929
O9    O     O_R   0.557730 0.499960 0.653620 -0.651631
O10   O     O_R   0.385300 0.316780 0.499990 -0.615165
O11   O     O_R   0.614630 0.316750 0.499990 -0.648079
O12   O     O_R   0.442270 0.500040 0.346380 -0.606236
O13   O     O_R   0.671600 0.500010 0.346380 -0.608336
O14   O     O_2   0.994499 0.399810 0.132140 -0.593821
Zn1   Zn    Zn3+2 0.346870 0.500020 0.500000 0.996858
Zn2   Zn    Zn3+2 0.653130 0.499980 0.500000 0.960797

loop_
_geom_bond_atom_site_label_1
_geom_bond_atom_site_label_2
_ccdc_geom_bond_type
C27   H11   S    
N2    Zn2   S    
C17   C30   S    
C24   H5    S    
C10   H23   S    
C19   C20   A    
O7    Zn2   S    
C25   H6    S    
C7    C8    A    
C10   N2    A    
C12   C23   A    
C26   C27   S    
C1    O7    A    
C32   C36   A    
C31   H21   S    
C28   C29   S    
C18   C37   A    
C8    H22   S    
C5    C6    A    
C31   O6    D    
C15   O11   A    
C29   H17   S    
C30   H20   S    
C1    O1    A    
C25   H7    S    
C34   C35   A    
C21   H27   S    
C6    C15   S    
O11   Zn2   S    
C19   H26   S    
C8    C9    A    
C4    O8    A    
C14   N2    A    
C27   H13   S    
C3    H2    S    
C13   C14   A    
C12   C32   A    
C24   H4    S    
C14   O3    S    
C17   C33   A    
O13   Zn2   S    
C36   H25   S    
O9    Zn2   S    
C27   H14   S    
C24   O2    S    
C13   N1    A    
C22   O14   D    
C20   H28   S    
C1    C9    S    
C24   C25   S    
C7    H12   S    
C29   H18   S    
C3    C5    A    
C22   C37   S    
C12   C21   A    
C16   O13   A    
C2    C4    S    
C3    C9    A    
N1    Zn1   S    
C22   H3    S    
C33   C34   A    
C17   C37   A    
C26   H10   S    
C23   C35   A    
C26   O3    S    
C31   C35   S    
C28   O4    S    
C25   H8    S    
C2    C19   A    
C11   H24   S    
O12   Zn1   S    
C30   O5    D    
C28   H16   S    
C11   N1    A    
O8    Zn1   S    
C6    C7    A    
C29   H19   S    
C16   O12   A    
O1    Zn1   S    
C32   C33   A    
C28   H15   S    
C15   O10   A    
C13   O2    S    
O10   Zn1   S    
C4    O9    A    
C10   C11   A    
C26   H9    S    
C20   C21   A    
C16   C18   S    
C2    C23   A    
C5    H1    S    
C18   C36   A    
C34   O4    S    
