data_mof_unit_707.cif
_audit_creation_date              2012-12-10T17:47:45-0500
_audit_creation_method            fapswitch 2.2
_symmetry_space_group_name_H-M    P1
_symmetry_Int_Tables_number       1
_space_group_crystal_system       triclinic
_cell_length_a                    14.781697
_cell_length_b                    14.758664
_cell_length_c                    14.363506
_cell_angle_alpha                 76.77187
_cell_angle_beta                  103.440959
_cell_angle_gamma                 115.392201
_cell_volume                      2723.35535883

loop_
_atom_site_label
_atom_site_type_symbol
_atom_type_description
_atom_site_fract_x
_atom_site_fract_y
_atom_site_fract_z
_atom_type_partial_charge
C1    C     C_R   0.879974 0.312175 0.516428 0.793293
C2    C     C_R   0.120124 0.687905 0.486079 0.795824
C3    C     C_R   0.639555 0.074678 0.523859 0.055709
C4    C     C_R   0.359675 0.927129 0.493162 0.060309
C5    C     C_R   0.675532 0.002514 0.585302 0.000514
C6    C     C_R   0.323540 0.000856 0.435891 -0.002227
C7    C     C_R   0.534656 0.046582 0.487256 -0.009083
C8    C     C_R   0.464338 0.955548 0.530820 -0.015051
C9    C     C_R   0.501450 0.895163 0.608811 0.142999
C10   C     C_R   0.496567 0.107995 0.411077 0.143506
C11   C     C_R   0.602379 0.905662 0.616892 0.101785
C12   C     C_R   0.396804 0.098554 0.407198 0.089569
C13   C     C_R   0.719423 0.675830 0.350864 -0.300954
C14   C     C_R   0.292164 0.338554 0.660200 -0.282326
C15   C     C_R   0.789433 0.632893 0.362141 0.360236
C16   C     C_R   0.208078 0.363532 0.634792 0.360573
C17   C     C_R   0.720947 0.519178 0.498896 0.025226
C18   C     C_R   0.286770 0.493238 0.511312 0.030938
C19   C     C_R   0.639084 0.551527 0.480345 0.008419
C20   C     C_R   0.374058 0.468815 0.534807 0.003017
C21   C     C_R   0.639205 0.629185 0.402493 0.102344
C22   C     C_R   0.376282 0.393478 0.614553 0.092432
C23   C     C_R   0.000649 0.499640 0.669036 0.810056
C24   C     C_R   0.999316 0.500285 0.330977 0.813839
C25   C     C_R   0.553747 0.505162 0.530815 -0.018570
C26   C     C_R   0.461271 0.519582 0.486610 -0.014222
C27   C     C_R   0.460912 0.584985 0.396896 -0.045341
C28   C     C_R   0.556053 0.443209 0.622228 -0.048185
C29   C     C_R   0.552451 0.648453 0.364622 -0.242864
C30   C     C_R   0.465610 0.380422 0.656495 -0.239831
C31   C     C_1   0.001737 0.499113 0.771791 -0.173069
C32   C     C_1   0.998182 0.500723 0.228229 -0.193621
C33   C     C_1   0.001453 0.499157 0.857126 0.006625
C34   C     C_1   0.998435 0.500599 0.142902 0.002492
C35   C     C_1   0.000434 0.499600 0.957486 0.019573
C36   C     C_1   0.999430 0.500096 0.042548 0.020679
C37   C     C_R   0.811871 0.204266 0.533379 -0.084620
C38   C     C_R   0.188276 0.796325 0.476141 -0.087885
C39   C     C_R   0.782349 0.033878 0.617999 0.010504
C40   C     C_R   0.216763 0.970357 0.404348 0.011883
C41   C     C_R   0.848902 0.131703 0.584698 -0.221441
C42   C     C_R   0.150858 0.870653 0.432639 -0.217991
C43   C     C_R   0.707683 0.175887 0.507629 -0.202042
C44   C     C_R   0.292443 0.824989 0.503657 -0.198916
Cu1   Cu    Cu3+1 0.081740 0.475690 0.523180 0.942553
Cu2   Cu    Cu3+1 0.918260 0.524310 0.476820 0.953310
H1    H     H_    0.321887 0.766652 0.528115 0.152078
H2    H     H_    0.679199 0.234550 0.480643 0.154430
H3    H     H_    0.070120 0.848571 0.410481 0.181692
H4    H     H_    0.929595 0.154834 0.609387 0.164226
H5    H     H_    0.552360 0.702441 0.299027 0.174826
H6    H     H_    0.466920 0.328723 0.723586 0.181755
H7    H     H_    0.285098 0.558614 0.460378 0.142718
H8    H     H_    0.722594 0.455821 0.553097 0.140361
H9    H     H_    0.717153 0.734193 0.289650 0.148883
H10   H     H_    0.294615 0.280134 0.721251 0.152470
N1    N     N_R   0.795420 0.560790 0.441960 -0.191780
N2    N     N_R   0.204580 0.439210 0.558040 -0.191275
O1    O     O_R   0.977910 0.338120 0.530560 -0.593830
O2    O     O_R   0.022090 0.661880 0.469440 -0.563842
O3    O     O_R   0.839850 0.379180 0.491410 -0.588496
O4    O     O_R   0.160150 0.620820 0.508590 -0.587949
O5    O     O_R   0.069040 0.479460 0.643530 -0.575910
O6    O     O_R   0.930960 0.520540 0.356470 -0.573795
O7    O     O_R   0.930990 0.520530 0.604380 -0.534410
O8    O     O_R   0.069010 0.479470 0.395620 -0.539555
C45   C     C_3   0.626630 0.811677 0.651333 -0.372786
C46   C     C_3   0.548997 0.720548 0.603445 -0.835067
H11   H     H_    0.473929 0.693037 0.626497 0.237495
H12   H     H_    0.541091 0.740767 0.523482 0.264942
H13   H     H_    0.575414 0.657815 0.625511 0.272237
H14   H     H_    0.699648 0.824822 0.631182 0.227835
H15   H     H_    0.631198 0.790965 0.731044 0.233348
C47   C     C_3   0.374703 0.193930 0.380253 -0.363532
C48   C     C_3   0.454307 0.280722 0.433007 -0.834009
H16   H     H_    0.462201 0.255825 0.512459 0.264510
H17   H     H_    0.528988 0.308375 0.409001 0.236402
H18   H     H_    0.429942 0.344781 0.416250 0.273079
H19   H     H_    0.370290 0.219632 0.301060 0.235790
H20   H     H_    0.302183 0.179851 0.402134 0.224038
C49   C     C_2   0.368105 0.577563 0.325915 0.804096
O9    O     O_2   0.360285 0.654182 0.276962 -0.598921
O10   O     O_R   0.290930 0.482368 0.312834 -0.755313
H21   H     H_    0.231698 0.487014 0.262533 0.341566
C50   C     C_2   0.650326 0.452771 0.691686 0.806001
O11   O     O_2   0.719917 0.536001 0.697391 -0.582000
O12   O     O_R   0.658208 0.367091 0.752924 -0.770332
H22   H     H_    0.725788 0.383450 0.797161 0.337987
C51   C     C_2   0.827576 0.977516 0.700145 0.800291
O13   O     O_2   0.902663 0.965581 0.693555 -0.579631
O14   O     O_R   0.787471 0.942719 0.786803 -0.769738
H23   H     H_    0.825520 0.906463 0.837898 0.339897
C52   C     C_2   0.170110 0.030875 0.328640 0.796516
O15   O     O_2   0.204172 0.069164 0.252597 -0.597631
O16   O     O_R   0.083363 0.038983 0.342169 -0.756264
H24   H     H_    0.057260 0.080583 0.284849 0.341534
C53   C     C_3   0.444558 0.837018 0.694689 -0.400086
C54   C     C_3   0.415347 0.905025 0.737032 -0.777328
H25   H     H_    0.483275 0.973939 0.755206 0.260673
H26   H     H_    0.357735 0.927957 0.685203 0.257564
H27   H     H_    0.382598 0.863111 0.804136 0.244168
H28   H     H_    0.376545 0.768655 0.677511 0.193297
H29   H     H_    0.493295 0.808817 0.754169 0.217911
C55   C     C_3   0.548611 0.164538 0.322012 -0.400679
C56   C     C_3   0.579241 0.097255 0.280169 -0.782700
H30   H     H_    0.640766 0.079258 0.330251 0.257075
H31   H     H_    0.512981 0.025565 0.266436 0.262576
H32   H     H_    0.607372 0.137529 0.210632 0.242123
H33   H     H_    0.495633 0.188029 0.263544 0.217664
H34   H     H_    0.614708 0.235802 0.334861 0.190850
C57   C     C_3   0.130688 0.309621 0.703855 -0.380181
C58   C     C_3   0.171612 0.348020 0.801854 -0.826117
H35   H     H_    0.195338 0.431472 0.792288 0.264789
H36   H     H_    0.111546 0.311563 0.848737 0.249577
H37   H     H_    0.237419 0.329158 0.839149 0.248531
H38   H     H_    0.057874 0.315192 0.678797 0.246332
H39   H     H_    0.112455 0.226875 0.715366 0.187000
C59   C     C_3   0.829166 0.647067 0.268544 -0.361884
C60   C     C_3   0.931682 0.734949 0.259045 -0.761826
H40   H     H_    0.934922 0.802170 0.284183 0.245904
H41   H     H_    0.994730 0.713613 0.298710 0.259810
H42   H     H_    0.942210 0.756248 0.181763 0.233619
H43   H     H_    0.823382 0.575730 0.251142 0.212340
H44   H     H_    0.775830 0.665105 0.205966 0.164093

loop_
_geom_bond_atom_site_label_1
_geom_bond_atom_site_label_2
_ccdc_geom_bond_type
C7    C10   A    
C14   H10   S    
O12   H22   S    
C52   O15   D    
C12   C47   S    
C27   C29   A    
O16   H24   S    
C40   C52   S    
C4    C8    A    
C58   H36   S    
C49   O9    D    
C7    C8    A    
C39   C41   A    
Cu1   Cu2   S    
C25   C28   A    
C56   H31   S    
C3    C43   A    
C26   C27   A    
C19   C21   A    
C5    C11   A    
C3    C7    A    
C1    O1    A    
C6    C12   A    
C55   H33   S    
C2    O2    A    
Cu1   O4    S    
C45   H14   S    
C59   C60   S    
C58   H35   S    
C18   H7    S    
C17   C19   A    
C18   N2    A    
C57   C58   S    
C8    C9    A    
C31   C33   T    
C57   H38   S    
C45   H15   S    
C51   O14   S    
C43   H2    S    
C18   C20   A    
C53   H28   S    
C44   H1    S    
C24   O8    A    
C40   C42   A    
C10   C55   S    
C24   O6    A    
C47   H20   S    
C15   N1    A    
C55   C56   S    
C49   O10   S    
C11   C45   S    
C53   C54   S    
C60   H41   S    
C56   H32   S    
Cu1   N2    S    
C47   C48   S    
C50   O12   S    
C45   C46   S    
C27   C49   S    
C6    C40   A    
Cu2   O7    S    
C4    C6    A    
O14   H23   S    
C46   H11   S    
C16   N2    A    
Cu2   O3    S    
C25   C26   A    
C50   O11   D    
C21   C29   A    
Cu1   O5    S    
Cu2   O6    S    
C35   C36   T    
C23   C31   S    
C37   C43   A    
C48   H16   S    
C24   C32   S    
C38   C44   A    
C48   H17   S    
C2    C38   S    
O10   H21   S    
C13   C21   A    
C59   H44   S    
C9    C11   A    
C53   H29   S    
C10   C12   A    
C46   H12   S    
C20   C22   A    
C54   H26   S    
C47   H19   S    
C13   C15   A    
Cu2   N1    S    
C14   C16   A    
C41   H4    S    
Cu1   O8    S    
C29   H5    S    
C60   H42   S    
C30   H6    S    
Cu1   O1    S    
C9    C53   S    
C22   C30   A    
Cu2   O2    S    
C3    C5    A    
C1    O3    A    
C60   H40   S    
C38   C42   A    
C1    C37   S    
C54   H27   S    
C4    C44   A    
C56   H30   S    
C15   C59   S    
C57   H39   S    
C23   O7    A    
C5    C39   A    
C28   C30   A    
C55   H34   S    
C14   C22   A    
C20   C26   A    
C46   H13   S    
C23   O5    A    
C33   C35   S    
C34   C36   S    
C59   H43   S    
C37   C41   A    
C19   C25   A    
C48   H18   S    
C42   H3    S    
C52   O16   S    
C54   H25   S    
C17   N1    A    
C28   C50   S    
C51   O13   D    
C17   H8    S    
C39   C51   S    
C58   H37   S    
C2    O4    A    
C16   C57   S    
C32   C34   T    
C13   H9    S    
