data_mof_unit_1450.cif
_audit_creation_date              2013-03-05T15:53:05-0500
_audit_creation_method            fapswitch 2.2
_symmetry_space_group_name_H-M    P1
_symmetry_Int_Tables_number       1
_space_group_crystal_system       triclinic
_cell_length_a                    9.999999
_cell_length_b                    10.660562
_cell_length_c                    15.469917
_cell_angle_alpha                 95.046122
_cell_angle_beta                  67.979041
_cell_angle_gamma                 89.235302
_cell_volume                      1521.02385173

loop_
_atom_site_label
_atom_site_type_symbol
_atom_site_description
_atom_site_fract_x
_atom_site_fract_y
_atom_site_fract_z
_atom_type_partial_charge
O1    O     O_R   0.385310 0.683220 0.500000 -0.605955
O2    O     O_R   0.614640 0.683250 0.500010 -0.619395
C1    C     C_R   0.505742 0.737017 0.486967 0.910217
O3    O     O_R   0.319840 0.499980 0.632240 -0.594819
O4    O     O_R   0.549160 0.500000 0.632250 -0.619865
C2    C     C_R   0.411221 0.487672 0.673961 0.897425
Zn1   Zn    Zn3+2 0.346880 0.499980 0.499990 0.984570
Zn2   Zn    Zn3+2 0.653120 0.500020 0.500010 0.980350
O5    O     O_R   0.385360 0.316750 0.499990 -0.602535
O6    O     O_R   0.614690 0.316780 0.500000 -0.604439
O7    O     O_R   0.450840 0.500000 0.367750 -0.601822
O8    O     O_R   0.680160 0.500020 0.367760 -0.591553
C3    C     C_R   0.497538 0.260769 0.505510 0.898285
C4    C     C_R   0.590635 0.501184 0.324601 0.894734
C5    C     C_R   0.360642 0.461122 0.771852 -0.116612
C6    C     C_R   0.644779 0.513014 0.224593 -0.087372
C7    C     C_R   0.171525 0.432593 0.921108 -0.116717
C8    C     C_R   0.213400 0.456482 0.827334 -0.189091
C9    C     C_R   0.463364 0.438799 0.811040 0.096286
C10   C     C_R   0.420035 0.453018 0.908010 0.020037
C11   C     C_R   0.274580 0.432925 0.963063 0.085415
C12   C     C_R   0.518152 0.486635 0.950788 0.092501
C13   C     C_R   0.481715 0.469253 0.045814 0.049845
C14   C     C_R   0.341143 0.431158 0.097802 -0.222464
C15   C     C_R   0.237904 0.415224 0.057787 0.166875
C16   C     C_R   0.644872 0.548794 0.902996 -0.174807
C17   C     C_R   0.736733 0.589332 0.947242 -0.192579
C18   C     C_R   0.707287 0.565963 0.039948 0.096598
C19   C     C_R   0.583637 0.498189 0.087180 0.087374
C20   C     C_R   0.795356 0.611203 0.088182 0.157185
C21   C     C_R   0.760801 0.587017 0.181283 -0.182303
C22   C     C_R   0.563087 0.463997 0.175823 -0.221745
H1    H     H_    0.481463 0.400289 0.209492 0.180461
H2    H     H_    0.822508 0.627860 0.220198 0.205262
H3    H     H_    0.830336 0.639007 0.908004 0.199289
H4    H     H_    0.058243 0.422126 0.961201 0.182702
H5    H     H_    0.131842 0.467052 0.797772 0.183405
H6    H     H_    0.304380 0.421595 0.171691 0.183648
H7    H     H_    0.669696 0.573230 0.832384 0.177697
C23   C     C_R   0.250687 0.889254 0.481920 -0.086549
H8    H     H_    0.255590 0.801612 0.439765 0.171483
C24   C     C_R   0.116342 0.954043 0.524628 -0.115729
H9    H     H_    0.021158 0.913290 0.518917 0.167991
C25   C     C_R   0.104231 0.069011 0.577492 -0.086287
H10   H     H_    0.999348 0.116964 0.614294 0.169158
C26   C     C_R   0.228485 0.124756 0.579399 -0.096708
H11   H     H_    0.215718 0.215126 0.620137 0.153342
C27   C     C_R   0.366568 0.064614 0.528477 0.092105
C28   C     C_R   0.375191 0.938920 0.492661 0.092755
C29   C     C_R   0.507900 0.868701 0.470495 -0.201295
C30   C     C_R   0.637285 0.930987 0.451507 0.151416
H12   H     H_    0.730890 0.107959 0.449280 0.197632
C31   C     C_R   0.630530 0.059901 0.468920 -0.197219
C32   C     C_R   0.496822 0.126752 0.508085 -0.156297
H13   H     H_    0.936573 0.349358 0.395927 0.174867
C33   C     C_R   0.777673 0.669474 0.620428 -0.153875
H14   H     H_    0.676513 0.665523 0.617382 0.256822
C34   C     C_R   0.787385 0.758701 0.687016 0.021360
C35   C     C_R   0.917240 0.764913 0.699780 0.101113
C36   C     C_R   0.040897 0.684235 0.639945 0.127380
C37   C     C_R   0.031519 0.588580 0.565377 0.022874
C38   C     C_R   0.889190 0.585662 0.561447 0.107284
N1    N     N_R   0.856800 0.501200 0.500850 -0.110411
C39   C     C_R   0.962519 0.417486 0.442661 -0.088506
C40   C     C_R   0.104120 0.416471 0.442622 0.200732
N2    N     N_R   0.142390 0.501280 0.500880 -0.121469
I1    I     I_    0.033886 0.354771 0.144311 -0.339368
I2    I     I_    0.971796 0.727769 0.030701 -0.281964
I3    I     I_    0.848376 0.842319 0.385516 -0.353822
C41   C     C_3   0.657586 0.847774 0.747410 -0.366437
C42   C     C_3   0.519790 0.838937 0.726979 -0.802446
H15   H     H_    0.541315 0.858540 0.653771 0.265741
H16   H     H_    0.475141 0.744557 0.740451 0.262326
H17   H     H_    0.437467 0.910675 0.774495 0.282099
H18   H     H_    0.627205 0.830395 0.822146 0.241692
H19   H     H_    0.690405 0.946768 0.739001 0.252191
I4    I     I_    0.906276 0.905117 0.817523 -0.310776
I5    I     I_    0.207854 0.744416 0.687860 -0.321530
I6    I     I_    0.247996 0.271877 0.351817 -0.325842
I7    I     I_    0.662233 0.329235 0.732269 -0.381920

loop_
_geom_bond_atom_site_label_1
_geom_bond_atom_site_label_2
_geom_bond_distance
_ccdc_geom_bond_type
C5    C8    1.403162 A    
C40   I6    2.112753 S    
C9    C10   1.389925 A    
C15   I1    2.123274 S    
C35   I4    2.220532 S    
C31   C32   1.397818 A    
H12   C31   1.083720 S    
C6    C21   1.397097 A    
C5    C9    1.401857 A    
C36   I5    2.149762 S    
C16   C17   1.388949 A    
C13   C19   1.416425 A    
C18   C19   1.422686 A    
C8    H5    1.083193 S    
C19   C22   1.390753 A    
C20   C21   1.398123 A    
O7    C4    1.304677 A    
C16   H7    1.082199 S    
C23   C28   1.419621 A    
C33   H14   1.031431 S    
O5    C3    1.297985 A    
C2    C5    1.460848 S    
C37   N2    1.438907 A    
C14   H6    1.076331 S    
C13   C14   1.418695 A    
C41   C42   1.527218 S    
C7    H4    1.081244 S    
C23   C24   1.395617 A    
C35   C36   1.448747 A    
C9    I7    2.162040 S    
C24   C25   1.389624 A    
O3    Zn1   1.960604 S    
C1    C29   1.447658 S    
C25   C26   1.393578 A    
C29   C30   1.404806 A    
C26   C27   1.417788 A    
C14   C15   1.394022 A    
O3    C2    1.312554 A    
C42   H16   1.110946 S    
C34   C41   1.536549 S    
C17   H3    1.081099 S    
C34   C35   1.386317 A    
C7    C11   1.408749 A    
C36   C37   1.502037 A    
C30   C31   1.372790 A    
C27   C32   1.409468 A    
C38   N1    1.371644 A    
O4    Zn2   1.916005 S    
Zn1   O7    1.916006 S    
Zn2   O8    1.960601 S    
H13   C39   1.082038 S    
C7    C8    1.398919 A    
C21   H2    1.082788 S    
C23   H8    1.080845 S    
O8    C4    1.302619 A    
C40   N2    1.378643 A    
C41   H19   1.113437 S    
C33   C38   1.393350 A    
C24   H9    1.081627 S    
C17   C18   1.397760 A    
C25   H10   1.082693 S    
C3    C32   1.432791 S    
Zn1   O5    1.985830 S    
C11   C15   1.401755 A    
C26   H11   1.082202 S    
C27   C28   1.392998 A    
O1    Zn1   1.995909 S    
O2    Zn2   1.985831 S    
C10   C12   1.408419 A    
O6    C3    1.299618 A    
C42   H17   1.110601 S    
C6    C22   1.383422 A    
C39   C40   1.415679 A    
C18   C20   1.416260 A    
O2    C1    1.312860 A    
C42   H15   1.110246 S    
C22   H1    1.075642 S    
Zn1   N2    2.039630 S    
O4    C2    1.299481 A    
C33   C34   1.371304 A    
C4    C6    1.452789 S    
C37   C38   1.447817 A    
Zn2   N1    2.041907 S    
N1    C39   1.358040 A    
C10   C11   1.413643 A    
Zn2   O6    1.995908 S    
C28   C29   1.423450 A    
C12   C16   1.413348 A    
C41   H18   1.113154 S    
C12   C13   1.405765 A    
C30   I3    2.133682 S    
O1    C1    1.294852 A    
C20   I2    2.127059 S    
