data_mof_unit_3894.cif
_audit_creation_date              2012-12-10T17:50:38-0500
_audit_creation_method            fapswitch 2.2
_symmetry_space_group_name_H-M    P1
_symmetry_Int_Tables_number       1
_space_group_crystal_system       triclinic
_cell_length_a                    15.714013
_cell_length_b                    10.630786
_cell_length_c                    9.936611
_cell_angle_alpha                 89.998396
_cell_angle_beta                  89.980348
_cell_angle_gamma                 91.674039
_cell_volume                      1659.22525571

loop_
_atom_site_label
_atom_site_type_symbol
_atom_type_description
_atom_site_fract_x
_atom_site_fract_y
_atom_site_fract_z
_atom_type_partial_charge
C1    C     C_R   0.501329 0.260725 0.500064 0.933207
C2    C     C_3   0.082698 0.497199 0.499175 0.083084
C3    C     C_3   0.973725 0.592632 0.578061 -0.240818
C4    C     C_3   0.917135 0.497596 0.500504 0.108838
C5    C     C_3   0.030198 0.607867 0.450871 -0.237133
C6    C     C_3   0.971730 0.513096 0.373339 -0.109444
C7    C     C_1   0.173646 0.497550 0.499736 0.006058
C8    C     C_1   0.826239 0.498448 0.500366 -0.035172
C9    C     C_R   0.648596 0.137861 0.607604 -0.136136
C10   C     C_R   0.718158 0.075450 0.659648 -0.129982
C11   C     C_R   0.718347 0.944544 0.659818 -0.141441
C12   C     C_R   0.338048 0.499512 0.500000 0.908412
C13   C     C_R   0.649010 0.875614 0.607826 -0.159442
C14   C     C_R   0.577685 0.937527 0.555546 0.097602
C15   C     C_R   0.577389 0.069376 0.555481 0.023254
C16   C     C_R   0.506183 0.128498 0.500050 -0.235892
C17   C     C_R   0.438058 0.060913 0.442799 0.593367
C18   C     C_R   0.438764 0.932337 0.442304 -0.271622
C19   C     C_R   0.506965 0.871768 0.499811 -0.192397
C20   C     C_R   0.388564 0.335002 0.139731 -0.109673
C21   C     C_R   0.333791 0.253377 0.069752 -0.145196
C22   C     C_R   0.333858 0.253185 0.930455 -0.187585
C23   C     C_R   0.502023 0.739309 0.499964 0.898897
C24   C     C_R   0.388670 0.334652 0.860281 -0.128916
C25   C     C_R   0.445198 0.418526 0.927771 0.165661
C26   C     C_R   0.445180 0.418637 0.072197 0.138223
C27   C     C_R   0.552460 0.577941 0.071378 -0.097352
C28   C     C_R   0.552430 0.577928 0.928420 -0.099817
C29   C     C_R   0.661945 0.500361 0.500012 0.864791
C30   C     C_3   0.969322 0.386592 0.548985 -0.242459
C31   C     C_3   0.025864 0.402373 0.421851 -0.226968
C32   C     C_1   0.249025 0.498378 0.499988 -0.145065
C33   C     C_1   0.750909 0.499405 0.500125 -0.185335
C34   C     C_3   0.027387 0.481932 0.624282 0.699966
H1    H     H_    0.049231 0.325083 0.357799 0.170448
H2    H     H_    0.772653 0.896244 0.699342 0.137166
H3    H     H_    0.652380 0.774158 0.607531 0.133931
H4    H     H_    0.385198 0.879496 0.399564 0.176516
H5    H     H_    0.595358 0.641737 0.124848 0.148025
H6    H     H_    0.384613 0.329976 0.246397 0.239740
H7    H     H_    0.290948 0.189987 0.124120 0.190409
H8    H     H_    0.291071 0.189636 0.876235 0.168821
H9    H     H_    0.384755 0.329195 0.753541 0.208895
H10   H     H_    0.595288 0.641744 0.874810 0.145664
H11   H     H_    0.942595 0.296779 0.590274 0.152392
H12   H     H_    0.946550 0.525943 0.270024 0.157134
H13   H     H_    0.057073 0.697915 0.410424 0.167365
H14   H     H_    0.950598 0.669555 0.642860 0.153262
H15   H     H_    0.651723 0.239520 0.607303 0.144080
H16   H     H_    0.772327 0.128860 0.699025 0.138394
N1    N     N_R   0.499210 0.498800 0.142780 -0.123331
N2    N     N_R   0.499180 0.498720 0.857170 -0.121444
O1    O     O_R   0.500000 0.316780 0.614690 -0.649429
O2    O     O_R   0.499990 0.316750 0.385360 -0.613603
O3    O     O_R   0.376780 0.500000 0.614650 -0.624087
O4    O     O_R   0.376770 0.499980 0.385310 -0.633705
O5    O     O_R   0.500010 0.683250 0.614640 -0.613347
O6    O     O_R   0.500000 0.683220 0.385310 -0.612918
O7    O     O_R   0.623230 0.500020 0.614690 -0.626838
O8    O     O_R   0.623220 0.500000 0.385350 -0.609662
Zn1   Zn    Zn3+2 0.500010 0.500020 0.653130 0.944741
Zn2   Zn    Zn3+2 0.499990 0.499980 0.346870 0.956261
F1    F     F_    0.058468 0.465905 0.753117 -0.665304
F2    F     F_    0.369804 0.119734 0.390961 -0.703091

loop_
_geom_bond_atom_site_label_1
_geom_bond_atom_site_label_2
_ccdc_geom_bond_type
O6    Zn2   S    
C23   O6    A    
C19   C23   S    
C1    O2    A    
C24   C25   A    
O5    Zn1   S    
C13   C14   A    
C28   N2    A    
C9    C10   A    
C29   O7    A    
C30   H11   S    
C13   H3    S    
C2    C7    S    
C29   O8    A    
C30   C31   S    
C4    C8    S    
C2    C34   S    
C17   C18   A    
C18   H4    S    
C25   N2    A    
C1    C16   S    
C12   O4    A    
C21   C22   A    
C12   C32   S    
C11   C13   A    
C10   H16   S    
C22   H8    S    
N1    Zn2   S    
C20   C26   A    
C21   H7    S    
O3    Zn1   S    
C31   H1    S    
C4    C6    S    
C34   F1    S    
C5    H13   S    
C27   N1    A    
C6    C31   S    
C22   C24   A    
N2    Zn1   S    
C17   F2    S    
C9    C15   A    
C5    C6    S    
C20   H6    S    
O4    Zn2   S    
O7    Zn1   S    
C12   O3    A    
C16   C17   A    
C10   C11   A    
C30   C34   S    
O1    Zn1   S    
C3    C4    S    
C2    C5    S    
C29   C33   S    
C3    H14   S    
C9    H15   S    
C20   C21   A    
O8    Zn2   S    
C18   C19   A    
C27   C28   A    
C23   O5    A    
C24   H9    S    
C1    O1    A    
C14   C15   A    
C2    C31   S    
C7    C32   T    
C6    H12   S    
C3    C34   S    
C25   C26   A    
C26   N1    A    
O2    Zn2   S    
C14   C19   A    
C28   H10   S    
C4    C30   S    
C15   C16   A    
C27   H5    S    
C8    C33   T    
C3    C5    S    
C11   H2    S    
