data_mof_unit_4431.cif
_audit_creation_date              2012-12-10T18:03:17-0500
_audit_creation_method            fapswitch 2.2
_symmetry_space_group_name_H-M    P1
_symmetry_Int_Tables_number       1
_space_group_crystal_system       triclinic
_cell_length_a                    10.771925
_cell_length_b                    9.525706
_cell_length_c                    15.127477
_cell_angle_alpha                 89.963659
_cell_angle_beta                  90.383624
_cell_angle_gamma                 89.930059
_cell_volume                      1552.19702854

loop_
_atom_site_label
_atom_site_type_symbol
_atom_type_description
_atom_site_fract_x
_atom_site_fract_y
_atom_site_fract_z
_atom_type_partial_charge
C1    C     C_R   0.262633 0.500093 0.499621 0.841467
C2    C     C_R   0.737370 0.499908 0.500378 0.840598
C3    C     C_R   0.500242 0.500030 0.329939 0.767575
C4    C     C_R   0.499582 0.499959 0.670056 0.767304
C5    C     C_R   0.423726 0.074570 0.444178 -0.018370
C6    C     C_R   0.576281 0.925435 0.555814 -0.020317
C7    C     C_R   0.576272 0.074227 0.555818 -0.019525
C8    C     C_R   0.423720 0.925778 0.444188 -0.021476
C9    C     C_R   0.063765 0.473306 0.419547 0.138466
C10   C     C_R   0.936254 0.526442 0.580488 0.136722
C11   C     C_R   0.933171 0.473149 0.420430 0.127418
C12   C     C_R   0.066841 0.527110 0.579534 0.130047
C13   C     C_R   0.537956 0.619653 0.095247 -0.172242
C14   C     C_R   0.538115 0.380344 0.905052 -0.171739
C15   C     C_R   0.460132 0.619441 0.904523 -0.172249
C16   C     C_R   0.460834 0.380416 0.095132 -0.170469
C17   C     C_R   0.537591 0.619938 0.187124 -0.190992
C18   C     C_R   0.537521 0.380056 0.813173 -0.186705
C19   C     C_R   0.460919 0.619696 0.812650 -0.188547
C20   C     C_R   0.461851 0.380161 0.187010 -0.186857
C21   C     C_R   0.499939 0.500044 0.233466 -0.022739
C22   C     C_R   0.499325 0.499889 0.766519 -0.024163
C23   C     C_R   0.499261 0.500011 0.048549 0.106486
C24   C     C_R   0.499119 0.499920 0.951427 0.106579
C25   C     C_R   0.871403 0.499679 0.500729 -0.112701
C26   C     C_R   0.128610 0.500310 0.499270 -0.112263
Cu1   Cu    Cu3+1 0.500000 0.640660 0.500000 0.937679
Cu2   Cu    Cu3+1 0.500000 0.359340 0.500000 0.939138
N1    N     N_R   0.500000 0.852070 0.500000 -0.159510
N2    N     N_R   0.500000 0.147930 0.500000 -0.157807
O1    O     O_R   0.319640 0.618740 0.499990 -0.580036
O2    O     O_R   0.680360 0.381260 0.500010 -0.580030
O3    O     O_R   0.680360 0.618740 0.500010 -0.577225
O4    O     O_R   0.319640 0.381260 0.499990 -0.577066
O5    O     O_R   0.499990 0.618780 0.371460 -0.585557
O6    O     O_R   0.500010 0.381220 0.628540 -0.584490
O7    O     O_R   0.500010 0.618780 0.628540 -0.589164
O8    O     O_R   0.499990 0.381220 0.371460 -0.588293
H1    H     H_    0.362601 0.130760 0.399455 0.119596
H2    H     H_    0.637425 0.869252 0.600523 0.124283
H3    H     H_    0.637388 0.130133 0.600546 0.118964
H4    H     H_    0.362586 0.869878 0.399475 0.123799
H5    H     H_    0.569951 0.712334 0.060778 0.125239
H6    H     H_    0.570548 0.287728 0.939786 0.124616
H7    H     H_    0.427666 0.712085 0.938824 0.125009
H8    H     H_    0.428599 0.287718 0.060564 0.124483
H9    H     H_    0.568335 0.713179 0.221848 0.148628
H10   H     H_    0.568563 0.286883 0.778708 0.142839
H11   H     H_    0.429943 0.712840 0.777753 0.148556
H12   H     H_    0.431246 0.286963 0.221638 0.142528
C27   C     C_3   0.132530 0.446505 0.333710 -0.855934
H13   H     H_    0.234796 0.449824 0.339973 0.215451
H14   H     H_    0.108445 0.340763 0.307983 0.232185
H15   H     H_    0.106780 0.527815 0.284237 0.233164
C28   C     C_3   0.867487 0.552373 0.666412 -0.852792
H16   H     H_    0.765242 0.547825 0.660280 0.216255
H17   H     H_    0.894060 0.471268 0.715805 0.231636
H18   H     H_    0.890732 0.658336 0.692158 0.233532
C29   C     C_3   0.856805 0.446893 0.336942 -0.835012
H19   H     H_    0.798569 0.351927 0.345824 0.237857
H20   H     H_    0.795361 0.538411 0.323903 0.217900
H21   H     H_    0.911928 0.430043 0.276509 0.236237
C30   C     C_3   0.143204 0.554139 0.662934 -0.840072
H22   H     H_    0.201357 0.649100 0.653760 0.234263
H23   H     H_    0.088079 0.571504 0.723317 0.236453
H24   H     H_    0.204742 0.462819 0.676279 0.221390

loop_
_geom_bond_atom_site_label_1
_geom_bond_atom_site_label_2
_ccdc_geom_bond_type
C1    O4    A    
C5    C8    A    
C27   H14   S    
C23   C24   S    
C30   H23   S    
C28   H17   S    
C6    C7    A    
C3    O5    A    
C16   C23   A    
C4    C22   S    
C14   C18   A    
C9    C27   S    
Cu2   O8    S    
C13   H5    S    
C16   C20   A    
C27   H15   S    
C19   C22   A    
C28   H16   S    
C7    H3    S    
C30   H24   S    
Cu2   O4    S    
C29   H19   S    
C7    N2    A    
Cu1   O3    S    
C15   C19   A    
C10   C28   S    
C9    C11   A    
C13   C23   A    
C10   C12   A    
C14   C24   A    
Cu1   O7    S    
C11   C29   S    
C8    N1    A    
C2    O3    A    
Cu2   N2    S    
C15   C24   A    
C4    O7    A    
C8    H4    S    
C9    C26   A    
C2    C25   S    
C5    H1    S    
C1    C26   S    
C6    H2    S    
C19   H11   S    
C29   H20   S    
C10   C25   A    
C3    C21   S    
C15   H7    S    
C30   H22   S    
Cu1   O1    S    
C13   C17   A    
C17   H9    S    
C1    O1    A    
C6    N1    A    
C4    O6    A    
Cu2   O6    S    
C14   H6    S    
C5    N2    A    
C28   H18   S    
C16   H8    S    
Cu1   N1    S    
C12   C30   S    
C11   C25   A    
C29   H21   S    
C20   H12   S    
Cu1   O5    S    
C20   C21   A    
C18   C22   A    
Cu2   O2    S    
C17   C21   A    
C27   H13   S    
C3    O8    A    
C12   C26   A    
C2    O2    A    
Cu1   Cu2   S    
C18   H10   S    
