data_mof_unit_1326.cif
_audit_creation_date              2013-03-05T15:41:28-0500
_audit_creation_method            fapswitch 2.2
_symmetry_space_group_name_H-M    P1
_symmetry_Int_Tables_number       1
_space_group_crystal_system       triclinic
_cell_length_a                    11.681044
_cell_length_b                    18.603947
_cell_length_c                    10.110387
_cell_angle_alpha                 90.038302
_cell_angle_beta                  109.807185
_cell_angle_gamma                 90.071384
_cell_volume                      2067.13521197

loop_
_atom_site_label
_atom_site_type_symbol
_atom_site_description
_atom_site_fract_x
_atom_site_fract_y
_atom_site_fract_z
_atom_type_partial_charge
O1    O     O_R   0.267710 0.668200 0.902110 -0.493136
O2    O     O_R   0.732290 0.331800 0.097890 -0.500088
O3    O     O_R   0.732290 0.168200 0.097890 -0.500542
O4    O     O_R   0.267710 0.831800 0.902110 -0.500259
O5    O     O_R   0.099480 0.674460 0.038850 -0.422999
O6    O     O_R   0.900520 0.325540 0.961150 -0.429745
O7    O     O_R   0.900520 0.174460 0.961150 -0.428823
O8    O     O_R   0.099480 0.825540 0.038850 -0.430546
C1    C     C_R   0.077407 0.645273 0.143117 0.584877
C2    C     C_R   0.920962 0.355270 0.856329 0.589823
C3    C     C_R   0.921934 0.145134 0.856641 0.598005
C4    C     C_R   0.080080 0.855627 0.143994 0.593127
O9    O     O_R   0.116720 0.669210 0.267660 -0.504950
O10   O     O_R   0.883280 0.330790 0.732340 -0.506081
O11   O     O_R   0.883280 0.169210 0.732340 -0.503208
O12   O     O_R   0.116720 0.830790 0.267660 -0.505612
O13   O     O_R   0.366710 0.675440 0.427590 -0.501619
O14   O     O_R   0.633290 0.324560 0.572410 -0.517847
O15   O     O_R   0.633290 0.175440 0.572410 -0.508131
O16   O     O_R   0.366710 0.824560 0.427590 -0.516047
C5    C     C_R   0.469344 0.646720 0.441513 0.526333
C6    C     C_R   0.531973 0.353949 0.560335 0.585983
C7    C     C_R   0.530469 0.146606 0.558306 0.532508
C8    C     C_R   0.468788 0.853642 0.440673 0.578616
O17   O     O_R   0.534870 0.669390 0.371760 -0.530565
O18   O     O_R   0.465130 0.330610 0.628240 -0.511372
O19   O     O_R   0.465130 0.169390 0.628240 -0.497118
O20   O     O_R   0.534870 0.830610 0.371760 -0.523814
O21   O     O_R   0.453080 0.674480 0.075160 -0.501752
O22   O     O_R   0.546920 0.325520 0.924840 -0.504279
O23   O     O_R   0.546920 0.174480 0.924840 -0.497495
O24   O     O_R   0.453080 0.825520 0.075160 -0.502117
C9    C     C_R   0.375624 0.645097 0.965366 0.544619
C10   C     C_R   0.624001 0.354539 0.035421 0.544841
C11   C     C_R   0.623884 0.145511 0.035423 0.543397
C12   C     C_R   0.375841 0.854758 0.965126 0.544290
Cr1   Cr    Cr6+3 0.187610 0.750000 0.979860 1.163502
Cr2   Cr    Cr6+3 0.812390 0.250000 0.020140 1.149496
Cr3   Cr    Cr6+3 0.245810 0.750000 0.341640 1.046330
Cr4   Cr    Cr6+3 0.754190 0.250000 0.658360 1.044860
Cr5   Cr    Cr6+3 0.485760 0.750000 0.219910 1.033804
Cr6   Cr    Cr6+3 0.514240 0.250000 0.780090 1.062240
O25   O     O_3   0.306390 0.750000 0.180470 -0.297166
O26   O     O_3   0.693610 0.250000 0.819530 -0.300606
C13   C     C_R   0.503361 0.425089 0.490922 0.030801
C14   C     C_R   0.499696 0.575678 0.511191 -0.042346
C15   C     C_R   0.498732 0.924472 0.511784 0.031713
C16   C     C_R   0.500766 0.075037 0.489549 -0.045949
C17   C     C_R   0.287488 0.421251 0.481426 -0.001238
C18   C     C_R   0.714051 0.579973 0.514412 0.010372
C19   C     C_R   0.715816 0.921387 0.524051 0.010171
C20   C     C_R   0.283864 0.077479 0.479709 0.017899
C21   C     C_R   0.203942 0.451302 0.539311 0.013990
C22   C     C_R   0.797018 0.549364 0.456172 0.069750
C23   C     C_R   0.802350 0.953104 0.471982 0.022451
C24   C     C_R   0.196047 0.044797 0.528793 0.070118
C25   C     C_R   0.217510 0.523199 0.582011 -0.063772
C26   C     C_R   0.785845 0.476710 0.419397 -0.086434
C27   C     C_R   0.785797 0.024147 0.424703 -0.080886
C28   C     C_R   0.213179 0.973794 0.575932 -0.096944
C29   C     C_R   0.312862 0.564473 0.570944 -0.118322
C30   C     C_R   0.691382 0.435540 0.433012 -0.118173
C31   C     C_R   0.688157 0.064342 0.431442 -0.122595
C32   C     C_R   0.311938 0.934341 0.570627 -0.121596
C33   C     C_R   0.403042 0.533924 0.525305 -0.013103
C34   C     C_R   0.600572 0.466570 0.477176 -0.015723
C35   C     C_R   0.598413 0.033545 0.477346 -0.013372
C36   C     C_R   0.401490 0.965687 0.525107 -0.013934
C37   C     C_R   0.396922 0.459785 0.494956 0.015090
C38   C     C_R   0.605909 0.541038 0.504964 -0.043371
C39   C     C_R   0.605426 0.959460 0.508609 0.017060
C40   C     C_R   0.394346 0.039803 0.494509 -0.045387
H1    H     H_    0.155806 0.547582 0.628278 0.220061
H2    H     H_    0.847371 0.451983 0.373250 0.207997
H3    H     H_    0.848679 0.049173 0.381036 0.185949
H4    H     H_    0.149348 0.948075 0.617378 0.193083
H5    H     H_    0.320875 0.618970 0.610509 0.147205
H6    H     H_    0.684030 0.380798 0.394943 0.153523
H7    H     H_    0.678976 0.118450 0.389981 0.144981
H8    H     H_    0.321560 0.880141 0.611714 0.150815
H9    H     H_    0.436766 0.063567 0.898737 0.176329
H10   H     H_    0.557204 0.938634 0.109235 0.171524
H11   H     H_    0.557877 0.561667 0.108861 0.165307
H12   H     H_    0.435448 0.435790 0.900690 0.167603
C41   C     C_2   0.403038 0.925645 0.926918 -0.097548
C42   C     C_2   0.595612 0.075359 0.075925 -0.109008
C43   C     C_2   0.595918 0.424760 0.075914 -0.098252
C44   C     C_2   0.402331 0.573932 0.927954 -0.106469
C45   C     C_2   0.493208 0.963009 0.015373 -0.137515
C46   C     C_2   0.502244 0.038843 0.991064 -0.140498
C47   C     C_2   0.501772 0.460906 0.992062 -0.136506
C48   C     C_2   0.493019 0.536883 0.015922 -0.142770
H13   H     H_    0.663351 0.048233 0.161357 0.118184
H14   H     H_    0.336635 0.952325 0.839611 0.118365
H15   H     H_    0.335297 0.546828 0.841905 0.109799
H16   H     H_    0.664221 0.452277 0.160188 0.106421
C49   C     C_2   0.044857 0.930559 0.131828 -0.026667
C50   C     C_2   0.960696 0.071005 0.869584 -0.017450
C51   C     C_2   0.957938 0.429851 0.868695 -0.039527
C52   C     C_2   0.036587 0.571389 0.129576 -0.048365
C53   C     C_2   0.999184 0.961786 0.006687 0.149534
C54   C     C_2   0.009618 0.040133 0.994556 0.154835
C55   C     C_2   0.002372 0.461481 0.993718 0.149373
C56   C     C_2   0.992089 0.539885 0.004426 0.137542
H17   H     H_    0.922595 0.038787 0.775505 0.170764
H18   H     H_    0.081795 0.962427 0.226655 0.163081
H19   H     H_    0.070832 0.539600 0.224409 0.181840
H20   H     H_    0.922013 0.461334 0.773516 0.173142
C57   C     C_2   0.108419 0.407256 0.566896 0.254925
H21   H     H_    0.106699 0.349287 0.557207 0.111631
O27   O     O_2   0.032054 0.435330 0.607201 -0.504523
C58   C     C_2   0.886957 0.593430 0.418430 0.297433
H22   H     H_    0.875042 0.650892 0.402539 0.148869
O28   O     O_2   0.973830 0.565403 0.398777 -0.519424
C59   C     C_2   0.907868 0.913018 0.459353 0.242952
H23   H     H_    0.946857 0.867214 0.524611 0.131855
O29   O     O_2   0.953727 0.931277 0.372939 -0.528853
C60   C     C_2   0.087562 0.083060 0.536779 0.297250
H24   H     H_    0.043073 0.125059 0.463847 0.194557
O30   O     O_2   0.045029 0.067218 0.627337 -0.540347
C61   C     C_2   0.256138 0.352614 0.399875 0.350383
H25   H     H_    0.171314 0.325395 0.386563 0.178186
O31   O     O_2   0.320470 0.327665 0.337933 -0.459838
C62   C     C_2   0.740920 0.649729 0.592805 0.329990
H26   H     H_    0.679265 0.670222 0.643426 0.156378
O32   O     O_2   0.833789 0.683743 0.608151 -0.485250
C63   C     C_2   0.740677 0.849487 0.593942 0.334947
H27   H     H_    0.810252 0.814864 0.582129 0.146970
O33   O     O_2   0.683296 0.827900 0.667027 -0.458944
C64   C     C_2   0.262769 0.149392 0.410674 0.344596
H28   H     H_    0.310643 0.163810 0.339402 0.167034
O34   O     O_2   0.199619 0.194772 0.438956 -0.531583
N1    N     N_R   0.067679 0.083597 0.116057 0.045341
O35   O     O_R   0.148219 0.130816 0.110718 -0.340563
O36   O     O_R   0.017316 0.089564 0.212132 -0.371399
N2    N     N_R   0.939684 0.918629 0.885183 0.050230
O37   O     O_R   0.859582 0.871590 0.892354 -0.275672
O38   O     O_R   0.988016 0.912640 0.787202 -0.385278
N3    N     N_R   0.937643 0.582738 0.881344 0.057236
O39   O     O_R   0.857328 0.630775 0.883180 -0.323717
O40   O     O_R   0.989150 0.586112 0.785770 -0.305234
N4    N     N_R   0.060333 0.418710 0.115993 0.047494
O41   O     O_R   0.139088 0.370725 0.109430 -0.291037
O42   O     O_R   0.011374 0.413851 0.213693 -0.380278

loop_
_geom_bond_atom_site_label_1
_geom_bond_atom_site_label_2
_geom_bond_distance
_ccdc_geom_bond_type
C26   C30   1.387120 A    
C51   C55   1.329305 D    
O4    C12   1.279308 A    
C53   C54   1.471167 S    
O23   Cr6   1.971525 S    
C23   C27   1.396992 A    
Cr5   O25   1.995688 S    
O15   C7    1.277821 A    
C58   O28   1.216117 D    
O1    C9    1.279884 A    
C31   H7    1.082061 S    
O7    C3    1.286611 A    
H11   C48   1.088852 S    
C26   H2    1.083320 S    
C18   C22   1.413470 A    
C50   H17   1.083396 S    
Cr6   O26   1.995688 S    
C3    C50   1.444194 S    
C32   C36   1.404006 A    
C9    C44   1.439979 S    
C41   C45   1.323389 D    
C43   C47   1.323288 D    
C57   O27   1.217269 D    
C11   C42   1.439215 S    
C33   C37   1.409242 A    
O5    Cr1   1.950406 S    
C59   H23   1.080247 S    
O21   C9    1.291106 A    
O20   Cr5   2.081589 S    
C52   C56   1.329375 D    
O13   Cr3   1.961740 S    
C25   H1    1.083107 S    
O14   Cr4   1.961739 S    
C60   H24   1.079986 S    
C1    O9    1.265538 A    
C3    O11   1.265134 A    
C4    O12   1.264346 A    
O3    Cr2   2.075034 S    
C29   H5    1.081924 S    
C59   O29   1.217689 D    
O24   Cr5   1.971523 S    
O6    Cr2   1.950405 S    
H12   C47   1.088777 S    
C7    O19   1.276031 A    
C19   C23   1.416533 A    
O1    Cr1   2.075973 S    
O2    C10   1.279908 A    
C44   H15   1.077509 S    
C17   C37   1.430308 A    
C32   H8    1.082188 S    
C19   C39   1.433456 A    
C16   C40   1.420467 A    
C58   H22   1.083258 S    
Cr2   O26   2.032655 S    
C31   C35   1.403991 A    
C61   O31   1.221383 D    
O22   C10   1.291463 A    
C13   C37   1.414389 A    
C44   C48   1.323791 D    
C18   C62   1.496605 S    
C14   C33   1.416203 A    
N2    O38   1.300583 A    
C2    O10   1.263880 A    
O17   Cr5   2.084098 S    
C47   C48   1.443312 S    
O16   Cr3   1.958427 S    
C30   C34   1.407126 A    
Cr3   O25   1.984301 S    
C50   C54   1.328658 D    
C28   H4    1.082400 S    
O13   C5    1.276680 A    
C24   C28   1.396036 A    
C36   C40   1.409706 A    
Cr1   O25   2.032655 S    
C64   O34   1.217713 D    
C63   O33   1.221443 D    
O5    C1    1.287329 A    
C20   C40   1.432023 A    
C42   H13   1.079457 S    
C41   H14   1.079215 S    
O2    Cr2   2.075972 S    
O3    C11   1.279399 A    
O8    C4    1.287443 A    
C17   C61   1.495747 S    
C43   H16   1.078100 S    
C61   H25   1.079152 S    
C22   C58   1.480310 S    
H10   C45   1.088882 S    
C15   C39   1.415319 A    
C4    C49   1.447448 S    
H9    C46   1.088811 S    
C51   H20   1.082980 S    
C1    C52   1.445444 S    
C42   C46   1.323003 D    
N1    O35   1.300818 A    
N4    O42   1.301450 A    
O8    Cr1   1.951678 S    
C49   H18   1.084014 S    
C63   H27   1.075464 S    
C55   N4    1.433622 S    
C27   H3    1.081841 S    
C15   C36   1.414935 A    
C55   C56   1.470633 S    
C14   C38   1.418951 A    
O18   Cr6   2.084097 S    
C62   O32   1.218780 D    
C5    C14   1.483882 S    
C22   C26   1.395800 A    
C53   N2    1.433675 S    
C21   C57   1.484317 S    
C5    O17   1.275343 A    
C52   H19   1.081897 S    
C21   C25   1.397469 A    
C7    C16   1.486807 S    
O21   Cr5   1.969451 S    
O14   C6    1.272111 A    
C8    C15   1.484178 S    
C24   C60   1.480061 S    
C30   H6    1.081456 S    
C8    O20   1.276629 A    
N2    O37   1.300223 A    
O6    C2    1.287649 A    
N3    O39   1.301158 A    
O24   C12   1.292019 A    
C25   C29   1.387501 A    
C12   C41   1.439491 S    
C27   C31   1.385418 A    
C56   N3    1.433464 S    
C28   C32   1.384345 A    
C20   C64   1.491080 S    
C64   H28   1.084861 S    
C18   C38   1.430154 A    
C54   N1    1.433700 S    
C19   C63   1.495352 S    
C57   H21   1.082365 S    
N3    O40   1.301402 A    
O19   Cr6   2.081591 S    
C34   C38   1.410511 A    
C23   C59   1.483410 S    
C17   C21   1.412597 A    
O23   C11   1.292100 A    
O7    Cr2   1.951680 S    
C35   C39   1.410521 A    
C10   C43   1.439869 S    
C16   C35   1.417577 A    
C2    C51   1.445348 S    
C60   O30   1.216674 D    
O11   Cr4   2.082084 S    
O9    Cr3   2.078647 S    
O15   Cr4   1.958428 S    
O12   Cr3   2.082083 S    
O10   Cr4   2.078646 S    
C29   C33   1.405734 A    
Cr4   O26   1.984302 S    
C6    C13   1.482976 S    
O4    Cr1   2.075032 S    
C6    O18   1.277639 A    
C13   C34   1.417458 A    
N1    O36   1.299704 A    
N4    O41   1.300366 A    
O22   Cr6   1.969450 S    
C45   C46   1.442082 S    
O16   C8    1.274122 A    
C49   C53   1.329362 D    
C20   C24   1.418465 A    
C62   H26   1.084522 S    
