data_mof_unit_594.cif
_audit_creation_date              2012-12-10T20:41:56-0500
_audit_creation_method            fapswitch 2.2
_symmetry_space_group_name_H-M    P1
_symmetry_Int_Tables_number       1
_space_group_crystal_system       triclinic
_cell_length_a                    15.057142
_cell_length_b                    15.095385
_cell_length_c                    9.865917
_cell_angle_alpha                 90.478023
_cell_angle_beta                  89.547057
_cell_angle_gamma                 89.944005
_cell_volume                      2242.30804688

loop_
_atom_site_label
_atom_site_type_symbol
_atom_type_description
_atom_site_fract_x
_atom_site_fract_y
_atom_site_fract_z
_atom_type_partial_charge
C1    C     C_R   0.379243 0.880948 0.499750 0.897726
C2    C     C_R   0.380406 0.120103 0.500739 0.876886
C3    C     C_R   0.878318 0.381542 0.500127 0.904731
C4    C     C_R   0.882838 0.623071 0.500486 0.875356
C5    C     C_3   0.184497 0.111232 0.621805 -0.570565
C6    C     C_3   0.253142 0.820136 0.749972 -0.535341
C7    C     C_3   0.765422 0.699823 0.748625 -0.535593
C8    C     C_3   0.809339 0.261263 0.747062 -0.516259
C9    C     C_R   0.421872 0.996231 0.072194 0.212393
C10   C     C_R   0.929703 0.465772 0.072002 0.224785
C11   C     C_R   0.577171 0.995051 0.070963 -0.157368
C12   C     C_R   0.072728 0.526089 0.071346 -0.123358
C13   C     C_R   0.577185 0.995226 0.926932 -0.112358
C14   C     C_R   0.072750 0.526024 0.927457 -0.094076
C15   C     C_R   0.421863 0.995772 0.929709 0.206327
C16   C     C_R   0.929593 0.465918 0.929276 0.215690
C17   C     C_3   0.347839 0.061197 0.925771 -0.509023
C18   C     C_3   0.836621 0.499702 0.927452 -0.530712
C19   C     C_3   0.348494 0.062402 0.079502 -0.489382
C20   C     C_3   0.836374 0.497841 0.080827 -0.509187
C21   C     C_R   0.618182 0.121771 0.500018 0.856406
C22   C     C_R   0.622929 0.883022 0.499225 0.921119
C23   C     C_R   0.119249 0.620577 0.499751 0.865688
C24   C     C_R   0.118956 0.379274 0.499257 0.901018
C25   C     C_R   0.248404 0.185258 0.598038 0.045125
C26   C     C_R   0.244352 0.819586 0.598980 0.010963
C27   C     C_R   0.801638 0.739936 0.621831 0.046624
C28   C     C_R   0.766052 0.297455 0.622877 0.039115
C29   C     C_R   0.317158 0.188657 0.503479 -0.052773
C30   C     C_R   0.307976 0.820541 0.495907 -0.070839
C31   C     C_R   0.829861 0.701304 0.500317 -0.070060
C32   C     C_R   0.802743 0.325598 0.500476 -0.075561
C33   C     C_R   0.325262 0.259418 0.413616 -0.223288
C34   C     C_R   0.298255 0.766372 0.380987 -0.214354
C35   C     C_R   0.807634 0.741316 0.376905 -0.224236
C36   C     C_R   0.763000 0.301368 0.377566 -0.241532
C37   C     C_R   0.742642 0.806227 0.375917 -0.238292
C38   C     C_R   0.698381 0.236685 0.377372 -0.195233
C39   C     C_R   0.259310 0.323192 0.411662 -0.223814
C40   C     C_R   0.234078 0.701570 0.381182 -0.194778
C41   C     C_R   0.700738 0.829950 0.498279 -0.062799
C42   C     C_R   0.673723 0.197379 0.500138 -0.117995
C43   C     C_R   0.186194 0.314582 0.498869 -0.034365
C44   C     C_R   0.179974 0.691572 0.496135 -0.119891
C45   C     C_R   0.736721 0.802957 0.620507 0.045024
C46   C     C_R   0.701348 0.234152 0.622449 -0.023871
C47   C     C_R   0.182338 0.247559 0.594630 0.055551
C48   C     C_R   0.180167 0.755463 0.598591 -0.022515
C49   C     C_3   0.693206 0.769809 0.746875 0.335504
C50   C     C_3   0.737642 0.190520 0.747552 0.335448
C51   C     C_3   0.110788 0.180039 0.617737 0.311082
C52   C     C_3   0.182736 0.747675 0.750657 0.352942
H1    H     H_    0.380933 0.263911 0.343721 0.150189
H2    H     H_    0.343730 0.769840 0.295467 0.166221
H3    H     H_    0.834539 0.717958 0.280910 0.166123
H4    H     H_    0.786372 0.326503 0.281308 0.165993
H5    H     H_    0.369980 0.127099 0.122830 0.224724
H6    H     H_    0.287150 0.034381 0.125519 0.205736
H7    H     H_    0.830589 0.564681 0.128315 0.215580
H8    H     H_    0.790730 0.447169 0.123030 0.195571
H9    H     H_    0.720671 0.831881 0.279572 0.163529
H10   H     H_    0.673289 0.213101 0.281129 0.171239
H11   H     H_    0.264315 0.377752 0.341303 0.151492
H12   H     H_    0.230931 0.656040 0.295822 0.159554
H13   H     H_    0.696207 0.819734 0.830859 0.048668
H14   H     H_    0.764544 0.123129 0.726606 0.098192
H15   H     H_    0.075138 0.191585 0.715782 0.065215
H16   H     H_    0.209842 0.682818 0.783418 0.103333
H17   H     H_    0.191555 0.081527 0.723441 0.160710
H18   H     H_    0.319141 0.797026 0.784077 0.192683
H19   H     H_    0.811129 0.709240 0.835214 0.155674
H20   H     H_    0.877032 0.235058 0.726671 0.166663
H21   H     H_    0.183888 0.062539 0.536501 0.209701
H22   H     H_    0.231300 0.883889 0.796339 0.199178
H23   H     H_    0.740316 0.631309 0.732098 0.219019
H24   H     H_    0.804951 0.307111 0.835113 0.209011
H25   H     H_    0.639556 0.993260 0.124518 0.151307
H26   H     H_    0.131007 0.548488 0.124982 0.143267
H27   H     H_    0.639570 0.993560 0.871807 0.155249
H28   H     H_    0.131081 0.548150 0.872970 0.142924
H29   H     H_    0.367797 0.125325 0.880155 0.222965
H30   H     H_    0.286605 0.031186 0.884063 0.189642
H31   H     H_    0.834028 0.567437 0.887566 0.217550
H32   H     H_    0.788847 0.452857 0.880998 0.197308
N1    N     N_R   0.499140 1.000000 0.142800 -0.112534
N2    N     N_R   0.999140 0.500000 0.142800 -0.110282
N3    N     N_R   0.499160 0.000000 0.857150 -0.111984
N4    N     N_R   0.999160 0.500000 0.857150 -0.108917
O1    O     O_R   0.408400 0.908380 0.614690 -0.610042
O2    O     O_R   0.408400 0.091620 0.614690 -0.622846
O3    O     O_R   0.908400 0.408380 0.614690 -0.614744
O4    O     O_R   0.908400 0.591620 0.614690 -0.610772
O5    O     O_R   0.408370 0.908370 0.385350 -0.623606
O6    O     O_R   0.408370 0.091630 0.385350 -0.622633
O7    O     O_R   0.908370 0.408370 0.385350 -0.622091
O8    O     O_R   0.908370 0.591630 0.385350 -0.627893
O9    O     O_R   0.591610 0.091610 0.614650 -0.626836
O10   O     O_R   0.591610 0.908390 0.614650 -0.609295
O11   O     O_R   0.091610 0.591610 0.614650 -0.622632
O12   O     O_R   0.091610 0.408390 0.614650 -0.634305
O13   O     O_R   0.591590 0.091600 0.385310 -0.623014
O14   O     O_R   0.591590 0.908400 0.385310 -0.634756
O15   O     O_R   0.091590 0.591600 0.385310 -0.627208
O16   O     O_R   0.091590 0.408400 0.385310 -0.610251
Zn1   Zn    Zn3+2 0.500010 0.000000 0.653130 0.945516
Zn2   Zn    Zn3+2 0.000010 0.500000 0.653130 0.951911
Zn3   Zn    Zn3+2 0.499980 1.000000 0.346870 0.933079
Zn4   Zn    Zn3+2 0.999980 0.500000 0.346870 0.949312
O17   O     O_3   0.608915 0.732816 0.719743 -0.614693
C53   C     C_3   0.561474 0.722400 0.842388 0.104585
H33   H     H_    0.541873 0.788627 0.883451 0.145069
H34   H     H_    0.602066 0.686786 0.918849 0.127603
C54   C     C_3   0.477845 0.668195 0.814741 -0.313106
H35   H     H_    0.438852 0.700401 0.733660 0.225838
H36   H     H_    0.497122 0.600903 0.778476 0.220358
C55   C     C_3   0.420252 0.659786 0.942045 -1.011293
H37   H     H_    0.457180 0.624550 0.022396 0.271039
H38   H     H_    0.359382 0.621495 0.917854 0.261596
H39   H     H_    0.400248 0.726309 0.980491 0.263963
O18   O     O_3   0.685534 0.192427 0.869304 -0.632041
C56   C     C_3   0.610813 0.249316 0.865001 0.130370
H40   H     H_    0.562169 0.224095 0.789682 0.167962
H41   H     H_    0.631250 0.318033 0.838994 0.131642
C57   C     C_3   0.565929 0.251576 0.004385 -0.340728
H42   H     H_    0.548414 0.183185 0.035326 0.241247
H43   H     H_    0.612783 0.279722 0.079683 0.216081
C58   C     C_3   0.481682 0.307824 0.003652 -0.988953
H44   H     H_    0.497693 0.377193 0.975840 0.268447
H45   H     H_    0.450770 0.307865 0.106198 0.264164
H46   H     H_    0.433231 0.280279 0.930230 0.263966
O19   O     O_3   0.055506 0.170544 0.503170 -0.619122
C59   C     C_3   0.991272 0.104330 0.528376 0.076205
H47   H     H_    0.951550 0.120535 0.620754 0.117669
H48   H     H_    0.023784 0.038709 0.541663 0.145208
C60   C     C_3   0.928330 0.098160 0.407961 -0.298529
H49   H     H_    0.895754 0.163333 0.393192 0.233725
H50   H     H_    0.966906 0.081472 0.314664 0.225661
C61   C     C_3   0.857078 0.027662 0.430126 -0.976283
H51   H     H_    0.888126 0.961311 0.440684 0.268224
H52   H     H_    0.811662 0.025959 0.342001 0.268861
H53   H     H_    0.817393 0.042971 0.522681 0.250677
O20   O     O_3   0.104416 0.770723 0.825660 -0.623943
C62   C     C_3   0.047491 0.831033 0.759316 0.132951
H54   H     H_    0.015039 0.797631 0.671724 0.142066
H55   H     H_    0.084343 0.890396 0.723582 0.128642
C63   C     C_3   0.975324 0.861580 0.858979 -0.315634
H56   H     H_    0.934416 0.803776 0.889300 0.218522
H57   H     H_    0.006738 0.889558 0.951491 0.228528
C64   C     C_3   0.915588 0.931986 0.796982 -1.024754
H58   H     H_    0.954020 0.993574 0.779385 0.257737
H59   H     H_    0.859710 0.947373 0.867469 0.266560
H60   H     H_    0.887984 0.908248 0.699287 0.270438

loop_
_geom_bond_atom_site_label_1
_geom_bond_atom_site_label_2
_ccdc_geom_bond_type
O13   Zn3   S    
C62   C63   S    
C23   O11   A    
C13   H27   S    
C6    H18   S    
C18   H31   S    
C22   O10   A    
C60   C61   S    
C60   H49   S    
C19   H5    S    
C28   C46   A    
C33   C39   A    
O10   Zn1   S    
C49   H13   S    
C2    C29   S    
C34   C40   A    
C32   C36   A    
C3    O3    A    
C35   C37   A    
C38   C42   A    
C57   H43   S    
C64   H59   S    
C7    H19   S    
C22   C41   S    
C62   H54   S    
C29   C33   A    
C8    H24   S    
C7    C27   S    
C55   H37   S    
C60   H50   S    
C17   H30   S    
C42   C46   A    
C2    O2    A    
C53   H33   S    
C56   C57   S    
C5    H17   S    
C11   H25   S    
C9    N1    A    
C4    O8    A    
C9    C19   S    
C62   H55   S    
C10   C20   S    
C59   H47   S    
C12   H26   S    
C18   H32   S    
O15   Zn4   S    
C14   H28   S    
C20   H8    S    
C25   C47   A    
C40   C44   A    
C17   H29   S    
C52   H16   S    
C26   C48   A    
C54   C55   S    
O9    Zn1   S    
C27   C45   A    
O8    Zn4   S    
C25   C29   A    
O3    Zn2   S    
N4    Zn2   S    
C6    H22   S    
C63   H57   S    
C19   H6    S    
C33   H1    S    
C23   O15   A    
O6    Zn3   S    
C8    H20   S    
C30   C34   A    
C27   C31   A    
C28   C32   A    
C7    C49   S    
C54   H35   S    
O7    Zn4   S    
C64   H60   S    
C51   O19   S    
C7    H23   S    
C35   H3    S    
C52   O20   S    
C23   C44   S    
C54   H36   S    
C24   O16   A    
C58   H45   S    
C36   H4    S    
C63   C64   S    
C21   O9    A    
C37   H9    S    
N3    Zn1   S    
C2    O6    A    
C13   N3    A    
C45   C49   S    
O14   Zn3   S    
C51   H15   S    
C20   H7    S    
C50   H14   S    
C53   C54   S    
C56   H40   S    
C61   H52   S    
C57   C58   S    
C5    C25   S    
C16   C18   S    
C12   C14   A    
C34   H2    S    
C8    C28   S    
C50   O18   S    
C58   H44   S    
C8    C50   S    
O16   Zn4   S    
O18   C56   S    
C49   O17   S    
C63   H56   S    
O4    Zn2   S    
C15   C17   S    
O11   Zn2   S    
C10   N2    A    
C1    O1    A    
C24   O12   A    
C5    H21   S    
N2    Zn4   S    
O2    Zn1   S    
C61   H53   S    
C22   O14   A    
C47   C51   S    
C26   C30   A    
C39   H11   S    
C46   C50   S    
O12   Zn2   S    
C40   H12   S    
C55   H39   S    
C12   N2    A    
C6    C52   S    
N1    Zn3   S    
C36   C38   A    
C9    C15   A    
C58   H46   S    
C14   N4    A    
C21   O13   A    
C10   C16   A    
C64   H58   S    
O5    Zn3   S    
C11   C13   A    
C6    C26   S    
C11   N1    A    
C59   C60   S    
C59   H48   S    
C31   C35   A    
C1    C30   S    
C17   C19   S    
C55   H38   S    
C18   C20   S    
C37   C41   A    
C3    C32   S    
C53   H34   S    
C56   H41   S    
C4    C31   S    
C61   H51   S    
C21   C42   S    
C44   C48   A    
C48   C52   S    
C39   C43   A    
C1    O5    A    
C15   N3    A    
O1    Zn1   S    
C16   N4    A    
C24   C43   S    
C41   C45   A    
O20   C62   S    
C5    C51   S    
C3    O7    A    
C4    O4    A    
O17   C53   S    
C43   C47   A    
O19   C59   S    
C57   H42   S    
C38   H10   S    
