data_mof_unit_3476.cif
_audit_creation_date              2013-03-05T16:06:18-0500
_audit_creation_method            fapswitch 2.2
_symmetry_space_group_name_H-M    P1
_symmetry_Int_Tables_number       1
_space_group_crystal_system       triclinic
_cell_length_a                    8.522012
_cell_length_b                    15.553965
_cell_length_c                    19.057269
_cell_angle_alpha                 99.917251
_cell_angle_beta                  93.560694
_cell_angle_gamma                 99.885846
_cell_volume                      2440.40606165

loop_
_atom_site_label
_atom_site_type_symbol
_atom_site_description
_atom_site_fract_x
_atom_site_fract_y
_atom_site_fract_z
_atom_type_partial_charge
P1    P     P_3+3 0.033450 0.421470 0.337090 0.492014
O1    O     O_2   0.865610 0.448460 0.327050 -0.389309
O2    O     O_3   0.118280 0.449990 0.414480 -0.398542
O3    O     O_3   0.656850 0.615600 0.375450 -0.330297
O4    O     O_2   0.768786 0.545635 0.257103 -0.373107
O5    O     O_3   0.016642 0.305257 0.320139 -0.576945
O6    O     O_3   0.651591 0.677840 0.237967 -0.511268
H1    H     H_    0.726704 0.769905 0.330946 0.125918
C1    C     C_3   0.662041 0.833774 0.240363 0.906106
P2    P     P_3+3 0.679030 0.710970 0.562060 0.514791
P3    P     P_3+3 0.127392 0.777525 0.417104 0.424449
O7    O     O_2   0.853800 0.724280 0.541390 -0.270102
O8    O     O_3   0.080770 0.663020 0.412300 -0.360517
O9    O     O_2   0.019823 0.815624 0.471435 -0.406755
O10   O     O_3   0.733351 0.766211 0.654527 -0.624593
O11   O     O_3   0.044701 0.805570 0.339056 -0.590307
C2    C     C_3   0.097867 0.762264 0.276573 1.257721
H2    H     H_    0.167155 0.712246 0.288909 -0.055168
C3    C     C_3   0.193262 0.835407 0.242326 -1.195845
H3    H     H_    0.258234 0.807012 0.197990 0.225766
H4    H     H_    0.112155 0.875208 0.221010 0.297189
C4    C     C_3   0.224148 0.769158 0.678041 0.980540
H5    H     H_    0.311714 0.764373 0.638419 -0.349247
C5    C     C_3   0.292163 0.849727 0.741458 0.028469
H6    H     H_    0.366447 0.833160 0.784640 0.075214
H7    H     H_    0.190445 0.868701 0.769749 0.150553
Ba1   Ba    Ba6+2 0.852310 0.543020 0.467250 1.478237
C6    C     C_3   0.861982 0.254553 0.302632 0.481771
H8    H     H_    0.766640 0.293925 0.312766 0.090202
C7    C     C_3   0.843241 0.207478 0.222866 0.200664
H9    H     H_    0.774666 0.243225 0.189970 0.047339
H10   H     H_    0.963456 0.212683 0.202689 0.150302
C8    C     C_3   0.730435 0.715181 0.709522 1.020084
C9    C     C_3   0.831403 0.766616 0.783663 1.132737
P4    P     P_3+3 0.156260 0.578610 0.662920 0.490037
O12   O     O_2   0.324100 0.551570 0.673000 -0.443383
O13   O     O_3   0.071440 0.550090 0.585530 -0.443349
O14   O     O_3   0.532860 0.384470 0.624560 -0.440887
O15   O     O_3   0.199565 0.691856 0.709659 -0.579328
P5    P     P_3+3 0.065693 0.218912 0.579231 0.491050
O16   O     O_3   0.607860 0.389390 0.460650 -0.420235
O17   O     O_3   0.108950 0.337050 0.587710 -0.352822
O18   O     O_2   0.190251 0.180629 0.533947 -0.346860
O19   O     O_3   0.114060 0.195663 0.663832 -0.515712
Ba2   Ba    Ba6+2 0.337530 0.457060 0.532760 1.572170
P6    P     P_3+3 0.624210 0.585738 0.281259 0.490924
C10   C     C_3   0.638068 0.756798 0.283468 0.546924
H11   H     H_    0.559018 0.817371 0.198062 -0.022400
O20   O     O_3   0.581860 0.610690 0.539360 -0.414269
C11   C     C_3   0.429642 0.314505 0.314899 0.446061
H12   H     H_    0.320694 0.329726 0.339440 0.149039
H13   H     H_    0.523329 0.375586 0.324143 0.085606
C12   C     C_3   0.387100 0.283632 0.234598 -1.124502
H14   H     H_    0.309431 0.216928 0.223241 0.270914
H15   H     H_    0.321076 0.329709 0.212438 0.252659
H16   H     H_    0.497639 0.280837 0.207118 0.238629
P7    P     P_3+3 0.511902 0.274620 0.436265 0.482885
O21   O     O_2   0.335900 0.275750 0.458650 -0.283912
O22   O     O_3   0.486506 0.246656 0.342845 -0.577558
H17   H     H_    0.281029 0.882064 0.282497 0.255167
C13   C     C_3   0.999881 0.220602 0.709714 0.185275
H18   H     H_    0.975246 0.286955 0.704163 0.015757
H19   H     H_    0.887204 0.170723 0.696984 -0.002499
C14   C     C_3   0.061773 0.227184 0.788588 0.952614
H20   H     H_    0.988294 0.269661 0.820128 -0.097199
P8    P     P_3+3 0.583650 0.375350 0.714098 0.431283
C15   C     C_3   0.534783 0.209992 0.662381 0.495789
H21   H     H_    0.664587 0.217319 0.656546 -0.024633
O23   O     O_2   0.475818 0.430837 0.758077 -0.354931
O24   O     O_3   0.507972 0.267067 0.724023 -0.464113
H22   H     H_    0.470691 0.222756 0.613791 0.148366
H23   H     H_    0.516264 0.103830 0.721951 0.270700
C16   C     C_3   0.472380 0.115108 0.668872 -0.925191
H24   H     H_    0.515216 0.069939 0.625919 0.212609
H25   H     H_    0.339858 0.100937 0.662743 0.282151
N1    N     N_R   0.210577 0.531429 0.957387 -0.084520
N2    N     N_R   0.258325 0.532193 0.025983 -0.091975
C17   C     C_2   0.299755 0.512895 0.293278 -0.522981
C18   C     C_3   0.433386 0.506089 0.245022 0.204287
C19   C     C_2   0.375235 0.513961 0.169888 -0.298459
C20   C     C_2   0.218475 0.485503 0.145265 -0.098889
C21   C     C_2   0.103884 0.452345 0.198068 0.466557
C22   C     C_1   0.154518 0.467979 0.268864 0.204662
N3    N     N_R   0.022505 0.436391 0.035679 -0.065019
N4    N     N_R   0.974452 0.435727 0.967489 -0.091937
C23   C     C_R   0.066507 0.483317 0.926382 0.112510
C24   C     C_R   0.165068 0.484762 0.067204 0.155661
C25   C     C_R   0.106615 0.521958 0.801162 -0.251771
C26   C     C_R   0.053032 0.511465 0.727455 0.495111
C27   C     C_R   0.801767 0.419644 0.748465 0.140903
C28   C     C_R   0.855425 0.430407 0.821122 -0.233009
C29   C     C_R   0.010713 0.478576 0.848529 0.040074
C30   C     C_R   0.909246 0.454793 0.702998 -0.465951
H26   H     H_    0.462827 0.535035 0.134325 0.173018
H27   H     H_    0.220784 0.564019 0.821397 0.145608
H28   H     H_    0.774441 0.402394 0.856335 0.148219
H29   H     H_    0.326546 0.545179 0.348910 0.217101
H30   H     H_    0.875731 0.448376 0.648091 0.139281
C31   C     C_R   0.341125 0.822259 0.455196 0.058108
H31   H     H_    0.202085 0.948327 0.414249 0.195653
C32   C     C_R   0.586528 0.791203 0.513282 0.216586
C33   C     C_R   0.754068 0.221728 0.518603 -0.168272
C34   C     C_R   0.856477 0.166328 0.537493 0.247734
C35   C     C_R   0.799346 0.074755 0.526294 -0.340773
C36   C     C_R   0.640278 0.037475 0.495679 0.020376
C37   C     C_R   0.545474 0.095502 0.467668 -0.216111
C38   C     C_R   0.573308 0.944159 0.491176 0.094956
C39   C     C_R   0.412692 0.912390 0.460831 -0.094863
C40   C     C_R   0.325857 0.970109 0.434394 -0.334042
C41   C     C_R   0.392291 0.057530 0.432147 0.654148
C42   C     C_R   0.656294 0.882218 0.518997 -0.404623
C43   C     C_R   0.431613 0.762938 0.479449 0.229064
C44   C     C_R   0.606367 0.189588 0.478096 0.226467
H32   H     H_    0.771953 0.904096 0.547745 0.162878
H33   H     H_    0.880637 0.034700 0.543133 0.150790
O25   O     O_3   0.369892 0.928243 0.720646 -0.629278
C45   C     C_3   0.506281 0.915467 0.685218 -0.266781
H34   H     H_    0.546982 0.853993 0.690840 0.166887
H35   H     H_    0.606920 0.970762 0.706966 0.188292
H36   H     H_    0.478911 0.914957 0.627750 0.156467
C46   C     C_3   0.849761 0.187223 0.351900 -0.804076
H37   H     H_    0.725297 0.150525 0.348851 0.223208
H38   H     H_    0.932357 0.140335 0.338068 0.238989
H39   H     H_    0.890592 0.222906 0.406784 0.225675
O26   O     O_3   0.777019 0.115506 0.212465 -0.606591
C47   C     C_3   0.610561 0.100588 0.193975 -0.246710
H40   H     H_    0.583445 0.117488 0.140707 0.137342
H41   H     H_    0.550398 0.138476 0.235324 0.182806
H42   H     H_    0.560999 0.029161 0.190827 0.186348
O27   O     O_3   0.801439 0.641575 0.684351 -0.631952
C48   C     C_3   0.690928 0.563664 0.662217 -0.012776
H43   H     H_    0.573134 0.569022 0.642355 0.195590
H44   H     H_    0.672596 0.537249 0.710463 0.138064
H45   H     H_    0.729966 0.524376 0.615060 0.167090
C49   C     C_3   0.556169 0.697834 0.728319 -1.144229
H46   H     H_    0.530643 0.642189 0.757872 0.296378
H47   H     H_    0.532222 0.755473 0.764193 0.220757
H48   H     H_    0.477769 0.689301 0.679139 0.258212
O28   O     O_3   0.649483 0.916180 0.283362 -0.690850
C50   C     C_3   0.791960 0.955438 0.327241 -0.147058
H49   H     H_    0.884724 0.983096 0.294780 0.187138
H50   H     H_    0.837436 0.909705 0.358556 0.152371
H51   H     H_    0.766430 0.010716 0.366767 0.161821
O29   O     O_3   0.986798 0.745337 0.783198 -0.601213
C51   C     C_3   0.063940 0.749772 0.852276 -0.169526
H52   H     H_    0.004515 0.696336 0.878803 0.180351
H53   H     H_    0.073850 0.816259 0.886311 0.104573
H54   H     H_    0.187554 0.738052 0.846750 0.144220
O30   O     O_3   0.754793 0.732283 0.841557 -0.657970
C52   C     C_3   0.721460 0.795345 0.898936 -0.319694
H55   H     H_    0.629191 0.831740 0.881756 0.159223
H56   H     H_    0.831085 0.841558 0.925292 0.154710
H57   H     H_    0.670977 0.759013 0.940075 0.180619
C53   C     C_3   0.849005 0.868894 0.787847 -1.164303
H58   H     H_    0.902633 0.889088 0.740458 0.263777
H59   H     H_    0.732145 0.890457 0.790339 0.243424
H60   H     H_    0.929090 0.906483 0.835192 0.252527
C54   C     C_3   0.470823 0.747937 0.305973 -1.191272
H61   H     H_    0.392228 0.719151 0.256243 0.248059
H62   H     H_    0.448724 0.702152 0.343681 0.298432
H63   H     H_    0.448002 0.813010 0.331435 0.263349
O31   O     O_3   0.808129 0.838715 0.208199 -0.603463
C55   C     C_3   0.795999 0.872395 0.144262 -0.274208
H64   H     H_    0.759027 0.938164 0.153665 0.193645
H65   H     H_    0.711777 0.824695 0.102702 0.125655
H66   H     H_    0.915101 0.881324 0.123337 0.163184
O32   O     O_3   0.225149 0.269254 0.800696 -0.577985
C56   C     C_3   0.274815 0.290547 0.874654 -0.096606
H67   H     H_    0.399353 0.328401 0.882230 0.167475
H68   H     H_    0.274753 0.229606 0.897708 0.133756
H69   H     H_    0.199586 0.333100 0.904338 0.107913
O33   O     O_3   0.033420 0.143733 0.811181 -0.680477
C57   C     C_3   0.126665 0.084710 0.777832 -0.141137
H70   H     H_    0.255799 0.114540 0.783053 0.199330
H71   H     H_    0.080610 0.059855 0.721001 0.140584
H72   H     H_    0.116312 0.026701 0.804854 0.155139
O34   O     O_3   0.962496 0.715572 0.230590 -0.549337
C58   C     C_3   0.005165 0.670475 0.165755 -0.155963
H73   H     H_    0.107901 0.637054 0.174077 0.068152
H74   H     H_    0.031774 0.716849 0.127982 0.140797
H75   H     H_    0.901219 0.619427 0.140102 0.172414
O35   O     O_3   0.989512 0.377271 0.171146 -0.653950
C59   C     C_3   0.841634 0.400955 0.152939 -0.183309
H76   H     H_    0.782284 0.353954 0.104305 0.144241
H77   H     H_    0.851275 0.468974 0.140895 0.137538
H78   H     H_    0.761821 0.392634 0.195881 0.165103
O36   O     O_3   0.373572 0.673712 0.463755 -0.659077
C60   C     C_3   0.277671 0.651380 0.517114 0.140459
H79   H     H_    0.192426 0.696477 0.531863 0.115265
H80   H     H_    0.347175 0.647088 0.566062 0.084828
H81   H     H_    0.207524 0.585982 0.494226 0.225543
C61   C     C_3   0.804038 0.316761 0.546901 -0.778562
H82   H     H_    0.843748 0.319308 0.602925 0.185195
H83   H     H_    0.888954 0.349755 0.513546 0.272630
H84   H     H_    0.708828 0.351532 0.554174 0.264151
O37   O     O_3   0.297991 0.107913 0.401654 -0.564883
C62   C     C_3   0.256759 0.072157 0.328218 -0.184758
H85   H     H_    0.159789 0.013196 0.320494 0.118438
H86   H     H_    0.361871 0.055541 0.300514 0.135003
H87   H     H_    0.209447 0.122364 0.302572 0.181526
O38   O     O_3   0.077218 0.781481 0.646286 -0.583696
C63   C     C_3   0.095097 0.864227 0.622917 -0.072723
H88   H     H_    0.194958 0.873333 0.588516 0.117903
H89   H     H_    0.107568 0.920651 0.667903 0.108992
H90   H     H_    0.984023 0.869503 0.593540 0.185409

loop_
_geom_bond_atom_site_label_1
_geom_bond_atom_site_label_2
_geom_bond_distance
_ccdc_geom_bond_type
C8    O27   1.411289 S    
P2    Ba1   3.507061 S    
C49   H48   1.091488 S    
C47   H40   1.112042 S    
C13   C14   1.542089 S    
P3    O8    1.742009 S    
O38   C63   1.420043 S    
C12   H15   1.105331 S    
C3    H3    1.108648 S    
N3    C24   1.357500 A    
C48   H45   1.099777 S    
C51   H54   1.107771 S    
C43   O36   1.364951 S    
C20   C21   1.536266 S    
P7    O21   1.586788 D    
C49   H46   1.109989 S    
P8    C27   1.900618 S    
O3    P6    1.766812 S    
C12   H14   1.109246 S    
C39   C40   1.394632 A    
C32   C43   1.396148 A    
C31   C39   1.412525 A    
C36   C38   1.451312 A    
C9    O29   1.419261 S    
C63   H89   1.101799 S    
C36   C37   1.454322 A    
C60   H81   1.090085 S    
C11   O22   1.403327 S    
P3    C31   1.885563 S    
C6    H8    1.105479 S    
P4    O13   1.557742 S    
C50   H50   1.106575 S    
C14   O32   1.419561 S    
P2    O10   1.816134 S    
C45   H35   1.107620 S    
N4    C23   1.361517 A    
P6    C18   1.878900 S    
C19   C20   1.359530 D    
P3    O9    1.535134 D    
C56   H68   1.111211 S    
C57   H72   1.106983 S    
P8    O23   1.552613 D    
C31   C43   1.416531 A    
O25   C45   1.406018 S    
C60   H80   1.091714 S    
P1    O1    1.567977 D    
C16   H24   1.106342 S    
C62   H86   1.113181 S    
C8    C49   1.538967 S    
O35   C59   1.411866 S    
O14   Ba2   2.840826 S    
C54   H63   1.099019 S    
C28   H28   1.082344 S    
C17   C22   1.325170 D    
P5    O18   1.542690 D    
O5    C6    1.402948 S    
C55   H64   1.110133 S    
O11   C2    1.404431 S    
C46   H39   1.100736 S    
C52   H57   1.109092 S    
C15   H22   1.110383 S    
C11   H13   1.111533 S    
C38   C39   1.422366 A    
C50   H51   1.102491 S    
O1    Ba1   2.838308 S    
C15   C16   1.509215 S    
C53   H59   1.105256 S    
C13   H18   1.108889 S    
O10   C8    1.418451 S    
C25   C26   1.422659 A    
Ba1   Ba2   4.719849 S    
P5    O17   1.787797 S    
O26   C47   1.409624 S    
C7    O26   1.419648 S    
H31   C40   1.075612 S    
C54   H62   1.098201 S    
C16   H25   1.107672 S    
C62   H85   1.106237 S    
C35   C36   1.424617 A    
C51   H53   1.108795 S    
C9    O30   1.449611 S    
C51   H52   1.111231 S    
N1    N2    1.342220 A    
C9    C53   1.559641 S    
C50   H49   1.108298 S    
Ba2   O21   2.925743 S    
C11   C12   1.523830 S    
C46   H38   1.109009 S    
C63   H88   1.110848 S    
C37   C44   1.441048 A    
C15   H21   1.106962 S    
O6    P6    1.761696 S    
C25   C29   1.431841 A    
C55   H66   1.108817 S    
N3    N4    1.335811 A    
C53   H60   1.107474 S    
C45   H36   1.103881 S    
O32   C56   1.411504 S    
C6    C46   1.517412 S    
O37   C62   1.412458 S    
P7    C44   1.918819 S    
O7    Ba1   2.925468 S    
C47   H42   1.108618 S    
C11   H12   1.108191 S    
C57   H70   1.109681 S    
O2    Ba2   2.811595 S    
P1    O5    1.759662 S    
C60   H79   1.109592 S    
P1    O2    1.557772 S    
P4    O12   1.568409 D    
C61   H83   1.110440 S    
C14   O33   1.423480 S    
C62   H87   1.107428 S    
P4    O15   1.796595 S    
C59   H76   1.109368 S    
C61   H84   1.053032 S    
C35   H33   1.077265 S    
P3    O11   1.760121 S    
Ba1   O16   2.867088 S    
C33   C61   1.462141 S    
Ba2   O20   2.866494 S    
C17   H29   1.084185 S    
C13   H19   1.110517 S    
C2    H2    1.101205 S    
C53   H58   1.105803 S    
O12   Ba2   2.838887 S    
C5    H6    1.099424 S    
C46   H37   1.107825 S    
C20   C24   1.525955 S    
C57   H71   1.107867 S    
P2    O7    1.552870 D    
C1    O31   1.417642 S    
C1    H11   1.118078 S    
P4    C26   1.907494 S    
C56   H67   1.109509 S    
C1    C10   1.557456 S    
C41   O37   1.383022 S    
C54   H61   1.104212 S    
C3    H17   1.106010 S    
C4    C5    1.583952 S    
C59   H78   1.106575 S    
C32   C42   1.420987 A    
C63   H90   1.092172 S    
C19   H26   1.085971 S    
C48   H43   1.072521 S    
P4    Ba2   3.460777 S    
N1    C23   1.363315 A    
C28   C29   1.422789 A    
O3    Ba1   2.841413 S    
O33   C57   1.410817 S    
C27   C30   1.406557 A    
O31   C55   1.411589 S    
C37   C41   1.413855 A    
C12   H16   1.109517 S    
C2    O34   1.412005 S    
C49   H47   1.087106 S    
O14   P8    1.769688 S    
C47   H41   1.106834 S    
C4    O38   1.413880 S    
C55   H65   1.112221 S    
C17   C18   1.513849 S    
C38   C42   1.439719 A    
P2    C32   1.920750 S    
C5    H7    1.104669 S    
H23   C16   1.109277 S    
C48   H44   1.079121 S    
C58   H74   1.110345 S    
O28   C50   1.410598 S    
C5    O25   1.417462 S    
O19   C13   1.407208 S    
P1    C22   1.874210 S    
O4    P6    1.534417 D    
C21   O35   1.384733 S    
C45   H34   1.091129 S    
C52   H55   1.109344 S    
O29   C51   1.419709 S    
C15   O24   1.401447 S    
C14   H20   1.114427 S    
C6    C7    1.555211 S    
O27   C48   1.384228 S    
H1    C10   1.108813 S    
O16   P7    1.799213 S    
O36   C60   1.396442 S    
C33   C44   1.400164 A    
C23   C29   1.515067 S    
O30   C52   1.415372 S    
C61   H82   1.091769 S    
P5    C34   1.891966 S    
C7    H10   1.111364 S    
C1    O28   1.421968 S    
C27   C28   1.403429 A    
C7    H9    1.108974 S    
Ba1   O13   2.810972 S    
C4    O15   1.425257 S    
O2    Ba1   3.025004 S    
C2    C3    1.544419 S    
C8    C9    1.612471 S    
C42   H32   1.068168 S    
C52   H56   1.108380 S    
C26   C30   1.382880 A    
C33   C34   1.399941 A    
C25   H27   1.082252 S    
C58   H75   1.106852 S    
P7    O22   1.748908 S    
O34   C58   1.412702 S    
C18   C19   1.517844 S    
P5    O19   1.752004 S    
P8    O24   1.743621 S    
N2    C24   1.367047 A    
C59   H77   1.111239 S    
C21   C22   1.358028 D    
C34   C35   1.398413 A    
P1    Ba1   3.460131 S    
O16   Ba2   3.005198 S    
C4    H5    1.096483 S    
O8    Ba1   2.837188 S    
C56   H69   1.109439 S    
C40   C41   1.389249 A    
P2    O20   1.607881 S    
O13   Ba2   3.025874 S    
C30   H30   1.050516 S    
O17   Ba2   2.837893 S    
Ba1   O20   3.006072 S    
O6    C10   1.402722 S    
C58   H73   1.108762 S    
C3    H4    1.106650 S    
C10   C54   1.504378 S    
