data_mof_unit_2369.cif
_audit_creation_date              2012-12-10T19:00:42-0500
_audit_creation_method            fapswitch 2.2
_symmetry_space_group_name_H-M    P1
_symmetry_Int_Tables_number       1
_space_group_crystal_system       triclinic
_cell_length_a                    15.047419
_cell_length_b                    10.818525
_cell_length_c                    9.565976
_cell_angle_alpha                 90.022068
_cell_angle_beta                  89.960106
_cell_angle_gamma                 90.109078
_cell_volume                      1557.25032385

loop_
_atom_site_label
_atom_site_type_symbol
_atom_type_description
_atom_site_fract_x
_atom_site_fract_y
_atom_site_fract_z
_atom_type_partial_charge
C1    C     C_R   0.498926 0.262431 0.499957 0.845003
C2    C     C_R   0.907055 0.556116 0.388868 0.113581
C3    C     C_R   0.953396 0.389495 0.722067 -0.188659
C4    C     C_R   0.046083 0.391266 0.723239 -0.207507
C5    C     C_R   0.093061 0.446098 0.612796 0.108649
C6    C     C_R   0.046649 0.500021 0.500127 0.064067
C7    C     C_R   0.093326 0.553989 0.387494 0.108274
C8    C     C_R   0.046634 0.608749 0.276981 -0.206344
C9    C     C_R   0.953959 0.610436 0.278062 -0.200374
C10   C     C_R   0.185700 0.447730 0.612719 -0.243633
C11   C     C_R   0.232034 0.500058 0.500150 -0.061190
C12   C     C_R   0.328767 0.499981 0.500054 0.805651
C13   C     C_R   0.185947 0.552435 0.387623 -0.241482
C14   C     C_R   0.495177 0.063394 0.625308 0.012735
C15   C     C_R   0.491681 0.129226 0.499961 -0.060793
C16   C     C_R   0.476262 0.064304 0.374902 -0.187722
C17   C     C_R   0.475956 0.935419 0.375014 -0.177004
C18   C     C_R   0.490467 0.870626 0.500364 -0.112895
C19   C     C_R   0.493121 0.936390 0.625890 0.078060
C20   C     C_3   0.555897 0.928150 0.746603 0.048860
C21   C     C_3   0.558625 0.069007 0.745770 0.044248
C22   C     C_R   0.575823 0.475963 0.073522 0.267089
C23   C     C_R   0.498596 0.737560 0.500050 0.802818
C24   C     C_R   0.423587 0.517874 0.074164 -0.051842
C25   C     C_R   0.423564 0.517668 0.925947 -0.031432
C26   C     C_R   0.575919 0.476473 0.926135 0.281682
C27   C     C_3   0.659479 0.550734 0.921386 -0.464047
C28   C     C_3   0.659804 0.548887 0.079329 -0.494944
C29   C     C_R   0.671256 0.500013 0.499970 0.834896
C30   C     C_R   0.814459 0.557159 0.390717 -0.248894
C31   C     C_R   0.768039 0.499971 0.499978 -0.065590
C32   C     C_R   0.814158 0.442815 0.609333 -0.211588
C33   C     C_R   0.906764 0.443827 0.611251 0.102852
C34   C     C_R   0.953475 0.499981 0.500082 0.061863
Cu1   Cu    Cu3+1 0.500000 0.499980 0.640670 0.979192
Cu2   Cu    Cu3+1 0.500000 0.500020 0.359330 0.960285
H1    H     H_    0.468183 0.887189 0.276516 0.200667
H2    H     H_    0.619681 0.882526 0.718791 0.164290
H3    H     H_    0.528524 0.112918 0.839552 0.172394
H4    H     H_    0.361833 0.534523 0.128377 0.139597
H5    H     H_    0.361788 0.534124 0.871839 0.145567
H6    H     H_    0.715863 0.498383 0.876377 0.192626
H7    H     H_    0.649454 0.644500 0.876545 0.236586
H8    H     H_    0.715458 0.493445 0.122459 0.198432
H9    H     H_    0.777998 0.395991 0.691660 0.174798
H10   H     H_    0.650691 0.641771 0.127061 0.229617
H11   H     H_    0.918178 0.346283 0.808047 0.159869
H12   H     H_    0.221792 0.406532 0.698999 0.145651
H13   H     H_    0.222216 0.593713 0.301382 0.145025
H14   H     H_    0.081788 0.650623 0.190098 0.149259
H15   H     H_    0.918961 0.653576 0.192010 0.152801
H16   H     H_    0.468338 0.112389 0.276416 0.175910
N1    N     N_R   0.500570 0.500930 0.147930 -0.188535
N2    N     N_R   0.500570 0.500890 0.852020 -0.183966
O1    O     O_R   0.500000 0.319640 0.618810 -0.567806
O2    O     O_R   0.500010 0.319680 0.381230 -0.587748
O3    O     O_R   0.370250 0.499950 0.618800 -0.596896
O4    O     O_R   0.370260 0.499990 0.381220 -0.598655
O5    O     O_R   0.499990 0.680320 0.618770 -0.549685
O6    O     O_R   0.500000 0.680360 0.381190 -0.578741
O7    O     O_R   0.629740 0.500010 0.618780 -0.581174
O8    O     O_R   0.629750 0.500050 0.381200 -0.585626
H17   H     H_    0.778574 0.604112 0.308440 0.145877
Br1   Br    Br    0.498261 0.860959 0.911796 -0.565284
Br2   Br    Br    0.675340 0.133566 0.696174 -0.557422
H18   H     H_    0.081023 0.349379 0.810118 0.148705

loop_
_geom_bond_atom_site_label_1
_geom_bond_atom_site_label_2
_ccdc_geom_bond_type
C20   Br1   S    
C4    H18   S    
C11   C12   S    
C24   C25   A    
C6    C7    A    
C1    C15   S    
C27   H7    S    
C20   H2    S    
C32   H9    S    
C19   C20   S    
C21   H3    S    
C2    C30   A    
Cu1   O3    S    
C27   C28   S    
C12   O4    A    
C32   C33   A    
C2    C34   A    
C17   C18   A    
C1    O1    A    
C5    C10   A    
C29   C31   S    
C17   H1    S    
C30   H17   S    
C25   N2    A    
Cu1   N2    S    
C23   O5    A    
C5    C6    A    
C11   C13   A    
C27   H6    S    
C28   H10   S    
C26   C27   S    
C30   C31   A    
Cu1   O7    S    
C13   H13   S    
C12   O3    A    
C26   N2    A    
C14   C21   S    
C3    H11   S    
Cu2   O2    S    
C24   H4    S    
C1    O2    A    
C33   C34   A    
C22   N1    A    
Cu2   O4    S    
C10   H12   S    
C23   O6    A    
C29   O7    A    
C6    C34   A    
C10   C11   A    
C3    C33   A    
Cu1   O1    S    
C15   C16   A    
C8    H14   S    
C7    C13   A    
C20   C21   S    
Cu1   O5    S    
C18   C19   A    
C22   C26   A    
C25   H5    S    
C16   H16   S    
C7    C8    A    
Cu2   O6    S    
C14   C15   A    
C16   C17   A    
C22   C28   S    
Cu2   N1    S    
C21   Br2   S    
C24   N1    A    
C29   O8    A    
C2    C9    A    
C4    C5    A    
C14   C19   A    
C28   H8    S    
C31   C32   A    
C3    C4    A    
C18   C23   S    
C8    C9    A    
Cu2   O8    S    
Cu1   Cu2   S    
C9    H15   S    
