data_mof_unit_4134.cif
_audit_creation_date              2012-12-11T15:23:51-0500
_audit_creation_method            fapswitch 2.2
_symmetry_space_group_name_H-M    P1
_symmetry_Int_Tables_number       1
_space_group_crystal_system       triclinic
_cell_length_a                    17.282773
_cell_length_b                    24.335329
_cell_length_c                    15.168664
_cell_angle_alpha                 89.551224
_cell_angle_beta                  125.222739
_cell_angle_gamma                 90.367352
_cell_volume                      5211.47821373

loop_
_atom_site_label
_atom_site_type_symbol
_atom_type_description
_atom_site_fract_x
_atom_site_fract_y
_atom_site_fract_z
_atom_type_partial_charge
C1    C     C_R   0.310775 0.375678 0.912777 -0.244063
C2    C     C_R   0.533679 0.500249 0.708673 -0.123010
C3    C     C_3   0.553252 0.044304 0.307144 -0.434472
C4    C     C_3   0.561411 0.073851 0.223784 -0.952585
C5    C     C_3   0.512579 0.058201 0.679764 0.267083
C6    C     C_3   0.422103 0.033636 0.660148 -0.384785
C7    C     C_3   0.420578 0.038959 0.759247 -0.995995
C8    C     C_3   0.946476 0.384937 0.171794 0.289572
C9    C     C_3   0.043816 0.358885 0.218721 -0.356427
C10   C     C_3   0.118046 0.401853 0.242262 -0.976231
C11   C     C_3   0.040346 0.382916 0.811199 0.274849
C12   C     C_3   0.947731 0.350862 0.766497 -0.340174
C13   C     C_R   0.027451 0.999177 0.341929 -0.147635
C14   C     C_3   0.865613 0.388740 0.735662 -1.008200
C15   C     C_3   0.446474 0.884937 0.171800 0.289561
C16   C     C_3   0.543816 0.858887 0.218730 -0.356406
C17   C     C_3   0.618044 0.901858 0.242275 -0.976239
C18   C     C_3   0.540339 0.882919 0.811199 0.274846
C19   C     C_3   0.447726 0.850863 0.766495 -0.340180
C20   C     C_3   0.365606 0.888739 0.735658 -1.008196
C21   C     C_3   0.182815 0.609951 0.600251 0.213924
C22   C     C_3   0.266675 0.640299 0.613431 -0.328071
C23   C     C_3   0.250506 0.651503 0.504864 -0.968985
C24   C     C_R   0.033678 0.000249 0.708672 -0.123011
C25   C     C_3   0.757342 0.611904 0.361763 0.221101
C26   C     C_3   0.807120 0.662777 0.430516 -0.272438
C27   C     C_3   0.762965 0.680973 0.488324 -0.984590
C28   C     C_3   0.682810 0.109953 0.600259 0.213915
C29   C     C_3   0.766674 0.140296 0.613437 -0.328071
C30   C     C_3   0.750504 0.151498 0.504869 -0.968997
C31   C     C_3   0.257315 0.111901 0.361758 0.221094
C32   C     C_3   0.307070 0.162779 0.430505 -0.272445
C33   C     C_3   0.262882 0.180975 0.488279 -0.984542
C34   C     C_3   0.274863 0.397467 0.634255 0.196522
C35   C     C_R   0.171959 0.498182 0.687885 -0.326629
C36   C     C_3   0.237011 0.352636 0.548969 -0.266519
C37   C     C_3   0.302946 0.343326 0.514069 -1.024548
C38   C     C_3   0.729717 0.387595 0.353207 0.177211
C39   C     C_3   0.771479 0.339134 0.431990 -0.251698
C40   C     C_3   0.704954 0.318958 0.460979 -1.032846
C41   C     C_3   0.774862 0.897463 0.634259 0.196512
C42   C     C_3   0.737013 0.852627 0.548983 -0.266498
C43   C     C_3   0.802945 0.843316 0.514078 -1.024552
C44   C     C_3   0.229714 0.887595 0.353206 0.177211
C45   C     C_3   0.271476 0.839135 0.431991 -0.251702
C46   C     C_R   0.828564 0.499126 0.305643 -0.274346
C47   C     C_3   0.204949 0.818958 0.460977 -1.032845
C48   C     C_R   0.671960 0.998181 0.687888 -0.326636
C49   C     C_R   0.328564 0.999127 0.305650 -0.274332
C50   C     C_2   0.975930 0.454097 0.435174 0.257698
C51   C     C_2   0.025969 0.452844 0.554378 0.266737
C52   C     C_2   0.475929 0.954098 0.435185 0.257692
C53   C     C_R   0.686927 0.372773 0.086762 -0.248453
C54   C     C_2   0.525967 0.952842 0.554388 0.266722
C55   C     C_2   0.932764 0.499620 0.377386 0.505076
C56   C     C_2   0.068225 0.497703 0.614035 0.494699
C57   C     C_2   0.432763 0.999622 0.377400 0.505062
C58   C     C_2   0.568226 0.997700 0.614046 0.494725
C59   C     C_R   0.292398 0.768129 0.898423 -0.361979
C60   C     C_R   0.702307 0.770461 0.097971 -0.372742
C61   C     C_R   0.792396 0.268128 0.898422 -0.361980
C62   C     C_R   0.202308 0.270460 0.097971 -0.372740
C63   C     C_R   0.743610 0.314549 0.895762 0.568190
C64   C     C_R   0.810775 0.875679 0.912777 -0.244063
C65   C     C_R   0.247404 0.319096 0.100142 0.566925
C66   C     C_R   0.243611 0.814549 0.895764 0.568191
C67   C     C_R   0.747403 0.819097 0.100142 0.566925
C68   C     C_R   0.758168 0.331597 0.992896 -0.123408
C69   C     C_R   0.234361 0.337016 0.003817 -0.115423
C70   C     C_R   0.258169 0.831596 0.992897 -0.123409
C71   C     C_R   0.734359 0.837018 0.003817 -0.115420
C72   C     C_R   0.841226 0.315082 0.089914 0.481315
C73   C     C_R   0.154239 0.318161 0.906193 0.483318
C74   C     C_R   0.341226 0.815081 0.089915 0.481316
C75   C     C_R   0.186927 0.872773 0.086762 -0.248456
C76   C     C_R   0.654235 0.818165 0.906193 0.483319
C77   C     C_R   0.381760 0.765954 0.093050 -0.346915
C78   C     C_R   0.619094 0.766755 0.904228 -0.354063
C79   C     C_R   0.881759 0.265954 0.093049 -0.346917
C80   C     C_R   0.119099 0.266752 0.904228 -0.354059
C81   C     C_R   0.446478 0.652458 0.088407 0.580205
C82   C     C_R   0.553096 0.652940 0.911301 0.616116
C83   C     C_R   0.946477 0.152458 0.088406 0.580212
C84   C     C_R   0.053097 0.152940 0.911301 0.616111
C85   C     C_R   0.354176 0.740388 0.996646 0.077813
C86   C     C_R   0.382537 0.683768 0.998189 -0.127685
C87   C     C_R   0.645455 0.741295 0.000933 0.079736
C88   C     C_R   0.854174 0.240388 0.996646 0.077814
C89   C     C_R   0.145457 0.241293 0.000933 0.079728
C90   C     C_R   0.460376 0.525385 0.524265 -0.184028
C91   C     C_R   0.457975 0.524339 0.432921 -0.168078
C92   C     C_R   0.109019 0.973865 0.621627 -0.135940
C93   C     C_R   0.106468 0.972737 0.529282 -0.188214
C94   C     C_R   0.531260 0.498544 0.436646 0.169590
C95   C     C_R   0.536540 0.500969 0.618084 0.136145
C96   C     C_R   0.031250 0.998543 0.436640 0.169591
C97   C     C_R   0.618424 0.684047 0.000638 -0.117408
C98   C     C_R   0.036536 0.000969 0.618081 0.136147
C99   C     C_R   0.606474 0.472736 0.529288 -0.188206
C100  C     C_R   0.609022 0.473863 0.621631 -0.135935
C101  C     C_R   0.957965 0.024337 0.432916 -0.168081
C102  C     C_R   0.960368 0.025383 0.524262 -0.184025
C103  C     C_R   0.529511 0.453502 0.291702 -0.182354
C104  C     C_R   0.506194 0.454191 0.736896 -0.222071
C105  C     C_R   0.029506 0.953502 0.291698 -0.182358
C106  C     C_R   0.006193 0.954191 0.736896 -0.222064
C107  C     C_R   0.229887 0.544415 0.730814 0.477680
C108  C     C_R   0.882536 0.183767 0.998189 -0.127684
C109  C     C_R   0.770142 0.544923 0.267406 0.441905
C110  C     C_R   0.729886 0.044415 0.730816 0.477694
C111  C     C_R   0.270142 0.044923 0.267413 0.441889
C112  C     C_R   0.525480 0.545250 0.288020 0.508671
C113  C     C_R   0.513235 0.545742 0.744997 0.503405
C114  C     C_R   0.025473 0.045250 0.288015 0.508659
C115  C     C_R   0.013235 0.045742 0.744997 0.503405
C116  C     C_R   0.232789 0.453639 0.720348 0.482863
C117  C     C_R   0.768488 0.453919 0.275390 0.471177
C118  C     C_R   0.732789 0.953639 0.720349 0.482853
C119  C     C_R   0.118426 0.184046 0.000638 -0.117390
C120  C     C_R   0.268487 0.953919 0.275392 0.471181
C121  C     C_R   0.351209 0.651408 0.909075 -0.128605
C122  C     C_R   0.650140 0.651317 0.090160 -0.176993
C123  C     C_R   0.851208 0.151408 0.909075 -0.128593
C124  C     C_R   0.150142 0.151317 0.090161 -0.177030
C125  C     C_R   0.404021 0.372164 0.091977 0.568944
C126  C     C_R   0.591442 0.367566 0.908215 0.559766
C127  C     C_R   0.904021 0.872164 0.091977 0.568942
C128  C     C_R   0.091442 0.867566 0.908216 0.559767
C129  C     C_R   0.311567 0.363497 0.003682 0.015765
C130  C     C_R   0.527461 0.499177 0.341936 -0.147651
C131  C     C_R   0.683361 0.358432 0.995334 0.027954
C132  C     C_R   0.811566 0.863497 0.003683 0.015766
C133  C     C_R   0.183361 0.858432 0.995335 0.027957
C134  C     C_3   0.979387 0.571489 0.317991 0.255276
C135  C     C_3   0.053258 0.544304 0.307128 -0.434455
C136  C     C_3   0.061396 0.573841 0.223745 -0.952585
C137  C     C_3   0.012572 0.558217 0.679728 0.267087
C138  C     C_3   0.922132 0.533622 0.660158 -0.384869
C139  C     C_3   0.920598 0.538981 0.759246 -0.995947
C140  C     C_3   0.479392 0.071495 0.318020 0.255267
H1    H     H_    0.253450 0.367979 0.830715 0.247008
H2    H     H_    0.571862 0.748005 0.826355 0.203147
H3    H     H_    0.763031 0.578145 0.415225 0.080641
H4    H     H_    0.681253 0.621255 0.301719 0.175675
H5    H     H_    0.883257 0.653359 0.491457 0.226902
H6    H     H_    0.801972 0.696939 0.378281 0.191727
H7    H     H_    0.687952 0.693104 0.428633 0.300803
H8    H     H_    0.802601 0.716804 0.540352 0.274363
H9    H     H_    0.766133 0.647219 0.540038 0.267557
H10   H     H_    0.619581 0.136984 0.555466 0.162571
H11   H     H_    0.665577 0.072836 0.549556 0.108921
H12   H     H_    0.777387 0.180175 0.654217 0.211219
H13   H     H_    0.933329 0.249013 0.171686 0.201627
H14   H     H_    0.831506 0.115030 0.663895 0.260604
H15   H     H_    0.747435 0.112275 0.466119 0.261341
H16   H     H_    0.810153 0.176405 0.517468 0.293680
H17   H     H_    0.683557 0.174586 0.450629 0.261542
H18   H     H_    0.263002 0.078142 0.415219 0.080648
H19   H     H_    0.181226 0.121244 0.301696 0.175686
H20   H     H_    0.383206 0.153368 0.491469 0.226890
H21   H     H_    0.301931 0.196939 0.378271 0.191729
H22   H     H_    0.187861 0.193085 0.428567 0.300841
H23   H     H_    0.302485 0.216820 0.540281 0.274349
H24   H     H_    0.071868 0.248001 0.826356 0.203149
H25   H     H_    0.266067 0.147228 0.540016 0.267541
H26   H     H_    0.551185 0.600068 0.393269 0.312566
H27   H     H_    0.553040 0.602229 0.689463 0.312961
H28   H     H_    0.051167 0.100068 0.393259 0.312567
H29   H     H_    0.053036 0.102229 0.689459 0.312961
H30   H     H_    0.344225 0.384445 0.706455 0.095300
H31   H     H_    0.283579 0.435893 0.599985 0.083954
H32   H     H_    0.228851 0.313602 0.581424 0.214726
H33   H     H_    0.166577 0.365198 0.477478 0.203778
H34   H     H_    0.313280 0.382155 0.483019 0.278478
H35   H     H_    0.402713 0.544595 0.521841 0.141726
H36   H     H_    0.271338 0.312282 0.448738 0.276764
H37   H     H_    0.372774 0.328070 0.583073 0.284757
H38   H     H_    0.662365 0.374418 0.277799 0.096307
H39   H     H_    0.716908 0.421642 0.392054 0.082788
H40   H     H_    0.786268 0.304785 0.395865 0.216421
H41   H     H_    0.839196 0.352190 0.506941 0.201227
H42   H     H_    0.687208 0.352998 0.494716 0.270398
H43   H     H_    0.740069 0.285799 0.522613 0.281283
H44   H     H_    0.638856 0.302197 0.388622 0.278804
H45   H     H_    0.844226 0.884445 0.706462 0.095297
H46   H     H_    0.399356 0.543315 0.359497 0.135835
H47   H     H_    0.783574 0.935887 0.599981 0.083959
H48   H     H_    0.728861 0.813595 0.581449 0.214726
H49   H     H_    0.666576 0.865184 0.477492 0.203778
H50   H     H_    0.813270 0.882143 0.483017 0.278476
H51   H     H_    0.771339 0.812268 0.448755 0.276770
H52   H     H_    0.872777 0.828065 0.583084 0.284755
H53   H     H_    0.162364 0.874417 0.277798 0.096309
H54   H     H_    0.216903 0.921642 0.392050 0.082784
H55   H     H_    0.286269 0.804786 0.395870 0.216422
H56   H     H_    0.339192 0.852192 0.506944 0.201226
H57   H     H_    0.166364 0.954087 0.694812 0.156305
H58   H     H_    0.187198 0.852998 0.494709 0.270398
H59   H     H_    0.240064 0.785800 0.522613 0.281282
H60   H     H_    0.138854 0.802195 0.388619 0.278805
H61   H     H_    0.514711 0.340944 0.217095 0.282909
H62   H     H_    0.476144 0.337445 0.786693 0.288864
H63   H     H_    0.014711 0.840944 0.217094 0.282909
H64   H     H_    0.976145 0.837445 0.786693 0.288862
H65   H     H_    0.012123 0.379625 0.429474 0.338752
H66   H     H_    0.991505 0.377194 0.557156 0.337590
H67   H     H_    0.512123 0.879627 0.429481 0.338755
H68   H     H_    0.162620 0.952728 0.529904 0.116785
H69   H     H_    0.491504 0.877192 0.557163 0.337588
H70   H     H_    0.662625 0.452726 0.529910 0.116783
H71   H     H_    0.666365 0.454084 0.694816 0.156304
H72   H     H_    0.899345 0.043312 0.359492 0.135835
H73   H     H_    0.744083 0.364064 0.168247 0.247857
H74   H     H_    0.902706 0.044592 0.521840 0.141727
H75   H     H_    0.544137 0.412292 0.323618 0.175323
H76   H     H_    0.498916 0.413502 0.705710 0.204134
H77   H     H_    0.044132 0.912292 0.323616 0.175326
H78   H     H_    0.998915 0.913502 0.705709 0.204133
H79   H     H_    0.313856 0.665747 0.827208 0.176579
H80   H     H_    0.689772 0.665453 0.172024 0.170046
H81   H     H_    0.813856 0.165747 0.827209 0.176575
H82   H     H_    0.189777 0.165451 0.172026 0.170050
H83   H     H_    0.996541 0.615927 0.334392 0.142669
H84   H     H_    0.753449 0.867978 0.830716 0.247009
H85   H     H_    0.908164 0.568896 0.239949 0.105149
H86   H     H_    0.123511 0.543943 0.385750 0.209162
H87   H     H_    0.032286 0.501265 0.281725 0.196468
H88   H     H_    0.992082 0.573496 0.143544 0.264966
H89   H     H_    0.114410 0.552593 0.216947 0.272465
H90   H     H_    0.084762 0.617011 0.248594 0.270407
H91   H     H_    0.009601 0.603605 0.684472 0.138863
H92   H     H_    0.076020 0.544527 0.759647 0.086220
H93   H     H_    0.859721 0.555147 0.591541 0.208825
H94   H     H_    0.916543 0.489628 0.638803 0.196991
H95   H     H_    0.244082 0.864065 0.168248 0.247857
H96   H     H_    0.980153 0.515559 0.828173 0.263002
H97   H     H_    0.852933 0.522145 0.740937 0.275006
H98   H     H_    0.926283 0.582859 0.781961 0.275149
H99   H     H_    0.496562 0.115931 0.334436 0.142664
H100  H     H_    0.408168 0.068912 0.239979 0.105164
H101  H     H_    0.623503 0.043925 0.385768 0.209159
H102  H     H_    0.532257 0.001271 0.281709 0.196467
H103  H     H_    0.492099 0.073523 0.143581 0.264970
H104  H     H_    0.614415 0.052598 0.216975 0.272465
H105  H     H_    0.584800 0.117015 0.248664 0.270407
H106  H     H_    0.277445 0.752481 0.823588 0.130198
H107  H     H_    0.509660 0.103589 0.684561 0.138868
H108  H     H_    0.576004 0.044480 0.759673 0.086165
H109  H     H_    0.359725 0.055203 0.591573 0.208822
H110  H     H_    0.416449 0.989651 0.638709 0.196993
H111  H     H_    0.480089 0.015490 0.828125 0.262996
H112  H     H_    0.352882 0.022155 0.740899 0.275013
H113  H     H_    0.426344 0.082826 0.782058 0.275151
H114  H     H_    0.681513 0.325502 0.741585 0.312549
H115  H     H_    0.304805 0.330366 0.252951 0.313548
H116  H     H_    0.181515 0.825502 0.741586 0.312549
H117  H     H_    0.715853 0.754576 0.172394 0.129642
H118  H     H_    0.804803 0.830367 0.252951 0.313549
H119  H     H_    0.955281 0.422127 0.217833 0.155099
H120  H     H_    0.915082 0.399970 0.087817 0.040830
H121  H     H_    0.067804 0.336347 0.294330 0.226286
H122  H     H_    0.037953 0.328982 0.160164 0.190493
H123  H     H_    0.092856 0.427426 0.169473 0.269708
H124  H     H_    0.184454 0.380978 0.266233 0.284809
H125  H     H_    0.133988 0.428517 0.309882 0.265615
H126  H     H_    0.025395 0.418733 0.758165 0.161434
H127  H     H_    0.066831 0.400686 0.891661 0.048136
H128  H     H_    0.777442 0.252480 0.823587 0.130198
H129  H     H_    0.929091 0.327025 0.694561 0.225392
H130  H     H_    0.957560 0.321526 0.828626 0.189279
H131  H     H_    0.884344 0.414906 0.805079 0.274420
H132  H     H_    0.802545 0.363654 0.711821 0.275485
H133  H     H_    0.846939 0.415038 0.665995 0.268508
H134  H     H_    0.455274 0.922126 0.217838 0.155104
H135  H     H_    0.415081 0.899971 0.087823 0.040829
H136  H     H_    0.567803 0.836348 0.294338 0.226283
H137  H     H_    0.537956 0.828986 0.160174 0.190489
H138  H     H_    0.592856 0.927430 0.169486 0.269708
H139  H     H_    0.215853 0.254576 0.172394 0.129643
H140  H     H_    0.684455 0.880984 0.266251 0.284806
H141  H     H_    0.633979 0.928522 0.309893 0.265617
H142  H     H_    0.525386 0.918737 0.758165 0.161439
H143  H     H_    0.566823 0.900688 0.891661 0.048123
H144  H     H_    0.429089 0.827026 0.694560 0.225391
H145  H     H_    0.457555 0.821526 0.828624 0.189280
H146  H     H_    0.384331 0.914901 0.805078 0.274423
H147  H     H_    0.302536 0.863652 0.711806 0.275485
H148  H     H_    0.346938 0.915041 0.665998 0.268518
H149  H     H_    0.542918 0.707435 0.166952 0.284498
H150  H     H_    0.433330 0.749012 0.171687 0.201627
H151  H     H_    0.459281 0.709287 0.832102 0.280657
H152  H     H_    0.042917 0.207435 0.166951 0.284501
H153  H     H_    0.959284 0.209288 0.832104 0.280658
H154  H     H_    0.119580 0.636977 0.555452 0.162578
H155  H     H_    0.165592 0.572832 0.549555 0.108904
H156  H     H_    0.277383 0.680177 0.654210 0.211218
H157  H     H_    0.331510 0.615035 0.663890 0.260611
H158  H     H_    0.247447 0.612281 0.466116 0.261334
H159  H     H_    0.310151 0.676415 0.517464 0.293674
H160  H     H_    0.183554 0.674586 0.450620 0.261544
N1    N     N_R   0.395440 0.396300 0.944370 -0.077496
N2    N     N_R   0.474910 0.470990 0.794360 -0.095316
N3    N     N_R   0.025090 0.970990 0.205640 -0.088029
N4    N     N_R   0.974910 0.970990 0.794360 -0.095316
N5    N     N_R   0.320240 0.527820 0.794510 -0.123990
N6    N     N_R   0.679760 0.527820 0.205490 -0.136774
N7    N     N_R   0.820240 0.027820 0.794510 -0.123994
N8    N     N_R   0.179760 0.027820 0.205490 -0.136780
N9    N     N_R   0.524580 0.527810 0.205160 -0.077038
N10   N     N_R   0.475420 0.527810 0.794840 -0.079535
N11   N     N_R   0.024580 0.027810 0.205160 -0.077043
N12   N     N_R   0.604560 0.396300 0.055630 -0.078504
N13   N     N_R   0.975420 0.027810 0.794840 -0.079536
N14   N     N_R   0.320750 0.470990 0.794990 -0.140123
N15   N     N_R   0.679250 0.470990 0.205010 -0.140319
N16   N     N_R   0.820750 0.970990 0.794990 -0.140121
N17   N     N_R   0.179250 0.970990 0.205010 -0.140318
N18   N     N_R   0.393580 0.602500 0.942610 -0.074282
N19   N     N_R   0.606420 0.602500 0.057390 -0.080318
N20   N     N_R   0.893580 0.102500 0.942610 -0.074281
N21   N     N_R   0.106420 0.102500 0.057390 -0.080321
N22   N     N_R   0.451750 0.396300 0.057540 -0.117099
N23   N     N_R   0.895440 0.896300 0.944370 -0.077496
N24   N     N_R   0.548250 0.396300 0.942460 -0.112842
N25   N     N_R   0.951750 0.896300 0.057540 -0.117098
N26   N     N_R   0.048250 0.896300 0.942460 -0.112842
N27   N     N_R   0.104560 0.896300 0.055630 -0.078504
N28   N     N_R   0.449890 0.602500 0.055780 -0.086524
N29   N     N_R   0.550110 0.602500 0.944220 -0.085037
N30   N     N_R   0.949890 0.102500 0.055780 -0.086525
N31   N     N_R   0.050110 0.102500 0.944220 -0.085035
N32   N     N_R   0.525090 0.470990 0.205640 -0.088028
Ni1   Ni    Ni4+2 0.435420 0.434250 0.870220 0.169771
Ni2   Ni    Ni4+2 0.564580 0.434250 0.129780 0.165833
Ni3   Ni    Ni4+2 0.935420 0.934250 0.870220 0.169771
Ni4   Ni    Ni4+2 0.064580 0.934250 0.129780 0.165833
Ni5   Ni    Ni4+2 0.563400 0.564580 0.128670 0.226309
Ni6   Ni    Ni4+2 0.436600 0.564580 0.871330 0.232587
Ni7   Ni    Ni4+2 0.063400 0.064580 0.128670 0.226298
Ni8   Ni    Ni4+2 0.936600 0.064580 0.871330 0.232587
O1    O     O_3   0.981743 0.549110 0.406008 -0.641674
O2    O     O_3   0.108955 0.349825 0.813471 -0.628070
O3    O     O_3   0.386486 0.848235 0.179682 -0.626905
O4    O     O_3   0.608951 0.849829 0.813473 -0.628061
O5    O     O_3   0.523003 0.672925 0.183866 -0.750336
O6    O     O_3   0.475993 0.673619 0.816079 -0.756031
O7    O     O_3   0.023002 0.172925 0.183865 -0.750355
O8    O     O_3   0.975993 0.173619 0.816080 -0.756031
O9    O     O_3   0.201667 0.598395 0.702612 -0.660209
O10   O     O_3   0.799508 0.597224 0.308576 -0.650229
O11   O     O_3   0.701665 0.098395 0.702619 -0.660199
O12   O     O_3   0.017834 0.545996 0.592204 -0.635453
O13   O     O_3   0.299505 0.097223 0.308595 -0.650221
O14   O     O_3   0.541411 0.598880 0.322278 -0.736944
O15   O     O_3   0.516928 0.599963 0.721649 -0.735776
O16   O     O_3   0.041399 0.098880 0.322272 -0.736959
O17   O     O_3   0.016926 0.099964 0.721647 -0.735775
O18   O     O_3   0.211116 0.405272 0.662743 -0.619271
O19   O     O_3   0.794704 0.404108 0.330358 -0.620862
O20   O     O_3   0.711115 0.905271 0.662746 -0.619272
O21   O     O_3   0.294702 0.904108 0.330359 -0.620862
O22   O     O_3   0.446807 0.343919 0.187780 -0.730904
O23   O     O_3   0.481742 0.049112 0.406030 -0.641671
O24   O     O_3   0.544387 0.335195 0.817638 -0.739452
O25   O     O_3   0.946807 0.843919 0.187779 -0.730905
O26   O     O_3   0.044388 0.835195 0.817638 -0.739455
O27   O     O_3   0.961990 0.406084 0.379942 -0.722680
O28   O     O_3   0.041369 0.403499 0.607659 -0.718047
O29   O     O_3   0.461990 0.906086 0.379949 -0.722683
O30   O     O_3   0.541369 0.903497 0.607667 -0.718034
O31   O     O_3   0.517836 0.045992 0.592233 -0.635437
O32   O     O_3   0.683486 0.343514 0.801267 -0.732481
O33   O     O_3   0.302513 0.349390 0.193427 -0.709014
O34   O     O_3   0.183488 0.843514 0.801269 -0.732478
O35   O     O_3   0.802514 0.849390 0.193428 -0.709014
O36   O     O_3   0.886488 0.348237 0.179679 -0.626900

loop_
_geom_bond_atom_site_label_1
_geom_bond_atom_site_label_2
_ccdc_geom_bond_type
C38   O19   S    
C135  H86   S    
C75   N27   A    
C139  H97   S    
C19   C20   S    
C72   O36   S    
C39   H40   S    
C90   C95   A    
H61   O22   S    
C110  N7    A    
N19   Ni5   S    
C24   C98   S    
C10   H125  S    
C72   C79   A    
C1    C129  A    
C59   C66   A    
C5    C6    S    
C88   C108  S    
N21   Ni7   S    
C49   C120  A    
C19   H145  S    
C126  N24   A    
C140  H100  S    
C41   H47   S    
N9    Ni5   S    
C20   H148  S    
C61   C63   A    
N24   Ni1   S    
C71   C132  S    
C116  N14   A    
C46   C55   S    
C70   C74   A    
C47   H58   S    
N26   N27   A    
C4    H103  S    
C81   C86   A    
C6    H109  S    
C41   O20   S    
H26   O14   S    
C81   N28   A    
C30   H16   S    
C136  H88   S    
C36   H33   S    
C21   C22   S    
C134  O1    S    
N27   Ni4   S    
C45   C47   S    
C101  H72   S    
C113  O15   S    
C6    H110  S    
C135  C136  S    
C12   H129  S    
C104  H76   S    
C65   O33   S    
C14   H131  S    
C125  O22   S    
C98   C102  A    
N5    N14   A    
C46   C117  A    
H69   O30   S    
C68   C131  S    
C2    C104  A    
C68   C72   A    
C86   C121  A    
C44   H53   S    
N18   N28   A    
C15   H135  S    
C28   O11   S    
C91   H46   S    
C124  H82   S    
C105  H77   S    
C22   H157  S    
C77   H150  S    
N3    N11   A    
C38   H39   S    
C117  O19   S    
C6    C7    S    
N19   N29   A    
C136  H89   S    
C76   O4    S    
N21   N31   A    
C81   O5    S    
C91   C94   A    
C66   C70   A    
C84   C119  A    
C84   N31   A    
C59   H106  S    
H67   O29   S    
C103  C130  A    
C4    H105  S    
C17   H140  S    
C35   C107  A    
H151  O6    S    
C125  C129  A    
C69   C129  S    
C118  O20   S    
C22   C23   S    
C138  H93   S    
N7    Ni8   S    
C23   H160  S    
C78   C87   A    
H28   O16   S    
C48   C110  A    
C112  N9    A    
C15   H134  S    
C137  O12   S    
N30   Ni7   S    
C85   C86   S    
C83   C108  A    
C123  H81   S    
C51   O28   S    
C94   C130  S    
C135  H87   S    
C125  N22   A    
C63   O32   S    
C36   C37   S    
C33   H23   S    
C76   C78   A    
C3    H101  S    
C58   O31   S    
C114  O16   S    
C111  O13   S    
C49   C57   S    
C8    O36   S    
C105  N3    A    
C56   O12   S    
C106  N4    A    
N20   Ni8   S    
C18   H143  S    
C60   C67   A    
C74   C77   A    
C9    C10   S    
C82   O6    S    
C40   H43   S    
H116  O34   S    
C45   H56   S    
C77   C85   A    
C47   H59   S    
C137  H92   S    
C31   O13   S    
C36   H32   S    
C13   C96   S    
C134  H85   S    
C64   C132  A    
C138  C139  S    
C39   C40   S    
H65   O27   S    
C16   C17   S    
C25   C26   S    
C52   O29   S    
C7    H111  S    
N23   N25   A    
N5    Ni6   S    
C8    H120  S    
C59   C85   A    
C29   C30   S    
C79   H13   S    
C31   C32   S    
C9    H122  S    
C120  N17   A    
C34   O18   S    
C23   H158  S    
C43   H52   S    
H114  O32   S    
C115  O17   S    
C25   H4    S    
C24   C106  A    
C62   H139  S    
N26   Ni3   S    
C11   O2    S    
N11   Ni7   S    
C3    C4    S    
C117  N15   A    
C118  N16   A    
C63   C68   A    
C53   H73   S    
C35   C56   S    
C33   H25   S    
C17   H138  S    
C107  O9    S    
N2    Ni1   S    
H118  O35   S    
C134  C135  S    
H115  O33   S    
C37   H37   S    
C100  H71   S    
H27   O15   S    
C49   C111  A    
C11   H126  S    
C34   C36   S    
C34   H31   S    
C64   N23   A    
C28   H11   S    
N1    N22   A    
N25   Ni4   S    
C5    H108  S    
C112  C130  A    
C93   H68   S    
C4    H104  S    
C29   H14   S    
C124  N21   A    
C30   H17   S    
N16   Ni3   S    
C55   O1    S    
C101  C102  A    
C41   C42   S    
C21   H155  S    
C16   H136  S    
C22   H156  S    
N4    N13   A    
C26   C27   S    
N6    N15   A    
C28   C29   S    
C57   O23   S    
C12   H130  S    
N8    N17   A    
C78   H2    S    
C71   C76   A    
C14   H132  S    
N17   Ni4   S    
C62   C89   A    
N12   Ni2   S    
C10   H123  S    
C64   H84   S    
C15   O3    S    
C18   C19   S    
C80   C89   A    
C80   H24   S    
H66   O28   S    
C37   H34   S    
C102  H74   S    
C89   C119  S    
C43   H50   S    
C27   H8    S    
C69   C73   A    
C53   C131  A    
C120  O21   S    
C13   C114  A    
C17   H141  S    
C96   C101  A    
C139  H98   S    
C121  H79   S    
N3    Ni4   S    
C79   C88   A    
C40   H42   S    
C73   O2    S    
N23   Ni3   S    
C13   C105  A    
C66   O34   S    
C95   C100  A    
C116  O18   S    
N12   N24   A    
C136  H90   S    
C90   H35   S    
C140  H99   S    
C20   H147  S    
C60   H117  S    
C61   H128  S    
C16   H137  S    
C50   C51   S    
C35   C116  A    
C44   O21   S    
C110  O11   S    
H152  O7    S    
C30   H15   S    
C106  H78   S    
C82   C97   A    
C128  N26   A    
C138  H94   S    
C112  O14   S    
C42   C43   S    
C108  C123  A    
C103  H75   S    
C23   H159  S    
C44   C45   S    
C42   H48   S    
C121  N18   A    
H153  O8    S    
C123  N20   A    
N32   Ni2   S    
C75   C133  A    
C48   C58   S    
C113  N10   A    
C32   C33   S    
C33   H22   S    
C37   H36   S    
C42   H49   S    
C90   C91   A    
C38   C39   S    
C65   C69   A    
C92   C93   A    
C67   C71   A    
C31   H18   S    
C1    H1    S    
C52   C57   D    
C128  O26   S    
C134  H83   S    
C46   C109  A    
C139  H96   S    
C11   H127  S    
C103  N32   A    
C3    H102  S    
C18   O4    S    
N6    Ni5   S    
C40   H44   S    
C45   H55   S    
C28   H10   S    
C38   H38   S    
C82   N29   A    
C137  H91   S    
C92   C98   A    
C119  C124  A    
C107  N5    A    
C19   H144  S    
C122  H80   S    
C83   N30   A    
C127  N25   A    
N4    Ni3   S    
H64   O26   S    
C2    C95   S    
H29   O17   S    
C2    C113  A    
N31   Ni8   S    
H62   O24   S    
C15   C16   S    
C26   H6    S    
C51   C56   D    
C53   N12   A    
C127  C132  A    
N14   Ni1   S    
C8    C9    S    
C9    H121  S    
C70   C133  S    
C75   H95   S    
C83   O7    S    
N28   Ni5   S    
C34   H30   S    
N18   Ni6   S    
C43   H51   S    
C122  N19   A    
C27   H9    S    
C7    H113  S    
C1    N1    A    
C25   H3    S    
C21   O9    S    
C5    H107  S    
C54   O30   S    
N15   Ni2   S    
C50   O27   S    
C60   C87   A    
C52   C54   S    
C127  O25   S    
C111  N8    A    
N22   Ni2   S    
C109  O10   S    
C114  N11   A    
C48   C118  A    
C84   O8    S    
C67   O35   S    
C109  N6    A    
C26   H5    S    
C97   C122  A    
C61   C88   A    
H149  O5    S    
C126  O24   S    
C99   C100  A    
C18   H142  S    
C32   H21   S    
N2    N10   A    
N13   Ni8   S    
C41   H45   S    
C20   H146  S    
C39   H41   S    
C12   C14   S    
C93   C96   A    
C47   H60   S    
H63   O25   S    
C92   H57   S    
N29   Ni6   S    
N10   Ni6   S    
C54   C58   D    
C104  N2    A    
C62   C65   A    
C21   H154  S    
C11   C12   S    
N7    N16   A    
C74   O3    S    
C137  C138  S    
C44   H54   S    
C50   C55   D    
C7    H112  S    
C8    H119  S    
C126  C131  A    
C140  O23   S    
C25   O10   S    
C128  C133  A    
C5    O31   S    
C29   H12   S    
C14   H133  S    
C94   C99   A    
C73   C80   A    
C10   H124  S    
C115  N13   A    
N8    Ni7   S    
N9    N32   A    
C24   C115  A    
C27   H7    S    
N20   N30   A    
N1    Ni1   S    
C3    C140  S    
C87   C97   S    
C31   H19   S    
C32   H20   S    
C99   H70   S    
