data_mof_unit_2196.cif
_audit_creation_date              2012-12-10T18:11:06-0500
_audit_creation_method            fapswitch 2.2
_symmetry_space_group_name_H-M    P1
_symmetry_Int_Tables_number       1
_space_group_crystal_system       triclinic
_cell_length_a                    10.775867
_cell_length_b                    9.420167
_cell_length_c                    10.621625
_cell_angle_alpha                 89.80311
_cell_angle_beta                  89.789543
_cell_angle_gamma                 90.040592
_cell_volume                      1078.19219093

loop_
_atom_site_label
_atom_site_type_symbol
_atom_type_description
_atom_site_fract_x
_atom_site_fract_y
_atom_site_fract_z
_atom_type_partial_charge
C1    C     C_R   0.260016 0.499742 0.497928 0.796938
C2    C     C_3   0.500035 0.501125 0.122369 0.012558
C3    C     C_3   0.075269 0.542387 0.630415 -0.352072
C4    C     C_3   0.073977 0.347354 0.469136 -0.434538
C5    C     C_3   0.930856 0.547701 0.633998 0.394390
C6    C     C_3   0.930460 0.343120 0.472148 0.419724
C7    C     C_3   0.071973 0.602555 0.397944 -0.414807
C8    C     C_3   0.122647 0.498417 0.498578 0.026689
C9    C     C_3   0.879109 0.497557 0.501655 0.013990
C10   C     C_3   0.929093 0.600648 0.397779 -0.538369
C11   C     C_3   0.618366 0.083567 0.551415 -0.164046
C12   C     C_3   0.617384 0.916318 0.553764 -0.180051
C13   C     C_3   0.399094 0.083369 0.582741 -0.192988
C14   C     C_3   0.397907 0.915770 0.581236 -0.191268
C15   C     C_3   0.482994 0.083978 0.374408 -0.192781
C16   C     C_3   0.484644 0.916836 0.374223 -0.193243
C17   C     C_R   0.499995 0.500327 0.259282 0.793272
C18   C     C_R   0.740223 0.499661 0.500278 0.769559
C19   C     C_R   0.499915 0.499701 0.740769 0.780615
C20   C     C_3   0.498251 0.635236 0.040085 -0.142323
C21   C     C_3   0.398917 0.431309 0.042684 -0.174397
C22   C     C_3   0.397144 0.565263 0.958106 -0.167917
C23   C     C_3   0.499978 0.499054 0.877613 0.018515
C24   C     C_3   0.601077 0.568921 0.957257 -0.167592
C25   C     C_3   0.501752 0.364983 0.959878 -0.135233
C26   C     C_3   0.602851 0.434976 0.041812 -0.155217
Cu1   Cu    Cu3+1 0.499860 0.642410 0.500060 0.897783
Cu2   Cu    Cu3+1 0.499860 0.357590 0.500060 0.917359
H1    H     H_    0.313059 0.618375 0.920485 0.125318
H2    H     H_    0.894255 0.710392 0.413079 0.198312
H3    H     H_    0.895157 0.568505 0.303296 0.190463
H4    H     H_    0.637097 0.125150 0.647382 0.172816
H5    H     H_    0.630847 0.878145 0.651906 0.170121
H6    H     H_    0.696327 0.118374 0.490250 0.183050
H7    H     H_    0.697718 0.878134 0.497509 0.160463
H8    H     H_    0.409151 0.121021 0.681284 0.141655
H9    H     H_    0.404887 0.875015 0.679310 0.144716
H10   H     H_    0.393796 0.122389 0.334337 0.140858
H11   H     H_    0.397044 0.876604 0.332155 0.141572
H12   H     H_    0.557898 0.123031 0.310774 0.160660
H13   H     H_    0.561568 0.880076 0.312283 0.145546
H14   H     H_    0.307613 0.122217 0.549498 0.143925
H15   H     H_    0.306710 0.879277 0.545019 0.144547
H16   H     H_    0.496801 0.745951 0.075588 0.126397
H17   H     H_    0.316290 0.375159 0.080932 0.126781
H18   H     H_    0.683688 0.625155 0.919054 0.145427
H19   H     H_    0.503233 0.254272 0.924362 0.131372
H20   H     H_    0.687057 0.381906 0.078933 0.163504
H21   H     H_    0.117472 0.646380 0.656391 0.125756
H22   H     H_    0.111478 0.312931 0.376084 0.140969
H23   H     H_    0.110037 0.464907 0.701494 0.186869
H24   H     H_    0.111331 0.271061 0.539797 0.181439
H25   H     H_    0.104649 0.712383 0.417554 0.187670
H26   H     H_    0.107386 0.572684 0.303085 0.175417
N1    N     N_3   0.500250 0.143650 0.502780 -0.130226
N2    N     N_3   0.500250 0.856350 0.502780 -0.123782
O1    O     O_R   0.317570 0.620260 0.500070 -0.597326
O2    O     O_R   0.317570 0.379740 0.500070 -0.599317
O3    O     O_R   0.499850 0.620240 0.316900 -0.598303
O4    O     O_R   0.499850 0.379760 0.316900 -0.592776
O5    O     O_R   0.682190 0.620260 0.500030 -0.602065
O6    O     O_R   0.682190 0.379740 0.500030 -0.546858
O7    O     O_R   0.499910 0.620280 0.683200 -0.590902
O8    O     O_R   0.499910 0.379720 0.683200 -0.591837
O9    O     O_3   0.889316 0.457473 0.731731 -0.692538
H27   H     H_    0.797773 0.466672 0.739207 0.311380
O10   O     O_3   0.891313 0.247751 0.567112 -0.703511
H28   H     H_    0.922949 0.151485 0.546175 0.306891
C27   C     C_1   0.893513 0.695089 0.665337 0.162737
N3    N     N_1   0.866356 0.810232 0.690948 -0.331650
C28   C     C_1   0.884479 0.290790 0.348723 0.148371
N4    N     N_1   0.848686 0.249761 0.252912 -0.328460

loop_
_geom_bond_atom_site_label_1
_geom_bond_atom_site_label_2
_ccdc_geom_bond_type
C7    C10   S    
C14   N2    S    
C22   H1    S    
C1    C8    S    
C4    C8    S    
C6    C9    S    
C3    H21   S    
C7    C8    S    
C4    H24   S    
C24   C26   S    
C15   C16   S    
C5    C27   S    
Cu1   O5    S    
C10   H3    S    
C20   C24   S    
C19   O7    A    
C23   C24   S    
C9    C10   S    
C25   H19   S    
C26   H20   S    
C21   C22   S    
C2    C17   S    
C13   H14   S    
C20   H16   S    
Cu2   N1    S    
C21   H17   S    
Cu2   O4    S    
C6    C28   S    
C2    C20   S    
O10   H28   S    
C13   H8    S    
C4    C6    S    
C3    C8    S    
Cu1   O1    S    
C3    H23   S    
Cu1   N2    S    
C18   O6    A    
C16   H11   S    
C25   C26   S    
C4    H22   S    
C15   N1    S    
C19   C23   S    
C16   N2    S    
C15   H10   S    
C5    C9    S    
C1    O1    A    
C10   H2    S    
C19   O8    A    
C2    C21   S    
C2    C26   S    
C12   H7    S    
C12   N2    S    
Cu1   O7    S    
C17   O3    A    
Cu2   O8    S    
C5    O9    S    
C6    O10   S    
C20   C22   S    
C11   H4    S    
C7    H25   S    
C11   N1    S    
C21   C25   S    
C11   H6    S    
C3    C5    S    
C11   C12   S    
C18   O5    A    
Cu2   O2    S    
C24   H18   S    
C28   N4    T    
Cu1   O3    S    
C1    O2    A    
C14   H9    S    
C23   C25   S    
C27   N3    T    
C15   H12   S    
C17   O4    A    
C9    C18   S    
O9    H27   S    
Cu1   Cu2   S    
C22   C23   S    
C7    H26   S    
C12   H5    S    
C13   C14   S    
C16   H13   S    
C14   H15   S    
C13   N1    S    
Cu2   O6    S    
