data_mof_unit_1354.cif
_audit_creation_date              2012-12-10T17:47:06-0500
_audit_creation_method            fapswitch 2.2
_symmetry_space_group_name_H-M    P1
_symmetry_Int_Tables_number       1
_space_group_crystal_system       triclinic
_cell_length_a                    9.92769
_cell_length_b                    10.64766
_cell_length_c                    13.611691
_cell_angle_alpha                 91.762721
_cell_angle_beta                  82.94739
_cell_angle_gamma                 90.119613
_cell_volume                      1427.28214115

loop_
_atom_site_label
_atom_site_type_symbol
_atom_type_description
_atom_site_fract_x
_atom_site_fract_y
_atom_site_fract_z
_atom_type_partial_charge
C1    C     C_R   0.500655 0.739246 0.496516 0.853384
C2    C     C_R   0.573458 0.938429 0.554104 -0.220487
C3    C     C_R   0.573071 0.066549 0.553968 -0.205478
C4    C     C_R   0.475588 0.500691 0.685640 0.886363
C5    C     C_R   0.502154 0.127768 0.487443 -0.085059
C6    C     C_R   0.839813 0.667625 0.628141 -0.151249
C7    C     C_R   0.899949 0.749288 0.691513 -0.201619
C8    C     C_R   0.039189 0.747560 0.692422 -0.185780
C9    C     C_R   0.119234 0.664592 0.629590 -0.149211
C10   C     C_R   0.062037 0.581641 0.563531 0.157305
C11   C     C_R   0.917615 0.582320 0.563132 0.169793
C12   C     C_1   0.456892 0.504456 0.789624 -0.184847
C13   C     C_R   0.938600 0.421521 0.439374 -0.123713
C14   C     C_R   0.081629 0.421834 0.439170 -0.116984
C15   C     C_R   0.500618 0.260501 0.495488 0.870168
C16   C     C_R   0.524378 0.500142 0.314392 0.874950
C17   C     C_1   0.542863 0.503076 0.210612 -0.191909
C18   C     C_2   0.558258 0.508566 0.018959 -0.157163
C19   C     C_2   0.441114 0.511475 0.981632 -0.151862
C20   C     C_1   0.444842 0.508085 0.877583 0.006989
C21   C     C_1   0.554619 0.505902 0.122829 0.006732
C22   C     C_3   0.151348 0.760366 0.250711 0.073347
C23   C     C_R   0.370862 0.862073 0.344322 -0.318027
C24   C     C_3   0.037858 0.729392 0.187584 -0.338042
C25   C     C_3   0.947932 0.623410 0.231324 -0.922440
C26   C     C_R   0.298493 0.923912 0.277322 0.543950
C27   C     C_R   0.303380 0.054676 0.275566 -0.192680
C28   C     C_R   0.371554 0.123273 0.343054 -0.286698
C29   C     C_R   0.434831 0.062010 0.416030 0.101925
C30   C     C_R   0.435039 0.930422 0.416318 0.050301
C31   C     C_R   0.502753 0.871205 0.487809 -0.061914
H1    H     H_    0.343990 0.513841 0.028331 0.157228
H2    H     H_    0.253763 0.103742 0.221418 0.156839
H3    H     H_    0.374941 0.224118 0.336394 0.169622
H4    H     H_    0.625181 0.118351 0.607850 0.160625
H5    H     H_    0.893226 0.357495 0.389694 0.152250
H6    H     H_    0.103796 0.785498 0.327464 0.142644
H7    H     H_    0.215927 0.675329 0.252106 0.158660
H8    H     H_    0.974367 0.814424 0.183133 0.231391
H9    H     H_    0.082901 0.700786 0.111373 0.227795
H10   H     H_    0.008909 0.536699 0.234965 0.255202
H11   H     H_    0.866664 0.603224 0.183867 0.268388
H12   H     H_    0.732377 0.674208 0.632714 0.196994
H13   H     H_    0.899740 0.650968 0.306906 0.278637
H14   H     H_    0.837822 0.813897 0.740610 0.148421
H15   H     H_    0.085598 0.810643 0.742328 0.152876
H16   H     H_    0.225194 0.667631 0.635227 0.203301
H17   H     H_    0.143438 0.357951 0.389362 0.145148
H18   H     H_    0.655333 0.505480 0.972240 0.158706
H19   H     H_    0.625673 0.891572 0.608152 0.143728
H20   H     H_    0.378381 0.761109 0.338082 0.160030
N1    N     N_R   0.857120 0.501200 0.500900 -0.120184
N2    N     N_R   0.142720 0.501280 0.500940 -0.120393
O1    O     O_R   0.385310 0.683220 0.500000 -0.644844
O2    O     O_R   0.614640 0.683250 0.500010 -0.634754
O3    O     O_R   0.368830 0.499960 0.640340 -0.621165
O4    O     O_R   0.598160 0.499980 0.640350 -0.624061
O5    O     O_R   0.385360 0.316750 0.499990 -0.611282
O6    O     O_R   0.614690 0.316780 0.500000 -0.610516
O7    O     O_R   0.401840 0.500020 0.359650 -0.632966
O8    O     O_R   0.631170 0.500040 0.359660 -0.602732
O9    O     O_3   0.230301 0.860116 0.207738 -0.650126
Zn1   Zn    Zn3+2 0.346870 0.499980 0.499990 0.922145
Zn2   Zn    Zn3+2 0.653130 0.500020 0.500010 0.932348

loop_
_geom_bond_atom_site_label_1
_geom_bond_atom_site_label_2
_ccdc_geom_bond_type
C4    O4    A    
C25   H11   S    
O8    Zn2   S    
C1    O1    A    
C6    C7    A    
C4    C12   S    
C18   C21   S    
C9    C10   A    
C23   H20   S    
C19   C20   S    
C3    H4    S    
C3    C5    A    
O2    Zn2   S    
C12   C20   T    
C2    C3    A    
C26   O9    S    
O3    Zn1   S    
C28   H3    S    
C7    C8    A    
C13   C14   A    
C27   H2    S    
N2    Zn1   S    
C26   C27   A    
C29   C30   A    
C13   H5    S    
O7    Zn1   S    
C16   O7    A    
C19   H1    S    
C7    H14   S    
C25   H13   S    
C28   C29   A    
C24   H9    S    
C9    H16   S    
C5    C29   A    
C6    H12   S    
C1    O2    A    
C30   C31   A    
C15   O5    A    
C22   C24   S    
C5    C15   S    
C22   O9    S    
C10   C11   A    
C17   C21   T    
C13   N1    A    
C23   C30   A    
O6    Zn2   S    
C1    C31   S    
C14   N2    A    
C16   C17   S    
C24   C25   S    
O4    Zn2   S    
C18   C19   D    
N1    Zn2   S    
C23   C26   A    
C25   H10   S    
C6    C11   A    
C10   N2    A    
O1    Zn1   S    
C2    C31   A    
C14   H17   S    
C11   N1    A    
C2    H19   S    
C8    H15   S    
C16   O8    A    
C22   H6    S    
C15   O6    A    
C24   H8    S    
C4    O3    A    
O5    Zn1   S    
C18   H18   S    
C8    C9    A    
C27   C28   A    
C22   H7    S    
