data_mof_unit_788.cif
_audit_creation_date              2012-12-10T19:44:33-0500
_audit_creation_method            fapswitch 2.2
_symmetry_space_group_name_H-M    P1
_symmetry_Int_Tables_number       1
_space_group_crystal_system       triclinic
_cell_length_a                    8.574904
_cell_length_b                    14.976404
_cell_length_c                    14.256179
_cell_angle_alpha                 91.264972
_cell_angle_beta                  99.671236
_cell_angle_gamma                 90.513379
_cell_volume                      1804.18767837

loop_
_atom_site_label
_atom_site_type_symbol
_atom_type_description
_atom_site_fract_x
_atom_site_fract_y
_atom_site_fract_z
_atom_type_partial_charge
C1    C     C_R   0.497186 0.327683 0.498879 0.856048
C2    C     C_R   0.435187 0.420701 0.883230 -0.290811
C3    C     C_R   0.520711 0.482144 0.054443 0.113728
C4    C     C_R   0.522159 0.482433 0.948416 0.113304
C5    C     C_R   0.200946 0.499884 0.474756 0.970191
C6    C     C_R   0.799116 0.499936 0.525285 0.966575
C7    C     C_2   0.035163 0.499605 0.461607 -0.386014
C8    C     C_2   0.965040 0.500103 0.538628 -0.387936
C9    C     C_R   0.439719 0.095719 0.575159 -0.185228
C10   C     C_R   0.386175 0.900084 0.421220 -0.183825
C11   C     C_R   0.450153 0.187658 0.576361 -0.190708
C12   C     C_R   0.498914 0.672031 0.500615 0.847041
C13   C     C_R   0.396224 0.808092 0.422785 -0.187444
C14   C     C_R   0.484925 0.231520 0.496390 -0.026364
C15   C     C_R   0.488573 0.767545 0.500239 -0.009809
C16   C     C_R   0.505113 0.183034 0.414268 -0.201160
C17   C     C_R   0.571335 0.818589 0.575856 -0.223452
C18   C     C_R   0.495377 0.090794 0.413339 -0.176864
C19   C     C_R   0.561774 0.910495 0.574209 -0.167995
C20   C     C_R   0.464811 0.047301 0.494305 0.116038
C21   C     C_R   0.469226 0.951170 0.496913 0.114440
C22   C     C_3   0.200290 0.476031 0.205283 -0.388321
C23   C     C_R   0.378257 0.470089 0.086785 -0.291667
C24   C     C_3   0.161117 0.383623 0.239076 -0.812114
C25   C     C_3   0.650326 0.648955 0.780911 -0.387354
C26   C     C_3   0.808842 0.637575 0.746421 -0.792523
C27   C     C_R   0.596307 0.552554 0.910376 -0.299433
C28   C     C_R   0.366689 0.481208 0.184041 0.309261
C29   C     C_R   0.582062 0.562802 0.811037 0.311330
C30   C     C_R   0.641424 0.511926 0.221294 -0.028442
C31   C     C_R   0.427971 0.429829 0.783827 -0.028138
C32   C     C_R   0.653873 0.504552 0.123519 -0.290551
H1    H     H_    0.971577 0.498879 0.388993 0.164717
H2    H     H_    0.629155 0.949935 0.632016 0.132129
H3    H     H_    0.272828 0.455816 0.034868 0.138430
H4    H     H_    0.659496 0.602562 0.958785 0.137805
H5    H     H_    0.746781 0.527962 0.271735 0.138368
H6    H     H_    0.363784 0.380215 0.735679 0.134795
H7    H     H_    0.767661 0.516055 0.102256 0.140536
H8    H     H_    0.373657 0.365267 0.908892 0.143178
H9    H     H_    0.156779 0.333771 0.179830 0.233761
H10   H     H_    0.250826 0.361959 0.299000 0.287870
H11   H     H_    0.043613 0.384694 0.261917 0.233800
H12   H     H_    0.028858 0.500768 0.611358 0.178280
H13   H     H_    0.176405 0.532522 0.251464 0.214594
H14   H     H_    0.112861 0.487678 0.139790 0.162788
H15   H     H_    0.859367 0.570524 0.762736 0.258180
H16   H     H_    0.795319 0.649194 0.669060 0.257300
H17   H     H_    0.895837 0.688098 0.782212 0.216615
H18   H     H_    0.561145 0.684021 0.731074 0.215729
H19   H     H_    0.672092 0.697327 0.842236 0.161727
H20   H     H_    0.414146 0.062233 0.637563 0.130587
H21   H     H_    0.313941 0.931366 0.361476 0.130874
H22   H     H_    0.431457 0.224144 0.639906 0.149604
H23   H     H_    0.331240 0.768597 0.364158 0.143230
H24   H     H_    0.531167 0.216088 0.351764 0.158096
H25   H     H_    0.646711 0.787985 0.634416 0.144149
H26   H     H_    0.516313 0.053368 0.350834 0.131881
N1    N     N_R   0.500000 0.499980 0.252470 -0.101895
N2    N     N_R   0.500000 0.500020 0.747530 -0.098059
O1    O     O_R   0.500010 0.369070 0.579480 -0.629296
O2    O     O_R   0.499990 0.630930 0.420520 -0.619996
O3    O     O_R   0.500010 0.369060 0.420520 -0.628913
O4    O     O_R   0.499990 0.630940 0.579480 -0.628309
O5    O     O_R   0.271750 0.500000 0.560890 -0.614579
O6    O     O_R   0.728250 0.500000 0.439110 -0.622247
O7    O     O_R   0.271750 0.499990 0.401930 -0.631411
O8    O     O_R   0.728250 0.500010 0.598070 -0.616059
Zn1   Zn    Zn3+2 0.500000 0.500010 0.606140 0.938315
Zn2   Zn    Zn3+2 0.500000 0.499990 0.393860 0.931624

loop_
_geom_bond_atom_site_label_1
_geom_bond_atom_site_label_2
_ccdc_geom_bond_type
C31   N2    A    
C2    C4    A    
C16   H24   S    
C31   H6    S    
C19   C21   A    
C27   H4    S    
C27   C29   A    
C24   H10   S    
C2    C31   A    
C9    C20   A    
C3    C23   A    
C25   H19   S    
C29   N2    A    
C26   H16   S    
C5    O7    A    
O7    Zn2   S    
C30   N1    A    
C4    C27   A    
C5    O5    A    
C6    O8    A    
O4    Zn1   S    
C5    C7    S    
C7    C8    D    
C10   C21   A    
C22   C28   S    
C23   C28   A    
C30   C32   A    
C24   H9    S    
C7    H1    S    
O6    Zn2   S    
C9    H20   S    
N2    Zn1   S    
O5    Zn1   S    
C1    O3    A    
C22   C24   S    
C11   H22   S    
C22   H14   S    
C10   C13   A    
C12   C15   S    
C23   H3    S    
C9    C11   A    
C13   C15   A    
C25   C29   S    
C3    C32   A    
C12   O4    A    
C11   C14   A    
C14   C16   A    
C26   H17   S    
N1    Zn2   S    
C3    C4    S    
C2    H8    S    
C6    O6    A    
C22   H13   S    
C12   O2    A    
C20   C21   S    
O2    Zn2   S    
C18   C20   A    
C16   C18   A    
C28   N1    A    
O1    Zn1   S    
C15   C17   A    
C24   H11   S    
C26   H15   S    
C25   H18   S    
C10   H21   S    
C6    C8    S    
C1    C14   S    
C32   H7    S    
C17   C19   A    
C25   C26   S    
O8    Zn1   S    
C18   H26   S    
C8    H12   S    
C30   H5    S    
C17   H25   S    
O3    Zn2   S    
C13   H23   S    
C19   H2    S    
C1    O1    A    
