data_mof_unit_4840.cif
_audit_creation_date              2012-12-11T17:23:16-0500
_audit_creation_method            fapswitch 2.2
_symmetry_space_group_name_H-M    P1
_symmetry_Int_Tables_number       1
_space_group_crystal_system       triclinic
_cell_length_a                    22.416253
_cell_length_b                    7.097225
_cell_length_c                    19.401104
_cell_angle_alpha                 90.000588
_cell_angle_beta                  99.56195
_cell_angle_gamma                 90.000265
_cell_volume                      3043.70031664

loop_
_atom_site_label
_atom_site_type_symbol
_atom_type_description
_atom_site_fract_x
_atom_site_fract_y
_atom_site_fract_z
_atom_type_partial_charge
O1    O     O_R   0.443980 0.494320 0.557430 -0.533779
O2    O     O_R   0.556020 0.994320 0.442570 -0.533780
O3    O     O_R   0.441210 0.822520 0.414610 -0.537351
O4    O     O_R   0.558790 0.322520 0.585390 -0.537351
C1    C     C_R   0.426683 0.655381 0.388791 0.690934
C2    C     C_R   0.573317 0.155383 0.611208 0.690934
O5    O     O_R   0.436920 0.823940 0.555180 -0.536524
O6    O     O_R   0.563080 0.323940 0.444820 -0.536525
O7    O     O_R   0.551700 0.995760 0.584140 -0.534810
O8    O     O_R   0.448300 0.495760 0.415860 -0.534810
C3    C     C_R   0.421633 0.655406 0.574880 0.717882
C4    C     C_R   0.578367 0.155406 0.425120 0.717884
O9    O     O_3   0.537660 0.661290 0.509340 -0.370362
O10   O     O_3   0.462340 0.161290 0.490660 -0.370361
V1    V     V_3+5 0.493010 0.935560 0.498270 1.425418
V2    V     V_3+5 0.506990 0.435560 0.501730 1.425418
H1    H     H_    0.688395 0.825486 0.272440 0.126702
H2    H     H_    0.311620 0.325507 0.727580 0.126732
C5    C     C_R   0.757814 0.929287 0.217339 0.217135
C6    C     C_R   0.242188 0.429297 0.782663 0.217089
C7    C     C_R   0.792937 0.088032 0.204353 0.085510
C8    C     C_R   0.207056 0.588031 0.795638 0.085475
C9    C     C_R   0.783806 0.259918 0.237056 -0.181624
C10   C     C_R   0.216182 0.759909 0.762929 -0.181572
H3    H     H_    0.810211 0.382579 0.228038 0.157816
H4    H     H_    0.189771 0.882563 0.771940 0.157767
C11   C     C_R   0.740780 0.275735 0.281731 -0.148573
C12   C     C_R   0.259210 0.775727 0.718256 -0.148544
H5    H     H_    0.734662 0.410155 0.306095 0.137375
H6    H     H_    0.265323 0.910139 0.693886 0.137374
C13   C     C_R   0.706087 0.119513 0.294878 0.075194
C14   C     C_R   0.293913 0.619515 0.705122 0.075153
C15   C     C_R   0.714928 0.947238 0.262540 -0.155166
C16   C     C_R   0.285079 0.447250 0.737470 -0.155097
C17   C     C_1   0.838209 0.078830 0.158228 -0.057802
C18   C     C_1   0.161787 0.578828 0.841767 -0.057825
C19   C     C_1   0.661413 0.135113 0.341333 -0.044866
C20   C     C_1   0.338588 0.635115 0.658667 -0.044864
C21   C     C_1   0.623819 0.145819 0.379786 -0.187170
C22   C     C_1   0.376182 0.645821 0.620215 -0.187166
C23   C     C_1   0.876113 0.071032 0.120094 -0.187823
C24   C     C_1   0.123885 0.571030 0.879903 -0.187827
C25   C     C_R   0.632872 0.172056 0.804213 -0.159834
C26   C     C_R   0.367132 0.671946 0.195785 -0.159832
H7    H     H_    0.545665 0.195705 0.739955 0.106196
H8    H     H_    0.454340 0.695590 0.260042 0.106192
H9    H     H_    0.715029 0.165013 0.919321 0.125080
H10   H     H_    0.284978 0.664856 0.080675 0.125082
H11   H     H_    0.614363 0.192067 0.851873 0.112958
H12   H     H_    0.385644 0.691906 0.148123 0.112958
C27   C     C_R   0.615712 0.147984 0.678079 -0.037023
C28   C     C_R   0.384288 0.647971 0.321921 -0.037019
C29   C     C_R   0.910236 0.045524 0.760437 -0.161071
C30   C     C_R   0.089760 0.545600 0.239564 -0.161069
C31   C     C_R   0.873663 0.046175 0.695146 -0.117674
C32   C     C_R   0.126332 0.546281 0.304856 -0.117672
C33   C     C_R   0.811320 0.070756 0.688981 -0.156848
C34   C     C_R   0.188677 0.570833 0.311020 -0.156849
C35   C     C_R   0.783564 0.095913 0.748713 0.076981
C36   C     C_R   0.216436 0.595930 0.251287 0.076982
C37   C     C_R   0.821632 0.096363 0.815867 0.068738
C38   C     C_R   0.178368 0.596345 0.184132 0.068736
C39   C     C_R   0.719422 0.120398 0.744028 0.074115
C40   C     C_R   0.280578 0.620388 0.255972 0.074115
C41   C     C_R   0.695279 0.145920 0.806666 0.138641
C42   C     C_R   0.304725 0.645845 0.193332 0.138640
C43   C     C_R   0.733407 0.145804 0.871523 -0.200188
C44   C     C_R   0.266598 0.645696 0.128475 -0.200186
C45   C     C_R   0.795452 0.121208 0.876168 -0.191282
C46   C     C_R   0.204551 0.621129 0.123830 -0.191276
C47   C     C_R   0.678130 0.121080 0.679648 -0.214697
C48   C     C_R   0.321869 0.621104 0.320352 -0.214695
C49   C     C_R   0.593585 0.173858 0.740540 -0.167026
C50   C     C_R   0.406418 0.673777 0.259459 -0.167030
C51   C     C_R   0.885237 0.070686 0.821154 -0.081165
C52   C     C_R   0.114762 0.570699 0.178846 -0.081166
H13   H     H_    0.692846 0.102747 0.629953 0.093357
H14   H     H_    0.307151 0.602820 0.370049 0.093354
H15   H     H_    0.958530 0.024943 0.763673 0.107008
H16   H     H_    0.041465 0.525047 0.236328 0.107015
H17   H     H_    0.786164 0.069222 0.636634 0.109009
H18   H     H_    0.213832 0.569326 0.363368 0.109008
H19   H     H_    0.893845 0.026791 0.648668 0.121229
H20   H     H_    0.106148 0.526944 0.351335 0.121230
H21   H     H_    0.822874 0.122073 0.927679 0.109800
H22   H     H_    0.177130 0.621967 0.072318 0.109796
O11   O     O_R   0.051730 0.724670 0.084120 -0.533581
O12   O     O_R   0.948270 0.224670 0.915880 -0.533583
O13   O     O_R   0.063080 0.393540 0.944820 -0.536867
O14   O     O_R   0.936920 0.893540 0.055180 -0.536865
C53   C     C_R   0.078217 0.562073 0.924944 0.716265
C54   C     C_R   0.921783 0.062073 0.075056 0.716268
O15   O     O_R   0.058800 0.395030 0.085390 -0.535937
O16   O     O_R   0.941200 0.895030 0.914610 -0.535938
O17   O     O_R   0.943980 0.223310 0.057440 -0.533609
O18   O     O_R   0.056020 0.723310 0.942560 -0.533608
C55   C     C_R   0.072978 0.563524 0.111231 0.680649
C56   C     C_R   0.927021 0.063521 0.888769 0.680642
O19   O     O_3   0.962360 0.556290 0.990650 -0.369438
O20   O     O_3   0.037640 0.056290 0.009350 -0.369437
V3    V     V_3+5 0.006980 0.281990 0.001730 1.429797
V4    V     V_3+5 0.993020 0.781990 0.998270 1.429803
N1    N     N_3   0.764487 0.748056 0.186367 -0.691858
H23   H     H_    0.799850 0.746582 0.157538 0.235130
H24   H     H_    0.724769 0.720734 0.151255 0.225014
N2    N     N_3   0.235520 0.248076 0.813643 -0.691860
H25   H     H_    0.200094 0.246518 0.842379 0.235134
H26   H     H_    0.275203 0.220912 0.848836 0.225045

loop_
_geom_bond_atom_site_label_1
_geom_bond_atom_site_label_2
_ccdc_geom_bond_type
C25   C49   A    
C42   C44   A    
C39   C41   A    
O18   V4    S    
C11   H5    S    
C18   C24   T    
O1    C3    A    
H8    C50   S    
O2    C4    A    
C2    O7    A    
O12   V3    S    
C51   C56   S    
C45   H21   S    
C9    H3    S    
C37   C51   A    
O5    C3    A    
H1    C15   S    
C36   C38   A    
C5    C7    A    
C10   H4    S    
C28   C50   A    
C34   H18   S    
C33   C35   A    
N2    H25   S    
O16   C56   A    
C37   C45   A    
C38   C46   A    
H7    C49   S    
C24   C53   S    
O14   V4    S    
C48   H14   S    
C53   O18   A    
C26   C42   A    
C41   C43   A    
C13   C15   A    
C1    C28   S    
C14   C20   S    
C2    C27   S    
O13   C53   A    
C6    N2    S    
C25   C41   A    
C6    C16   A    
O5    V1    S    
O6    V2    S    
C38   C52   A    
C29   C51   A    
C27   C47   A    
H9    C43   S    
C32   H20   S    
C30   H16   S    
C29   C31   A    
C30   C32   A    
C35   C37   A    
C11   C13   A    
C10   C12   A    
C12   C14   A    
O4    C2    A    
C5    C15   A    
O15   V3    S    
C25   H11   S    
C52   C55   S    
C5    N1    S    
C54   O17   A    
C13   C19   S    
C43   C45   A    
C14   C16   A    
O4    V2    S    
C28   C48   A    
O11   V4    S    
O14   C54   A    
O6    C4    A    
C23   C54   S    
O20   V4    S    
N1    H24   S    
O1    V2    S    
H10   C44   S    
C26   C50   A    
O2    V1    S    
H2    C16   S    
C30   C52   A    
O19   V3    S    
C39   C47   A    
C9    C11   A    
C7    C9    A    
C8    C10   A    
C31   H19   S    
C46   H22   S    
O15   C55   A    
C47   H13   S    
O3    V1    S    
C26   H12   S    
O13   V3    S    
C27   C49   A    
C6    C8    A    
O3    C1    A    
C7    C17   S    
C8    C18   S    
C35   C39   A    
C36   C40   A    
C29   H15   S    
C4    C21   S    
C31   C33   A    
O7    V1    S    
C1    O8    A    
C19   C21   T    
O8    V2    S    
C20   C22   T    
N2    H26   S    
C12   H6    S    
O20   V3    S    
C32   C34   A    
C33   H17   S    
C40   C48   A    
C3    C22   S    
C17   C23   T    
O19   V4    S    
O16   V4    S    
C44   C46   A    
O9    V2    S    
N1    H23   S    
O10   V1    S    
C34   C36   A    
O12   C56   A    
O17   V3    S    
C40   C42   A    
O11   C55   A    
