data_mof_unit_4908.cif
_audit_creation_date              2012-12-10T17:08:45-0500
_audit_creation_method            fapswitch 2.2
_symmetry_space_group_name_H-M    P1
_symmetry_Int_Tables_number       1
_space_group_crystal_system       triclinic
_cell_length_a                    27.728438
_cell_length_b                    11.047507
_cell_length_c                    9.916959
_cell_angle_alpha                 111.666552
_cell_angle_beta                  99.210268
_cell_angle_gamma                 90.421187
_cell_volume                      2779.51491371

loop_
_atom_site_label
_atom_site_type_symbol
_atom_type_description
_atom_site_fract_x
_atom_site_fract_y
_atom_site_fract_z
_atom_type_partial_charge
C1    C     C_R   0.496457 0.253968 0.440266 0.862116
C2    C     C_R   0.503528 0.746031 0.559732 0.859844
C3    C     C_R   0.103028 0.498427 0.532297 -0.052460
C4    C     C_R   0.899921 0.496144 0.522610 -0.051918
C5    C     C_R   0.123403 0.380511 0.459431 -0.004033
C6    C     C_R   0.876190 0.609924 0.528889 -0.005654
C7    C     C_R   0.093452 0.263939 0.397594 -0.149423
C8    C     C_R   0.904049 0.723363 0.548565 -0.145664
C9    C     C_R   0.132517 0.616251 0.590284 -0.067817
C10   C     C_R   0.871991 0.380779 0.497370 -0.067406
C11   C     C_R   0.354277 0.498507 0.501131 -0.039039
C12   C     C_R   0.645508 0.499980 0.497298 -0.033245
C13   C     C_R   0.974888 0.379731 0.518123 -0.011987
C14   C     C_R   0.031520 0.618843 0.603817 -0.010486
C15   C     C_R   0.979624 0.616531 0.575662 0.052431
C16   C     C_R   0.024223 0.378636 0.495410 0.053086
C17   C     C_R   0.951559 0.497510 0.539660 0.053562
C18   C     C_R   0.052944 0.498654 0.544860 0.053515
C19   C     C_R   0.947115 0.268887 0.514628 0.134238
C20   C     C_R   0.063063 0.734730 0.681961 0.132077
C21   C     C_R   0.895803 0.268688 0.494544 -0.147929
C22   C     C_R   0.112441 0.732877 0.665635 -0.150208
C23   C     C_R   0.407408 0.499551 0.500102 0.791155
C24   C     C_R   0.592535 0.500333 0.499633 0.789800
C25   C     C_R   0.044486 0.263357 0.413701 -0.239835
C26   C     C_R   0.954938 0.725944 0.569442 -0.240524
C27   C     C_2   0.494510 0.114073 0.406660 -0.356969
C28   C     C_2   0.505415 0.885920 0.593306 -0.354073
C29   C     C_2   0.500732 0.069684 0.516076 -0.140056
C30   C     C_2   0.499103 0.930291 0.483871 -0.144659
C31   C     C_2   0.497608 0.524516 0.085893 -0.061852
C32   C     C_2   0.492077 0.501436 0.919812 -0.063835
C33   C     C_R   0.173280 0.382575 0.448758 0.531011
C34   C     C_R   0.824951 0.606889 0.513627 0.529613
C35   C     C_R   0.182246 0.613792 0.577410 0.545291
C36   C     C_R   0.820773 0.382385 0.483908 0.547517
C37   C     C_R   0.286761 0.523316 0.635768 -0.108659
C38   C     C_R   0.713179 0.423903 0.366247 -0.099136
C39   C     C_R   0.336902 0.523806 0.633904 -0.216605
C40   C     C_R   0.662889 0.425508 0.368043 -0.215043
C41   C     C_R   0.320427 0.471992 0.370140 -0.220713
C42   C     C_R   0.679155 0.575030 0.623130 -0.224275
C43   C     C_R   0.270175 0.471196 0.372285 -0.098206
C44   C     C_R   0.729273 0.573482 0.621280 -0.097833
C45   C     C_R   0.253207 0.497235 0.505221 0.356928
C46   C     C_R   0.746584 0.497579 0.493231 0.348664
Cu1   Cu    Cu3+1 0.508480 0.521810 0.644910 0.946218
Cu2   Cu    Cu3+1 0.491520 0.478190 0.355090 0.947825
H1    H     H_    0.332716 0.451829 0.266171 0.158298
H2    H     H_    0.666924 0.637145 0.721989 0.147008
H3    H     H_    0.511908 0.952965 0.707839 0.147459
H4    H     H_    0.488050 0.047043 0.292120 0.142292
H5    H     H_    0.463205 0.433254 0.841752 0.136735
H6    H     H_    0.518836 0.609652 0.167696 0.137816
H7    H     H_    0.244420 0.451078 0.270942 0.141515
H8    H     H_    0.754791 0.631273 0.719685 0.143831
H9    H     H_    0.107655 0.172675 0.335875 0.182963
H10   H     H_    0.886670 0.810645 0.547709 0.185226
H11   H     H_    0.637638 0.367281 0.269177 0.156373
H12   H     H_    0.362000 0.544297 0.736579 0.154411
H13   H     H_    0.726199 0.365355 0.266509 0.145923
H14   H     H_    0.273878 0.543095 0.738814 0.138280
H15   H     H_    0.874508 0.181621 0.482550 0.193653
H16   H     H_    0.135706 0.822728 0.717063 0.192604
H17   H     H_    0.022258 0.172318 0.357457 0.146280
H18   H     H_    0.974730 0.813390 0.576512 0.148338
H19   H     H_    0.492652 0.863496 0.369156 0.174201
H20   H     H_    0.507141 0.136475 0.630792 0.178410
N1    N     N_R   0.201659 0.497984 0.508717 -0.466896
N2    N     N_R   0.798413 0.494791 0.493936 -0.465796
N3    N     N_2   0.478780 0.445430 0.137360 -0.121261
N4    N     N_2   0.521220 0.554570 0.862640 -0.122081
O1    O     O_R   0.504520 0.332330 0.577400 -0.576798
O2    O     O_R   0.495480 0.667670 0.422600 -0.584897
O3    O     O_R   0.490210 0.295500 0.332650 -0.574704
O4    O     O_R   0.509790 0.704500 0.667350 -0.577825
O5    O     O_R   0.437420 0.518430 0.622370 -0.588159
O6    O     O_R   0.562580 0.481570 0.377630 -0.577248
O7    O     O_R   0.423110 0.481600 0.377610 -0.579504
O8    O     O_R   0.576890 0.518400 0.622390 -0.571519
O9    O     O_2   0.193423 0.270102 0.381040 -0.541179
O10   O     O_2   0.801797 0.715183 0.519007 -0.539487
O11   O     O_2   0.793637 0.273358 0.464250 -0.539824
O12   O     O_2   0.211056 0.726146 0.633339 -0.539602
C47   C     C_3   0.554913 0.664528 0.967877 -0.140718
C48   C     C_3   0.598591 0.697037 0.909557 -0.748719
H21   H     H_    0.620429 0.610494 0.876024 0.247050
H22   H     H_    0.587960 0.733915 0.820462 0.264801
H23   H     H_    0.622546 0.776415 0.000025 0.197297
H24   H     H_    0.534322 0.753024 0.009110 0.153480
H25   H     H_    0.573261 0.640723 0.061918 0.146653
C49   C     C_3   0.443910 0.340167 0.027750 -0.148651
C50   C     C_3   0.423736 0.238158 0.077840 -0.727406
H26   H     H_    0.452074 0.170807 0.089973 0.239316
H27   H     H_    0.407199 0.281238 0.177446 0.266920
H28   H     H_    0.393919 0.176554 0.989459 0.193846
H29   H     H_    0.411880 0.384578 0.985911 0.146627
H30   H     H_    0.462017 0.282372 0.934023 0.142809
C51   C     C_3   0.970431 0.156997 0.549702 -0.432514
C52   C     C_3   0.953000 0.139287 0.680653 -0.817006
H31   H     H_    0.957893 0.233415 0.776908 0.265281
H32   H     H_    0.913966 0.101962 0.652243 0.252550
H33   H     H_    0.974892 0.067080 0.712143 0.229249
H34   H     H_    0.961768 0.064775 0.451344 0.200932
H35   H     H_    0.010730 0.174803 0.581951 0.223183
C53   C     C_3   0.047474 0.856490 0.796401 -0.437675
C54   C     C_3   0.078997 0.891387 0.949044 -0.793142
H36   H     H_    0.079530 0.805869 0.982616 0.258532
H37   H     H_    0.117067 0.924058 0.950433 0.256221
H38   H     H_    0.063400 0.972671 0.031090 0.237131
H39   H     H_    0.049859 0.940084 0.760428 0.201687
H40   H     H_    0.009517 0.842896 0.812488 0.222086

loop_
_geom_bond_atom_site_label_1
_geom_bond_atom_site_label_2
_ccdc_geom_bond_type
C50   H26   S    
C27   C29   D    
C8    C26   A    
C14   C18   A    
N4    C47   S    
C47   H25   S    
C49   H30   S    
C32   N4    D    
C53   H40   S    
C47   C48   S    
Cu2   O7    S    
C19   C21   A    
Cu1   O4    S    
C28   H3    S    
C48   H22   S    
C9    C22   A    
C53   C54   S    
C36   O11   S    
C3    C18   A    
Cu2   O6    S    
C49   C50   S    
C12   C42   A    
C8    H10   S    
C24   O8    A    
N3    C49   S    
C51   C52   S    
C44   C46   A    
C5    C33   A    
C54   H36   S    
C34   N2    A    
C30   H19   S    
C2    O2    A    
C33   N1    A    
C38   H13   S    
C31   N3    D    
C51   H34   S    
C50   H27   S    
C40   H11   S    
C41   C43   A    
Cu2   O3    S    
C42   C44   A    
Cu1   O8    S    
C41   H1    S    
C36   N2    A    
C49   H29   S    
C37   H14   S    
C20   C53   S    
C53   H39   S    
C10   C21   A    
C51   H35   S    
C38   C46   A    
C13   C19   A    
C45   N1    S    
C26   H18   S    
Cu1   Cu2   S    
C14   C20   A    
C25   H17   S    
Cu1   O1    S    
C4    C6    A    
C5    C7    A    
C19   C51   S    
C48   H21   S    
C15   C26   A    
C6    C8    A    
C52   H33   S    
C6    C34   A    
C1    O3    A    
C12   C40   A    
C29   C30   S    
C3    C9    A    
Cu2   O2    S    
C29   H20   S    
C44   H8    S    
C31   C32   S    
C47   H24   S    
C52   H32   S    
C23   O5    A    
C11   C39   A    
C43   C45   A    
C42   H2    S    
C4    C17   A    
C24   O6    A    
C20   C22   A    
C50   H28   S    
C54   H38   S    
Cu1   O5    S    
Cu2   N3    S    
C37   C45   A    
C32   H5    S    
C46   N2    S    
C2    O4    A    
C27   H4    S    
C1    C27   S    
C43   H7    S    
C16   C25   A    
C15   C17   A    
C4    C10   A    
C3    C5    A    
C48   H23   S    
C10   C36   A    
C35   O12   S    
C12   C24   S    
C7    C25   A    
C13   C17   A    
C1    O1    A    
C28   C30   D    
C37   C39   A    
C38   C40   A    
C54   H37   S    
C39   H12   S    
C11   C23   S    
C52   H31   S    
C11   C41   A    
C31   H6    S    
Cu1   N4    S    
C21   H15   S    
C22   H16   S    
C35   N1    A    
C16   C18   A    
C13   C16   A    
C9    C35   A    
C14   C15   A    
C2    C28   S    
C34   O10   S    
C23   O7    A    
C33   O9    S    
C7    H9    S    
