data_mof_unit_2643.cif
_audit_creation_date              2012-12-11T17:47:24-0500
_audit_creation_method            fapswitch 2.2
_symmetry_space_group_name_H-M    P1
_symmetry_Int_Tables_number       1
_space_group_crystal_system       triclinic
_cell_length_a                    15.054405
_cell_length_b                    15.140191
_cell_length_c                    15.299561
_cell_angle_alpha                 110.60941
_cell_angle_beta                  109.220236
_cell_angle_gamma                 108.180696
_cell_volume                      2696.79069336

loop_
_atom_site_label
_atom_site_type_symbol
_atom_type_description
_atom_site_fract_x
_atom_site_fract_y
_atom_site_fract_z
_atom_type_partial_charge
C1    C     C_R   0.912159 0.196424 0.993809 -0.069383
C2    C     C_R   0.028834 0.755199 0.943597 0.017249
C3    C     C_R   0.317078 0.829438 0.320636 0.039828
C4    C     C_R   0.678416 0.211560 0.675261 0.052801
C5    C     C_R   0.325281 0.499472 0.039657 0.162947
C6    C     C_R   0.690301 0.503424 0.044222 0.134481
C7    C     C_R   0.029579 0.495226 0.319860 0.196685
C8    C     C_R   0.041490 0.500628 0.691650 0.181445
C9    C     C_R   0.047972 0.962271 0.976091 0.381324
C10   C     C_R   0.848755 0.959125 0.904689 0.428658
C11   C     C_R   0.148450 0.061774 0.761461 0.444063
C12   C     C_R   0.858556 0.978166 0.203426 0.389043
C13   C     C_R   0.076588 0.026015 0.795270 -0.386238
C14   C     C_R   0.889585 0.977314 0.127349 -0.381575
C15   C     C_R   0.668938 0.325166 0.181807 -0.345598
C16   C     C_R   0.379611 0.689447 0.879002 -0.348435
C17   C     C_R   0.768760 0.395223 0.274722 0.526027
C18   C     C_R   0.295291 0.609556 0.775153 0.514295
C19   C     C_R   0.837259 0.354917 0.309107 0.048008
C20   C     C_R   0.239099 0.639272 0.707074 0.021743
C21   C     C_R   0.804240 0.244702 0.250294 -0.270393
C22   C     C_R   0.271238 0.748904 0.743056 -0.215928
C23   C     C_R   0.307005 0.789616 0.219542 0.473919
C24   C     C_R   0.686629 0.234363 0.775158 0.497770
C25   C     C_R   0.706593 0.176531 0.154605 -0.080305
C26   C     C_R   0.356077 0.827694 0.845930 -0.087438
C27   C     C_R   0.638575 0.216656 0.120473 0.540087
C28   C     C_R   0.409750 0.798253 0.914364 0.530052
C29   C     C_R   0.945089 0.434129 0.502542 0.450246
C30   C     C_R   0.135839 0.552731 0.508610 0.458754
C31   C     C_R   0.043544 0.497737 0.598037 -0.156563
C32   C     C_R   0.037189 0.487979 0.412886 -0.162813
C33   C     C_R   0.139492 0.558663 0.602830 -0.043295
C34   C     C_R   0.942252 0.425773 0.409000 -0.054809
C35   C     C_R   0.109263 0.072895 0.904640 0.111317
C36   C     C_R   0.824264 0.892971 0.020371 0.074528
C37   C     C_R   0.290123 0.178239 0.946694 -0.279400
C38   C     C_R   0.691064 0.815875 0.063373 -0.246697
C39   C     C_R   0.133085 0.981140 0.281587 -0.054857
C40   C     C_R   0.874368 0.061102 0.602649 -0.113647
C41   C     C_R   0.243414 0.019037 0.336721 -0.088391
C42   C     C_R   0.771084 0.030597 0.588921 -0.100388
C43   C     C_R   0.288135 0.009955 0.427181 0.005811
C44   C     C_R   0.699723 0.046666 0.518421 0.023060
C45   C     C_R   0.225247 0.408459 0.968662 -0.093332
C46   C     C_R   0.783639 0.592820 0.081548 -0.075663
C47   C     C_R   0.222935 0.970170 0.467019 0.559660
C48   C     C_R   0.730390 0.088286 0.457783 0.569724
C49   C     C_R   0.111638 0.926929 0.407475 -0.156596
C50   C     C_R   0.835841 0.124663 0.477473 -0.165291
C51   C     C_R   0.067033 0.931556 0.314888 -0.113774
C52   C     C_R   0.907695 0.110189 0.548937 -0.050971
C53   C     C_R   0.485966 0.114923 0.546007 0.565768
C54   C     C_R   0.507816 0.933614 0.442350 0.550407
C55   C     C_R   0.587040 0.121298 0.574294 -0.108732
C56   C     C_R   0.407150 0.927130 0.413904 -0.088275
C57   C     C_R   0.597873 0.032670 0.516391 -0.122234
C58   C     C_R   0.395349 0.017844 0.463265 -0.108897
C59   C     C_R   0.257096 0.135009 0.837012 0.463436
C60   C     C_R   0.759345 0.895267 0.171929 0.466189
C61   C     C_R   0.864894 0.893868 0.946020 -0.031649
C62   C     C_R   0.032969 0.028472 0.937068 -0.063050
C63   C     C_R   0.215654 0.152312 0.980433 -0.068072
C64   C     C_R   0.723196 0.813966 0.987383 -0.047015
C65   C     C_R   0.959643 0.886241 0.967673 -0.174463
C66   C     C_R   0.936300 0.033520 0.910110 -0.170314
C67   C     C_R   0.047397 0.588017 0.313139 -0.019772
C68   C     C_R   0.996165 0.410337 0.697916 0.002253
C69   C     C_3   0.503140 0.405025 0.026166 -0.373517
C70   C     C_3   0.522387 0.601788 0.080431 -0.359355
C71   C     C_3   0.428413 0.430443 0.954616 -0.114425
C72   C     C_3   0.597645 0.576368 0.152812 -0.116059
C73   C     C_3   0.425550 0.501587 0.052923 -0.065579
C74   C     C_3   0.599015 0.504643 0.053741 -0.063531
C75   C     C_3   0.499094 0.476432 0.124141 0.556907
C76   C     C_3   0.525258 0.529372 0.982538 0.554556
C77   C     C_R   0.313978 0.590136 0.059957 -0.086450
C78   C     C_R   0.695540 0.411830 0.994104 -0.035235
C79   C     C_R   0.970763 0.407041 0.218310 -0.153032
C80   C     C_R   0.078568 0.591122 0.786139 -0.143013
C81   C     C_R   0.220079 0.774205 0.312161 -0.158293
C82   C     C_R   0.780697 0.257012 0.690120 -0.174159
C83   C     C_R   0.000512 0.200077 0.902067 -0.149397
C84   C     C_R   0.944268 0.761906 0.041321 -0.131080
C85   C     C_R   0.944277 0.136986 0.930259 0.158099
C86   C     C_R   0.967380 0.796790 0.975759 0.143574
H1    H     H_    0.860009 0.167828 0.023393 0.141954
H2    H     H_    0.061550 0.769468 0.893868 0.133951
H3    H     H_    0.372822 0.230102 0.007350 0.219112
H4    H     H_    0.612666 0.755817 0.037313 0.197810
H5    H     H_    0.615428 0.355613 0.158033 0.196470
H6    H     H_    0.420368 0.666754 0.932578 0.188644
H7    H     H_    0.856004 0.212723 0.276807 0.205587
H8    H     H_    0.227982 0.773112 0.692453 0.213915
H9    H     H_    0.684411 0.093010 0.107247 0.216701
H10   H     H_    0.378048 0.911321 0.872891 0.241520
H11   H     H_    0.242198 0.188832 0.065535 0.214937
H12   H     H_    0.670369 0.751522 0.903841 0.222446
H13   H     H_    0.980845 0.894295 0.268182 0.146503
H14   H     H_    0.989530 0.138485 0.563833 0.223859
H15   H     H_    0.292819 0.048740 0.304995 0.210860
H16   H     H_    0.748161 0.998573 0.635856 0.185601
H17   H     H_    0.357287 0.372524 0.873373 0.220543
H18   H     H_    0.669486 0.635573 0.233385 0.221646
H19   H     H_    0.503852 0.327794 0.002130 0.214955
H20   H     H_    0.528611 0.682394 0.105910 0.218303
H21   H     H_    0.207237 0.325216 0.931593 0.100104
H22   H     H_    0.808313 0.675855 0.134672 0.101065
H23   H     H_    0.080742 0.668304 0.378550 0.132943
H24   H     H_    0.972013 0.328717 0.642384 0.099258
H25   H     H_    0.376789 0.672523 0.106803 0.182347
H26   H     H_    0.641833 0.331203 0.970508 0.180658
H27   H     H_    0.023458 0.176525 0.841677 0.104125
H28   H     H_    0.902024 0.781777 0.083084 0.102693
N1    N     N_R   0.947560 0.293820 0.002910 -0.052566
N2    N     N_R   0.052440 0.706180 0.997090 -0.050877
N3    N     N_R   0.208960 0.706170 0.152110 -0.094383
N4    N     N_R   0.791040 0.293830 0.847890 -0.098498
N5    N     N_R   0.154330 0.443160 0.946140 -0.049835
N6    N     N_R   0.845670 0.556840 0.053860 -0.053619
N7    N     N_R   0.002190 0.556820 0.208880 -0.061325
N8    N     N_R   0.997810 0.443180 0.791120 -0.056363
N9    N     N_R   0.210550 0.556810 0.002910 -0.055651
N10   N     N_R   0.789450 0.443190 0.997090 -0.061732
N11   N     N_R   0.945970 0.443180 0.152110 -0.059111
N12   N     N_R   0.054030 0.556820 0.847890 -0.050621
N13   N     N_R   0.151530 0.706170 0.208880 -0.078596
N14   N     N_R   0.848470 0.293830 0.791120 -0.081503
N15   N     N_R   0.004980 0.293810 0.946140 -0.047381
N16   N     N_R   0.995020 0.706190 0.053860 -0.056594
Ni1   Ni    Ni4+2 0.869690 0.369690 0.000000 0.262961
Ni2   Ni    Ni4+2 0.130310 0.630310 0.000000 0.291107
Ni3   Ni    Ni4+2 0.001390 0.369680 0.869810 0.225921
Ni4   Ni    Ni4+2 0.998610 0.630320 0.130190 0.221392
Cl1   Cl    Cl    0.098583 0.015504 0.624754 -0.593440
Cl2   Cl    Cl    0.950567 0.080427 0.337066 -0.645556
Cl3   Cl    Cl    0.515666 0.131416 0.000877 -0.550491
Cl4   Cl    Cl    0.513130 0.898179 0.044970 -0.514400
Cl5   Cl    Cl    0.805165 0.532190 0.346766 -0.593359
Cl6   Cl    Cl    0.260567 0.473662 0.733716 -0.574095
Cl7   Cl    Cl    0.821473 0.375835 0.501206 -0.568662
Cl8   Cl    Cl    0.254995 0.624898 0.509965 -0.521257
H29   H     H_    0.994475 0.963132 0.736559 0.201907
H30   H     H_    0.966513 0.041173 0.152007 0.194386
Cl9   Cl    Cl    0.477169 0.441182 0.217425 -0.523635
Cl10  Cl    Cl    0.539073 0.550300 0.879140 -0.572641
Cl11  Cl    Cl    0.384152 0.862519 0.179757 -0.510148
Cl12  Cl    Cl    0.588523 0.159956 0.796210 -0.487268
H31   H     H_    0.098478 0.984992 0.209889 0.159873
H32   H     H_    0.929601 0.050122 0.657676 0.152289
Cl13  Cl    Cl    0.275325 0.949523 0.575151 -0.484910
Cl14  Cl    Cl    0.641621 0.105103 0.364339 -0.445242
H33   H     H_    0.058605 0.883440 0.428594 0.209821
H34   H     H_    0.862218 0.166963 0.439341 0.209741
Cl15  Cl    Cl    0.473230 0.229268 0.610961 -0.439185
Cl16  Cl    Cl    0.522161 0.818311 0.382801 -0.517707
Cl17  Cl    Cl    0.180605 0.983608 0.047000 -0.632152
Cl18  Cl    Cl    0.722718 0.956207 0.859152 -0.575224
H35   H     H_    0.942676 0.323351 0.195130 0.121153
H36   H     H_    0.127316 0.674101 0.811204 0.117014
H37   H     H_    0.199843 0.787387 0.374372 0.152531
H38   H     H_    0.803515 0.257776 0.631010 0.157957
Cl19  Cl    Cl    0.351490 0.170003 0.795030 -0.433680
Cl20  Cl    Cl    0.719718 0.886506 0.265557 -0.552194

loop_
_geom_bond_atom_site_label_1
_geom_bond_atom_site_label_2
_ccdc_geom_bond_type
C16   C28   A    
C39   C51   A    
C1    H1    S    
N9    Ni2   S    
C15   H5    S    
C22   H8    S    
C83   H27   S    
C3    C23   A    
N13   Ni4   S    
C66   C85   S    
C78   H26   S    
C65   C86   S    
C39   C41   A    
N1    Ni1   S    
C75   Cl9   S    
N5    Ni3   S    
C10   C66   A    
N4    N14   A    
C49   H33   S    
C19   C21   A    
C84   C86   A    
C83   N15   A    
C79   H35   S    
C71   C76   S    
C4    C24   A    
C80   H36   S    
C67   N7    A    
C77   H25   S    
C2    C86   A    
C69   C71   S    
N3    Ni2   S    
C14   C36   A    
C21   C25   A    
N4    Ni1   S    
C43   C58   S    
C60   Cl20  S    
C2    N2    A    
C67   H23   S    
C41   H15   S    
C49   C51   A    
C46   H22   S    
C3    C81   A    
C50   C52   A    
C31   C33   A    
C2    H2    S    
N12   Ni2   S    
N7    Ni4   S    
C78   N10   A    
C10   Cl18  S    
C18   C20   A    
C45   N5    A    
C64   H12   S    
C79   N11   A    
C76   Cl10  S    
C81   N13   A    
C26   H10   S    
C73   C75   S    
N16   Ni4   S    
C42   C44   A    
C72   C75   S    
C11   C59   A    
C42   H16   S    
C47   C49   A    
C26   C28   A    
C37   C63   A    
C6    C74   S    
C14   H30   S    
C53   C55   A    
C51   H13   S    
C54   C56   A    
C62   C66   A    
C46   N6    A    
C9    C62   A    
C54   Cl16  S    
C28   Cl4   S    
C72   C74   S    
C70   H20   S    
C68   N8    A    
C71   C73   S    
C69   H19   S    
C68   H24   S    
C82   H38   S    
C40   C52   A    
C5    C45   A    
C29   C34   A    
C52   H14   S    
C13   C35   A    
N10   Ni1   S    
N2    N16   A    
C32   C34   A    
N8    N12   A    
N8    Ni3   S    
N7    N11   A    
C77   N9    A    
C11   Cl1   S    
C3    C56   S    
N11   Ni1   S    
C15   C27   A    
N2    Ni2   S    
C9    Cl17  S    
C44   C57   S    
C29   Cl7   S    
C70   C73   S    
C40   H32   S    
C69   C74   S    
C17   Cl5   S    
C27   Cl3   S    
C18   Cl6   S    
C48   C50   A    
N3    N13   A    
C82   N14   A    
C37   C59   A    
C22   C26   A    
C74   C76   S    
N15   Ni3   S    
C20   C33   S    
C12   C60   A    
C16   C18   A    
C83   C85   A    
C47   Cl13  S    
C25   H9    S    
C48   Cl14  S    
C4    C55   S    
C24   Cl12  S    
C38   C60   A    
C21   H7    S    
C1    C85   A    
C70   C76   S    
C5    C77   A    
C36   C61   S    
C7    C79   A    
N1    N15   A    
C15   C17   A    
C71   H17   S    
C84   H28   S    
C7    C32   S    
C6    C46   A    
C30   C33   A    
C38   H4    S    
C8    C31   S    
C81   H37   S    
C41   C43   A    
C20   C22   A    
C40   C42   A    
C19   C34   S    
C23   N3    A    
C70   C72   S    
C53   C58   A    
C53   Cl15  S    
N5    N9    A    
C25   C27   A    
C72   H18   S    
C39   H31   S    
C24   N4    A    
C45   H21   S    
C30   Cl8   S    
C37   H3    S    
C8    C68   A    
C55   C57   A    
C12   C14   A    
C63   H11   S    
C44   C48   A    
C23   Cl11  S    
N14   Ni3   S    
C30   C32   A    
C11   C13   A    
C80   N12   A    
C50   H34   S    
C84   N16   A    
C17   C19   A    
C56   C58   A    
C69   C75   S    
C35   C62   S    
N6    Ni4   S    
C13   H29   S    
C5    C73   S    
C9    C65   A    
C6    C78   A    
C7    C67   A    
C16   H6    S    
C10   C61   A    
C61   C65   A    
C4    C82   A    
C29   C31   A    
C12   Cl2   S    
C8    C80   A    
C59   Cl19  S    
C35   C63   A    
C1    N1    A    
C36   C64   A    
C38   C64   A    
C43   C47   A    
N6    N10   A    
C54   C57   A    
