data_mof_unit_3571.cif
_audit_creation_date              2012-12-10T17:09:53-0500
_audit_creation_method            fapswitch 2.2
_symmetry_space_group_name_H-M    P1
_symmetry_Int_Tables_number       1
_space_group_crystal_system       triclinic
_cell_length_a                    10.777729
_cell_length_b                    13.002098
_cell_length_c                    11.711992
_cell_angle_alpha                 100.421911
_cell_angle_beta                  93.977925
_cell_angle_gamma                 90.951946
_cell_volume                      1609.56082713

loop_
_atom_site_label
_atom_site_type_symbol
_atom_type_description
_atom_site_fract_x
_atom_site_fract_y
_atom_site_fract_z
_atom_type_partial_charge
C1    C     C_R   0.499632 0.298835 0.477917 0.817274
C2    C     C_R   0.067793 0.416911 0.556138 0.102927
C3    C     C_R   0.128441 0.488459 0.498998 -0.079346
C4    C     C_R   0.060422 0.554370 0.438292 -0.202516
C5    C     C_R   0.932490 0.554052 0.437591 -0.220106
C6    C     C_R   0.870668 0.487894 0.497704 -0.061320
C7    C     C_R   0.503178 0.814549 0.534869 -0.051379
C8    C     C_R   0.502364 0.184764 0.464134 -0.151545
C9    C     C_R   0.524949 0.012767 0.347401 -0.297491
C10   C     C_R   0.517710 0.120949 0.354892 0.503778
C11   C     C_R   0.490433 0.139125 0.562700 -0.352421
C12   C     C_R   0.262416 0.495897 0.499708 0.789921
C13   C     C_R   0.495640 0.031371 0.554379 0.188822
C14   C     C_R   0.512494 0.967898 0.445769 0.103526
C15   C     C_R   0.516402 0.860086 0.436774 -0.234038
C16   C     C_R   0.488755 0.877834 0.643397 -0.199816
C17   C     C_R   0.484745 0.985987 0.653063 -0.178636
C18   C     C_R   0.375764 0.405291 0.021186 -0.344387
C19   C     C_R   0.388952 0.414344 0.143545 0.104187
C20   C     C_R   0.552918 0.539665 0.157470 0.039981
C21   C     C_R   0.542605 0.532901 0.035207 0.040172
C22   C     C_R   0.453469 0.465270 0.965352 0.068416
C23   C     C_R   0.502249 0.700967 0.521891 0.797273
C24   C     C_R   0.445001 0.459955 0.842176 -0.012770
C25   C     C_R   0.612516 0.584831 0.860507 0.306318
C26   C     C_R   0.620606 0.592444 0.982198 -0.351162
C27   C     C_R   0.737328 0.496194 0.499339 0.789818
C28   C     C_R   0.133700 0.343059 0.609555 -0.292314
C29   C     C_R   0.071487 0.273365 0.664855 -0.199114
C30   C     C_R   0.942373 0.273863 0.667492 0.561309
C31   C     C_R   0.875044 0.342616 0.608213 -0.305475
C32   C     C_R   0.936699 0.416526 0.555304 0.042370
Cu1   Cu    Cu3+1 0.509250 0.507730 0.615930 0.914281
Cu2   Cu    Cu3+1 0.490750 0.492270 0.384070 0.958330
H1    H     H_    0.106963 0.608195 0.393426 0.153957
H2    H     H_    0.472529 0.033916 0.737174 0.126943
H3    H     H_    0.477012 0.187413 0.646415 0.163008
H4    H     H_    0.376309 0.407849 0.788179 0.125449
H5    H     H_    0.305425 0.352000 0.971046 0.136946
H6    H     H_    0.689562 0.644990 0.035912 0.137361
H7    H     H_    0.328217 0.368087 0.185461 0.120793
H8    H     H_    0.621733 0.592196 0.210959 0.111741
H9    H     H_    0.233346 0.336607 0.607366 0.162585
H10   H     H_    0.124310 0.217832 0.705540 0.152220
H11   H     H_    0.774837 0.335803 0.601277 0.162987
H12   H     H_    0.881525 0.607834 0.392511 0.144382
H13   H     H_    0.529029 0.811676 0.352925 0.148101
H14   H     H_    0.478862 0.843760 0.720224 0.154721
H15   H     H_    0.541269 0.964000 0.264754 0.146930
N1    N     N_R   0.523180 0.519350 0.790130 -0.190216
N2    N     N_R   0.476820 0.480650 0.209890 -0.175117
O1    O     O_R   0.506570 0.354460 0.582000 -0.613983
O2    O     O_R   0.490940 0.341410 0.386200 -0.532653
O3    O     O_R   0.327470 0.506530 0.597920 -0.582840
O4    O     O_R   0.311840 0.493480 0.402120 -0.587869
O5    O     O_R   0.509060 0.658590 0.613800 -0.604567
O6    O     O_R   0.493430 0.645540 0.418000 -0.589138
O7    O     O_R   0.688160 0.506520 0.597880 -0.602223
O8    O     O_R   0.672530 0.493470 0.402080 -0.574483
O9    O     O_3   0.537463 0.164803 0.258185 -0.555222
C33   C     C_3   0.432624 0.142640 0.177747 -0.309725
H16   H     H_    0.345718 0.170463 0.217973 0.148672
H17   H     H_    0.423256 0.057813 0.140002 0.149839
H18   H     H_    0.445096 0.184781 0.104839 0.185484
C34   C     C_3   0.708295 0.651713 0.816092 -0.367455
C35   C     C_3   0.839248 0.607739 0.828104 -0.370143
C36   C     C_3   0.934846 0.670575 0.776571 -0.814889
H19   H     H_    0.907946 0.670918 0.683431 0.256811
H20   H     H_    0.942100 0.752474 0.824909 0.251178
H21   H     H_    0.027306 0.634769 0.783141 0.248945
H22   H     H_    0.868655 0.610014 0.921375 0.209805
H23   H     H_    0.838735 0.524876 0.783215 0.240370
H24   H     H_    0.687386 0.662181 0.726636 0.249477
H25   H     H_    0.708747 0.732339 0.868088 0.160303
O10   O     O_3   0.885426 0.199632 0.719874 -0.578606
C37   C     C_3   0.789084 0.243293 0.787388 -0.313498
H26   H     H_    0.701708 0.245014 0.731810 0.175596
H27   H     H_    0.814784 0.322779 0.838076 0.148658
H28   H     H_    0.770371 0.192295 0.850991 0.194493

loop_
_geom_bond_atom_site_label_1
_geom_bond_atom_site_label_2
_ccdc_geom_bond_type
C6    C32   A    
C21   C26   A    
Cu1   O7    S    
C1    C8    S    
C37   H28   S    
C15   H13   S    
C18   H5    S    
C16   H14   S    
C23   O5    A    
Cu1   O1    S    
Cu2   N2    S    
C28   C29   A    
C37   H27   S    
C20   N2    A    
C5    C6    A    
C34   H24   S    
C2    C32   A    
C18   C19   A    
C33   H17   S    
C1    O2    A    
C25   N1    A    
C3    C12   S    
C35   H23   S    
C31   C32   A    
C16   C17   A    
Cu2   O6    S    
C24   H4    S    
C17   H2    S    
C9    C10   A    
Cu1   O5    S    
C7    C15   A    
C35   C36   S    
C4    H1    S    
Cu2   O4    S    
C13   C14   A    
C24   N1    A    
C36   H19   S    
C25   C34   S    
C37   H26   S    
C9    C14   A    
C25   C26   A    
C34   H25   S    
O9    C33   S    
C36   H20   S    
C33   H18   S    
C10   O9    S    
O10   C37   S    
C35   H22   S    
C29   C30   A    
C6    C27   S    
Cu1   Cu2   S    
C9    H15   S    
C7    C16   A    
C29   H10   S    
Cu2   O8    S    
C22   C24   A    
C3    C4    A    
C11   H3    S    
Cu1   O3    S    
C23   O6    A    
C18   C22   A    
C4    C5    A    
C27   O7    A    
C20   H8    S    
C5    H12   S    
C28   H9    S    
C13   C17   A    
C36   H21   S    
C2    C3    A    
Cu1   N1    S    
C27   O8    A    
C30   O10   S    
C11   C13   A    
C26   H6    S    
C30   C31   A    
C8    C11   A    
C7    C23   S    
C33   H16   S    
C1    O1    A    
C12   O4    A    
C19   N2    A    
C20   C21   A    
Cu2   O2    S    
C8    C10   A    
C34   C35   S    
C31   H11   S    
C14   C15   A    
C2    C28   A    
C21   C22   A    
C12   O3    A    
C19   H7    S    
