data_mof_unit_4240.cif
_audit_creation_date              2012-12-10T17:55:49-0500
_audit_creation_method            fapswitch 2.2
_symmetry_space_group_name_H-M    P1
_symmetry_Int_Tables_number       1
_space_group_crystal_system       triclinic
_cell_length_a                    11.058236
_cell_length_b                    10.789438
_cell_length_c                    9.589742
_cell_angle_alpha                 90.709272
_cell_angle_beta                  103.136013
_cell_angle_gamma                 91.739777
_cell_volume                      1113.50144952

loop_
_atom_site_label
_atom_site_type_symbol
_atom_type_description
_atom_site_fract_x
_atom_site_fract_y
_atom_site_fract_z
_atom_type_partial_charge
C1    C     C_R   0.503561 0.262682 0.500313 0.766633
C2    C     C_R   0.496469 0.737305 0.499691 0.764918
C3    C     C_R   0.262753 0.499761 0.441529 0.845791
C4    C     C_R   0.737248 0.500153 0.558468 0.843287
C5    C     C_R   0.417272 0.424453 0.049478 -0.170431
C6    C     C_R   0.576733 0.581606 0.949044 -0.167695
C7    C     C_R   0.421210 0.422705 0.901872 0.731262
C8    C     C_R   0.578443 0.577640 0.098039 0.729182
C9    C     C_2   0.127392 0.499834 0.408628 -0.331583
C10   C     C_2   0.872609 0.499917 0.591368 -0.331060
C11   C     C_2   0.067462 0.499558 0.515205 -0.106535
C12   C     C_2   0.932538 0.500001 0.484793 -0.108139
C13   C     C_R   0.421539 0.063651 0.391663 -0.108597
C14   C     C_R   0.578609 0.936285 0.608221 -0.101307
C15   C     C_R   0.412854 0.934560 0.390570 -0.005179
C16   C     C_R   0.587221 0.065384 0.609399 -0.011166
C17   C     C_R   0.493628 0.871240 0.499842 -0.133645
C18   C     C_R   0.506431 0.128723 0.500137 -0.131316
Cu1   Cu    Cu3+1 0.500000 0.500020 0.640660 1.000271
Cu2   Cu    Cu3+1 0.500000 0.499980 0.359340 1.000683
H1    H     H_    0.881909 0.500419 0.373393 0.208875
H2    H     H_    0.118091 0.499066 0.626606 0.213922
H3    H     H_    0.923441 0.499565 0.702621 0.169508
H4    H     H_    0.076568 0.500238 0.297374 0.168815
H5    H     H_    0.358764 0.114390 0.310591 0.171437
H6    H     H_    0.641510 0.885472 0.689094 0.183319
N1    N     N_R   0.500030 0.500030 0.852080 -0.296938
N2    N     N_R   0.499970 0.499970 0.147920 -0.296962
O1    O     O_R   0.499990 0.319660 0.618740 -0.528151
O2    O     O_R   0.500010 0.680340 0.381260 -0.527698
O3    O     O_R   0.499990 0.319630 0.381170 -0.613352
O4    O     O_R   0.500010 0.680370 0.618830 -0.608197
O5    O     O_R   0.320690 0.500020 0.575130 -0.522251
O6    O     O_R   0.679310 0.499980 0.424870 -0.521181
O7    O     O_R   0.320680 0.499990 0.337560 -0.622771
O8    O     O_R   0.679320 0.500010 0.662440 -0.627322
C19   C     C_2   0.319843 0.345307 0.092245 0.501742
H7    H     H_    0.326212 0.318281 0.200534 0.106681
O9    O     O_2   0.227078 0.308953 0.004295 -0.481306
C20   C     C_2   0.656828 0.678299 0.902125 0.486780
H8    H     H_    0.684864 0.671434 0.802690 0.104427
O10   O     O_2   0.692881 0.771126 0.975829 -0.460127
F1    F     F_    0.345271 0.343809 0.807446 -0.596506
F2    F     F_    0.658128 0.652775 0.193380 -0.599737
C21   C     C_2   0.315386 0.868488 0.279675 0.425306
H9    H     H_    0.292606 0.771104 0.289903 0.070550
O11   O     O_2   0.257849 0.922731 0.175600 -0.498027
C22   C     C_2   0.684660 0.131434 0.720337 0.427823
H10   H     H_    0.707408 0.228834 0.710171 0.069656
O12   O     O_2   0.742199 0.077155 0.824382 -0.483691

loop_
_geom_bond_atom_site_label_1
_geom_bond_atom_site_label_2
_ccdc_geom_bond_type
C11   C12   S    
C4    O8    A    
C9    H4    S    
C19   H7    S    
C3    C9    S    
C7    F1    S    
C10   H3    S    
C5    N2    A    
Cu1   N1    S    
C11   H2    S    
C6    N1    A    
C3    O7    A    
C2    O2    A    
Cu2   O6    S    
C16   C22   S    
C22   O12   D    
C5    C7    A    
C19   O9    D    
C16   C18   A    
Cu2   O2    S    
C21   H9    S    
C14   H6    S    
C2    C17   S    
C9    C11   D    
C14   C17   A    
C13   H5    S    
C1    C18   S    
C10   C12   D    
C13   C18   A    
Cu1   O4    S    
C1    O1    A    
C20   H8    S    
C4    O6    A    
Cu1   O8    S    
C13   C15   A    
C8    N2    A    
C14   C16   A    
C5    C19   S    
C3    O5    A    
C4    C10   S    
Cu1   O1    S    
C8    F2    S    
C1    O3    A    
C6    C20   S    
C7    N1    A    
C2    O4    A    
Cu1   O5    S    
C21   O11   D    
C15   C17   A    
C15   C21   S    
C22   H10   S    
C6    C8    A    
Cu2   N2    S    
Cu2   O7    S    
C12   H1    S    
Cu1   Cu2   S    
C20   O10   D    
Cu2   O3    S    
