data_mof_unit_1786.cif
_audit_creation_date              2013-03-05T15:48:29-0500
_audit_creation_method            fapswitch 2.2
_symmetry_space_group_name_H-M    P1
_symmetry_Int_Tables_number       1
_space_group_crystal_system       triclinic
_cell_length_a                    20.085447
_cell_length_b                    7.200833
_cell_length_c                    14.085664
_cell_angle_alpha                 89.998396
_cell_angle_beta                  103.013576
_cell_angle_gamma                 90.000759
_cell_volume                      1984.91414813

loop_
_atom_site_label
_atom_site_type_symbol
_atom_site_description
_atom_site_fract_x
_atom_site_fract_y
_atom_site_fract_z
_atom_type_partial_charge
O1    O     O_R   0.449830 0.506740 0.599960 -0.569409
O2    O     O_R   0.550170 0.006740 0.400040 -0.569440
O3    O     O_R   0.588980 0.179860 0.596720 -0.567019
O4    O     O_R   0.411020 0.679860 0.403280 -0.567009
C1    C     C_R   0.617106 0.344152 0.614923 1.299683
C2    C     C_R   0.382897 0.844155 0.385065 1.299707
O5    O     O_R   0.452740 0.177340 0.612040 -0.599715
O6    O     O_R   0.547260 0.677340 0.387960 -0.599728
O7    O     O_R   0.412960 0.002070 0.415460 -0.553453
O8    O     O_R   0.587040 0.502070 0.584540 -0.553439
C3    C     C_R   0.435601 0.346294 0.635446 1.044767
C4    C     C_R   0.564410 0.846296 0.364568 1.044742
O9    O     O_3   0.487110 0.337570 0.435490 -0.267927
O10   O     O_3   0.512890 0.837570 0.564510 -0.267906
V1    V     V_3+5 0.502390 0.064650 0.511970 1.418899
V2    V     V_3+5 0.497610 0.564650 0.488030 1.418900
C5    C     C_R   0.607890 0.903937 0.122003 -0.058862
C6    C     C_R   0.392124 0.403905 0.878022 -0.058798
H1    H     H_    0.580199 0.919354 0.047290 0.212378
H2    H     H_    0.419808 0.419460 0.952732 0.212393
C7    C     C_R   0.602948 0.860706 0.288931 -0.325684
C8    C     C_R   0.397069 0.360689 0.711092 -0.325667
C9    C     C_R   0.927748 0.785333 0.313023 0.042368
C10   C     C_R   0.072260 0.285362 0.686987 0.042382
C11   C     C_R   0.893780 0.823446 0.387889 0.698984
C12   C     C_R   0.106235 0.323467 0.612129 0.698990
C13   C     C_R   0.826012 0.879128 0.366390 0.674294
C14   C     C_R   0.174011 0.379083 0.633640 0.674266
C15   C     C_R   0.787789 0.876619 0.269558 -0.285148
C16   C     C_R   0.212231 0.376488 0.730474 -0.285139
C17   C     C_R   0.824582 0.871868 0.193591 -0.282388
C18   C     C_R   0.175434 0.371742 0.806438 -0.282380
C19   C     C_R   0.714630 0.877166 0.245770 0.166520
C20   C     C_R   0.285388 0.376996 0.754265 0.166469
C21   C     C_R   0.679823 0.895377 0.147293 -0.170208
C22   C     C_R   0.320195 0.395140 0.852742 -0.170319
C23   C     C_R   0.716696 0.898727 0.074267 0.224833
C24   C     C_R   0.283326 0.398310 0.925776 0.225152
C25   C     C_R   0.787384 0.879496 0.096333 0.775391
C26   C     C_R   0.212632 0.379244 0.903703 0.775341
C27   C     C_R   0.674392 0.847936 0.315134 -0.026686
C28   C     C_R   0.325626 0.347828 0.684897 -0.026662
C29   C     C_R   0.569589 0.897068 0.192325 0.273851
C30   C     C_R   0.430425 0.397128 0.807693 0.273861
C31   C     C_R   0.897063 0.846623 0.216869 -0.323682
C32   C     C_R   0.102947 0.346615 0.783145 -0.323711
H3    H     H_    0.696616 0.810250 0.389534 0.232294
H4    H     H_    0.303404 0.310128 0.610499 0.232267
C33   C     C_3   0.238658 0.763993 0.149227 1.113349
C34   C     C_3   0.761340 0.264004 0.850766 1.113231
C35   C     C_3   0.309586 0.741365 0.222777 0.688344
C36   C     C_3   0.690411 0.241393 0.777220 0.688247
C37   C     C_3   0.180773 0.758151 0.302234 0.184146
C38   C     C_3   0.819229 0.258139 0.697766 0.184125
C39   C     C_3   0.214135 0.058414 0.226393 1.161578
C40   C     C_3   0.785866 0.558415 0.773590 1.161561
C41   C     C_3   0.184419 0.857083 0.199127 -1.049022
C42   C     C_3   0.815581 0.357085 0.800867 -1.048923
C43   C     C_3   0.310466 0.849888 0.319900 -1.120382
C44   C     C_3   0.689539 0.349882 0.680083 -1.120323
C45   C     C_3   0.256252 0.766671 0.374232 0.677449
C46   C     C_3   0.743752 0.266644 0.625762 0.677481
C47   C     C_3   0.289175 0.051604 0.288662 1.147551
C48   C     C_3   0.710833 0.551600 0.711295 1.147562
O11   O     O_R   0.912980 0.203550 0.915410 -0.544741
O12   O     O_R   0.087020 0.703550 0.084590 -0.544752
O13   O     O_R   0.047270 0.535570 0.887960 -0.590060
O14   O     O_R   0.952730 0.035570 0.112040 -0.590054
C49   C     C_R   0.061984 0.365619 0.859749 1.176489
C50   C     C_R   0.938022 0.865617 0.140258 1.176467
O15   O     O_R   0.911030 0.532970 0.903270 -0.527823
O16   O     O_R   0.088970 0.032970 0.096730 -0.527806
O17   O     O_R   0.949820 0.708150 0.099970 -0.570567
O18   O     O_R   0.050180 0.208150 0.900030 -0.570574
C51   C     C_R   0.885343 0.364409 0.877740 1.255812
C52   C     C_R   0.114656 0.864408 0.122259 1.255808
O19   O     O_3   0.012900 0.375230 0.064480 -0.254957
O20   O     O_3   0.987100 0.875230 0.935520 -0.254960
V3    V     V_3+5 0.997610 0.648190 0.988040 1.463125
V4    V     V_3+5 0.002390 0.148190 0.011960 1.463115
N1    N     N_R   0.497312 0.930155 0.164438 0.262310
O21   O     O_R   0.462807 0.876440 0.079277 -0.258415
O22   O     O_R   0.469347 0.047894 0.213688 -0.253257
N2    N     N_R   0.502694 0.430357 0.835572 0.262315
O23   O     O_R   0.537209 0.376801 0.920758 -0.258405
O24   O     O_R   0.530638 0.548055 0.786270 -0.253347
F1    F     F_    0.247392 0.873435 0.071700 -0.583713
F2    F     F_    0.752612 0.373433 0.928298 -0.583726
F3    F     F_    0.359531 0.816356 0.180593 -0.535326
F4    F     F_    0.640473 0.316429 0.819399 -0.535361
N3    N     N_R   0.326875 0.545674 0.241531 0.301924
O25   O     O_R   0.279582 0.428832 0.248700 -0.195711
O26   O     O_R   0.388090 0.484157 0.242961 -0.203703
N4    N     N_R   0.673108 0.045706 0.758490 0.301919
O27   O     O_R   0.720386 0.928838 0.751294 -0.195621
O28   O     O_R   0.611888 0.984231 0.757069 -0.203763
N5    N     N_R   0.158935 0.561096 0.291905 0.325987
O29   O     O_R   0.151063 0.470562 0.368558 -0.069204
O30   O     O_R   0.139602 0.478800 0.208493 -0.180303
N6    N     N_R   0.841067 0.061085 0.708107 0.325994
O31   O     O_R   0.848948 0.970549 0.631462 -0.069207
O32   O     O_R   0.860389 0.978788 0.791523 -0.180282
F5    F     F_    0.277254 0.587341 0.402436 -0.556237
F6    F     F_    0.722749 0.087308 0.597575 -0.556238
F7    F     F_    0.174685 0.153508 0.278322 -0.547716
F8    F     F_    0.825326 0.653509 0.721672 -0.547733
F9    F     F_    0.212681 0.160754 0.142648 -0.512769
F10   F     F_    0.787310 0.660756 0.857329 -0.512695
F11   F     F_    0.333599 0.119129 0.235118 -0.513172
F12   F     F_    0.666388 0.619138 0.764793 -0.513188
F13   F     F_    0.296863 0.167323 0.368874 -0.571647
F14   F     F_    0.703161 0.667305 0.631076 -0.571659
N7    N     N_R   0.129785 0.852473 0.347473 0.291029
O33   O     O_R   0.078896 0.944880 0.295032 -0.345228
O34   O     O_R   0.125123 0.806006 0.435118 -0.211142
N8    N     N_R   0.870219 0.352456 0.652525 0.291026
O35   O     O_R   0.921105 0.444876 0.704963 -0.345200
O36   O     O_R   0.874887 0.305972 0.564887 -0.211125
N9    N     N_R   0.681292 0.913003 0.975463 0.290493
O37   O     O_R   0.661260 0.760383 0.928618 -0.149742
O38   O     O_R   0.647776 0.065331 0.948663 -0.274348
N10   N     N_R   0.318743 0.412477 0.024580 0.290774
O39   O     O_R   0.339150 0.259892 0.071180 -0.150386
O40   O     O_R   0.352057 0.565079 0.051408 -0.274285
N11   N     N_R   0.258894 0.867333 0.467132 0.260299
O41   O     O_R   0.290905 0.792736 0.548940 -0.314863
O42   O     O_R   0.229517 0.027461 0.471030 -0.257377
N12   N     N_R   0.741112 0.367276 0.532851 0.260305
O43   O     O_R   0.709093 0.292666 0.451052 -0.314895
O44   O     O_R   0.770495 0.527391 0.528933 -0.257422
N13   N     N_R   0.987618 0.667674 0.334326 0.291127
O45   O     O_R   0.011772 0.610591 0.423019 -0.163073
O46   O     O_R   0.007281 0.579274 0.265109 -0.334688
N14   N     N_R   0.012387 0.167709 0.665675 0.291139
O47   O     O_R   0.988246 0.110609 0.576983 -0.163101
O48   O     O_R   0.992712 0.079324 0.734888 -0.334693
F15   F     F_    0.798869 0.934626 0.441319 -0.561888
F16   F     F_    0.201164 0.434589 0.558719 -0.561895
F17   F     F_    0.924903 0.797512 0.482947 -0.514403
F18   F     F_    0.075114 0.297575 0.517068 -0.514400
F19   F     F_    0.818477 0.856468 0.021346 -0.583852
F20   F     F_    0.181528 0.356281 0.978683 -0.583861
F21   F     F_    0.215307 0.597710 0.106603 -0.575592
F22   F     F_    0.784685 0.097712 0.893382 -0.575630

loop_
_geom_bond_atom_site_label_1
_geom_bond_atom_site_label_2
_geom_bond_distance
_ccdc_geom_bond_type
O14   V4    2.067112 S    
O15   C51   1.336120 A    
C47   F11   1.380027 S    
C9    C31   1.425846 A    
C26   F20   1.352859 S    
C13   C15   1.406589 A    
C33   F1    1.389450 S    
C36   F4    1.385433 S    
O1    C3    1.315541 A    
O16   C52   1.336116 A    
O2    C4    1.315541 A    
N12   O43   1.302343 A    
C2    O7    1.313209 A    
O15   V3    2.050142 S    
N5    O29   1.300998 A    
N13   O46   1.298144 A    
O5    C3    1.326079 A    
O12   V3    2.033116 S    
C13   F15   1.352779 S    
C39   F7    1.375812 S    
C41   C52   1.566921 S    
C39   C47   1.564607 S    
C11   F17   1.357013 S    
N2    O24   1.300403 A    
C12   F18   1.357011 S    
C19   C21   1.411837 A    
O20   V4    2.228933 S    
C48   F14   1.384275 S    
C15   C19   1.431701 A    
C33   C41   1.573233 S    
N8    O35   1.301198 A    
C44   C46   1.582925 S    
C40   F10   1.385576 S    
C32   C49   1.503250 S    
C36   C44   1.572211 S    
C35   N3    1.461069 S    
C7    C29   1.399476 A    
C37   C45   1.624251 S    
C8    C30   1.399520 A    
C25   F19   1.352872 S    
N8    O36   1.302622 A    
C20   C28   1.416919 A    
C33   C35   1.569927 S    
C38   N8    1.486647 S    
C34   C36   1.569897 S    
C40   C48   1.564632 S    
C36   N4    1.461064 S    
C16   C18   1.431246 A    
C20   C22   1.411805 A    
C34   F2    1.389450 S    
O5    V1    2.067109 S    
O6    V2    2.067069 S    
O11   V4    2.033112 S    
O18   V4    2.067608 S    
C15   C17   1.431229 A    
C38   N6    1.482657 S    
N5    O30   1.294980 A    
C37   N7    1.486648 S    
C42   C51   1.566948 S    
N1    O21   1.301707 A    
C46   F6    1.388449 S    
N9    O38   1.297847 A    
C27   H3    1.077239 S    
C45   F5    1.388457 S    
C43   C45   1.582941 S    
C16   C20   1.431679 A    
C34   C42   1.573211 S    
O13   V3    2.067152 S    
N2    O23   1.301705 A    
O4    C2    1.311208 A    
N3    O25   1.289792 A    
C37   C41   1.634006 S    
O20   V3    1.787252 S    
N14   O48   1.298142 A    
C38   C46   1.624254 S    
C37   N5    1.482655 S    
C4    C7    1.454777 S    
C39   F9    1.385565 S    
O13   C49   1.340085 A    
O4    V2    2.050139 S    
C5    C29   1.385143 A    
C6    C30   1.385184 A    
N3    O26   1.302793 A    
C48   F12   1.379951 S    
C23   N9    1.416826 S    
O6    C4    1.326076 A    
O12   C52   1.341159 A    
C50   O17   1.313207 A    
N6    O32   1.294978 A    
O17   V3    2.067632 S    
O19   V3    2.228887 S    
C9    N13   1.446189 S    
C49   O18   1.313176 A    
O1    V2    2.064448 S    
C28   H4    1.077243 S    
N4    O28   1.302793 A    
O2    V1    2.064471 S    
C40   F8    1.375805 S    
C24   N10   1.416845 S    
C7    C27   1.401914 A    
O14   C50   1.340072 A    
C39   C41   1.581863 S    
C34   F22   1.373771 S    
N11   O41   1.302340 A    
C29   N1    1.435866 S    
C43   C47   1.549692 S    
C46   N12   1.486384 S    
C35   C43   1.572170 S    
N10   O40   1.297759 A    
N13   O45   1.300791 A    
C14   F16   1.352787 S    
O3    C1    1.311198 A    
O3    V1    2.050147 S    
N11   O42   1.302044 A    
N7    O33   1.301196 A    
C38   C42   1.634023 S    
O19   V4    1.787285 S    
C10   N14   1.446192 S    
C1    C44   1.535995 S    
C21   C23   1.396509 A    
C31   C50   1.503273 S    
C18   C32   1.430028 A    
C2    C43   1.536010 S    
C10   C12   1.405993 A    
C30   N2    1.435891 S    
N12   O44   1.302045 A    
N1    O22   1.300405 A    
N9    O37   1.298281 A    
N14   O47   1.300797 A    
C11   C13   1.385496 A    
C3    C8    1.454802 S    
C12   C14   1.385480 A    
O11   C51   1.341161 A    
C44   C48   1.549654 S    
C19   C27   1.416933 A    
C22   C24   1.396520 A    
O7    V1    2.043976 S    
C10   C32   1.425849 A    
C1    O8    1.313208 A    
C23   C25   1.390281 A    
O8    V2    2.043973 S    
C35   F3    1.385424 S    
C24   C26   1.390287 A    
C8    C28   1.401909 A    
C33   F21   1.373810 S    
C14   C16   1.406603 A    
N6    O31   1.300994 A    
C5    H1    1.079612 S    
C40   C42   1.581870 S    
C6    H2    1.079636 S    
C18   C26   1.406100 A    
C47   F13   1.384277 S    
N4    O27   1.289802 A    
C9    C11   1.406008 A    
O16   V4    2.050135 S    
C17   C31   1.430019 A    
O9    V2    1.787651 S    
C17   C25   1.406060 A    
O10   V1    1.787619 S    
C45   N11   1.486377 S    
C5    C21   1.409381 A    
N10   O39   1.298032 A    
C6    C22   1.409380 A    
N7    O34   1.302622 A    
