data_mof_unit_2621.cif
_audit_creation_date              2012-12-10T19:24:04-0500
_audit_creation_method            fapswitch 2.2
_symmetry_space_group_name_H-M    P1
_symmetry_Int_Tables_number       1
_space_group_crystal_system       triclinic
_cell_length_a                    10.528701
_cell_length_b                    10.501196
_cell_length_c                    9.763971
_cell_angle_alpha                 89.923288
_cell_angle_beta                  90.106388
_cell_angle_gamma                 90.392361
_cell_volume                      1079.51510627

loop_
_atom_site_label
_atom_site_type_symbol
_atom_type_description
_atom_site_fract_x
_atom_site_fract_y
_atom_site_fract_z
_atom_type_partial_charge
C1    C     C_R   0.500825 0.257667 0.499923 0.868068
C2    C     C_R   0.499175 0.742333 0.500077 0.868068
C3    C     C_3   0.474551 0.958501 0.628123 -0.192937
C4    C     C_3   0.525448 0.041499 0.371877 -0.192937
C5    C     C_3   0.415087 0.422228 0.048601 -0.082011
C6    C     C_3   0.584913 0.577772 0.951399 -0.082011
C7    C     C_3   0.524163 0.387853 0.951579 -0.071257
C8    C     C_3   0.475837 0.612147 0.048420 -0.071256
C9    C     C_3   0.390850 0.534411 0.951220 -0.087074
C10   C     C_3   0.609150 0.465589 0.048780 -0.087074
C11   C     C_R   0.257953 0.495100 0.499777 0.899542
C12   C     C_R   0.742047 0.504900 0.500223 0.899542
C13   C     C_3   0.037616 0.420114 0.597294 0.217338
C14   C     C_3   0.962383 0.579886 0.402706 0.217338
C15   C     C_3   0.951828 0.380918 0.475835 -0.282555
C16   C     C_3   0.048171 0.619082 0.524165 -0.282556
C17   C     C_3   0.876491 0.504889 0.500726 -0.186943
C18   C     C_3   0.123509 0.495111 0.499273 -0.186943
C19   C     C_3   0.962281 0.541412 0.621720 0.239688
C20   C     C_3   0.037719 0.458588 0.378280 0.239688
C21   C     C_3   0.590093 0.042424 0.587912 -0.208119
C22   C     C_3   0.409907 0.957575 0.412088 -0.208119
C23   C     C_3   0.613463 0.959172 0.460873 0.190950
C24   C     C_3   0.386537 0.040828 0.539127 0.190950
C25   C     C_3   0.499304 0.877265 0.500465 -0.055646
C26   C     C_3   0.500696 0.122735 0.499535 -0.055646
H1    H     H_    0.908970 0.285996 0.456278 0.153956
H2    H     H_    0.091030 0.714004 0.543722 0.153956
H3    H     H_    0.663357 0.081367 0.658608 0.139893
H4    H     H_    0.336643 0.918632 0.341392 0.139893
H5    H     H_    0.452731 0.921160 0.731967 0.148524
H6    H     H_    0.547268 0.078840 0.268033 0.148524
H7    H     H_    0.544659 0.293365 0.906107 0.119160
H8    H     H_    0.455341 0.706635 0.093893 0.119160
H9    H     H_    0.343811 0.356465 0.094312 0.124459
H10   H     H_    0.656188 0.643534 0.905688 0.124459
H11   H     H_    0.299221 0.563914 0.905278 0.117319
H12   H     H_    0.700779 0.436086 0.094722 0.117319
N1    N     N_3   0.499910 0.500030 0.863290 -0.070942
N2    N     N_3   0.500090 0.499970 0.136710 -0.070942
O1    O     O_R   0.500010 0.313960 0.616610 -0.630252
O2    O     O_R   0.499990 0.686040 0.383390 -0.630252
O3    O     O_R   0.500060 0.313950 0.383350 -0.620726
O4    O     O_R   0.499940 0.686050 0.616650 -0.620726
O5    O     O_R   0.313930 0.499970 0.616610 -0.629815
O6    O     O_R   0.686070 0.500030 0.383390 -0.629815
O7    O     O_R   0.313980 0.499960 0.383350 -0.626416
O8    O     O_R   0.686020 0.500040 0.616650 -0.626416
Zn1   Zn    Zn3+2 0.499970 0.500010 0.655740 0.926489
Zn2   Zn    Zn3+2 0.500030 0.499990 0.344260 0.926489
N3    N     N_2   0.083821 0.333956 0.701707 -0.302425
H13   H     H_    0.149379 0.374441 0.767177 0.236422
C27   C     C_3   0.987356 0.259903 0.771372 -0.836695
H14   H     H_    0.033596 0.188109 0.838079 0.240824
H15   H     H_    0.926147 0.208803 0.696541 0.244196
H16   H     H_    0.927742 0.322214 0.836047 0.240019
N4    N     N_2   0.916179 0.666044 0.298293 -0.302425
H17   H     H_    0.850621 0.625559 0.232823 0.236422
C28   C     C_3   0.012644 0.740096 0.228628 -0.836695
H18   H     H_    0.966403 0.811891 0.161921 0.240824
H19   H     H_    0.072258 0.677786 0.163953 0.240019
H20   H     H_    0.073853 0.791196 0.303459 0.244196
N5    N     N_2   0.915420 0.587069 0.752125 -0.289809
H21   H     H_    0.850676 0.526840 0.797995 0.239890
C29   C     C_3   0.010613 0.633578 0.846616 -0.842899
H22   H     H_    0.962869 0.682206 0.932927 0.243533
H23   H     H_    0.074849 0.703371 0.795976 0.251994
H24   H     H_    0.066526 0.553164 0.888277 0.235780
N6    N     N_2   0.084580 0.412931 0.247875 -0.289809
H25   H     H_    0.149324 0.473160 0.202005 0.239890
C30   C     C_3   0.989387 0.366422 0.153384 -0.842899
H26   H     H_    0.037131 0.317794 0.067073 0.243533
H27   H     H_    0.933473 0.446835 0.111724 0.235779
H28   H     H_    0.925152 0.296628 0.204024 0.251994
C31   C     C_3   0.742064 0.907315 0.416268 -0.378918
C32   C     C_3   0.838906 0.014583 0.398132 -0.880133
H29   H     H_    0.804758 0.084602 0.321298 0.250532
H30   H     H_    0.855510 0.063431 0.497313 0.246985
H31   H     H_    0.930469 0.975185 0.362510 0.266925
H32   H     H_    0.777223 0.839452 0.494867 0.213783
H33   H     H_    0.730044 0.855641 0.317890 0.219303
C33   C     C_3   0.257936 0.092685 0.583732 -0.378918
C34   C     C_3   0.161094 0.985417 0.601868 -0.880133
H34   H     H_    0.144490 0.936569 0.502687 0.246985
H35   H     H_    0.195242 0.915397 0.678702 0.250532
H36   H     H_    0.069531 0.024815 0.637490 0.266925
H37   H     H_    0.269956 0.144359 0.682110 0.219303
H38   H     H_    0.222777 0.160548 0.505133 0.213783

loop_
_geom_bond_atom_site_label_1
_geom_bond_atom_site_label_2
_ccdc_geom_bond_type
O4    Zn1   S    
C16   H2    S    
C7    C10   S    
C2    O4    A    
C21   C26   S    
N5    C29   S    
C11   C18   S    
C11   O7    A    
C32   H31   S    
C12   O8    A    
C27   H14   S    
C13   C18   S    
C32   H30   S    
N2    Zn2   S    
N4    C28   S    
C33   H37   S    
C9    N1    S    
C10   N2    S    
N6    C30   S    
C24   C33   S    
C13   N3    S    
C1    O3    A    
C19   N5    S    
C8    C9    S    
C29   H23   S    
C22   C25   S    
C12   C17   S    
C31   H32   S    
C18   C20   S    
C28   H18   S    
C7    H7    S    
C14   C17   S    
C3    C24   S    
O1    Zn1   S    
O7    Zn2   S    
C27   H15   S    
C15   C20   S    
C28   H19   S    
C13   C19   S    
N3    H13   S    
C14   C20   S    
C3    C25   S    
C32   H29   S    
C12   O6    A    
C23   C31   S    
C5    C7    S    
C4    C23   S    
C31   H33   S    
C6    C8    S    
C21   H3    S    
N3    C27   S    
C31   C32   S    
C5    C9    S    
C4    C22   S    
C15   H1    S    
C34   H34   S    
O5    Zn1   S    
C29   H24   S    
C9    H11   S    
C8    H8    S    
C3    H5    S    
C4    H6    S    
O2    Zn2   S    
C1    O1    A    
O8    Zn1   S    
C34   H35   S    
C29   H22   S    
C13   C15   S    
C1    C26   S    
C22   C24   S    
C20   N6    S    
C3    C21   S    
C30   H27   S    
C27   H16   S    
C15   C17   S    
C14   N4    S    
C28   H20   S    
C22   H4    S    
N1    Zn1   S    
C24   C26   S    
C6    C10   S    
C30   H28   S    
C4    C26   S    
O3    Zn2   S    
O6    Zn2   S    
C10   H12   S    
C21   C23   S    
C30   H26   S    
N4    H17   S    
C2    O2    A    
C16   C19   S    
C33   H38   S    
C5    H9    S    
C17   C19   S    
C6    H10   S    
C2    C25   S    
C14   C16   S    
C23   C25   S    
N6    H25   S    
C11   O5    A    
N5    H21   S    
C34   H36   S    
C16   C18   S    
C33   C34   S    
C5    N2    S    
C7    N1    S    
C6    N1    S    
C8    N2    S    
