data_mof_unit_2296.cif
_audit_creation_date              2012-12-10T20:20:44-0500
_audit_creation_method            fapswitch 2.2
_symmetry_space_group_name_H-M    P1
_symmetry_Int_Tables_number       1
_space_group_crystal_system       triclinic
_cell_length_a                    19.271972
_cell_length_b                    18.416904
_cell_length_c                    10.668311
_cell_angle_alpha                 90.034648
_cell_angle_beta                  90.14256
_cell_angle_gamma                 89.749438
_cell_volume                      3786.45564888

loop_
_atom_site_label
_atom_site_type_symbol
_atom_type_description
_atom_site_fract_x
_atom_site_fract_y
_atom_site_fract_z
_atom_type_partial_charge
C1    C     C_R   0.365329 0.500230 0.504116 0.872233
C2    C     C_R   0.034900 0.525411 0.651666 -0.201550
C3    C     C_R   0.071065 0.488502 0.557091 0.113516
C4    C     C_R   0.927673 0.492836 0.551371 0.117699
C5    C     C_R   0.035227 0.453964 0.459682 -0.158211
C6    C     C_R   0.963518 0.455536 0.457554 -0.160507
C7    C     C_R   0.531358 0.725965 0.595375 0.040366
C8    C     C_R   0.469803 0.726058 0.403300 0.054245
C9    C     C_R   0.532494 0.802089 0.596521 -0.294225
C10   C     C_R   0.470328 0.802158 0.400083 -0.295681
C11   C     C_R   0.501633 0.841592 0.497977 0.115114
C12   C     C_R   0.634597 0.499937 0.498592 0.862508
C13   C     C_R   0.443907 0.962506 0.452057 -0.186523
C14   C     C_R   0.558671 0.962370 0.544262 -0.180207
C15   C     C_R   0.502785 0.500014 0.259606 0.886310
C16   C     C_R   0.502594 0.500036 0.740479 0.883915
C17   C     C_R   0.443673 0.038725 0.452298 -0.113657
C18   C     C_R   0.558219 0.038595 0.544938 -0.115920
C19   C     C_R   0.500763 0.077528 0.498882 0.173335
C20   C     C_R   0.501465 0.923075 0.497926 0.117008
C21   C     C_R   0.544009 0.197947 0.417927 0.065879
C22   C     C_R   0.456568 0.197862 0.580866 0.066819
C23   C     C_R   0.821450 0.559233 0.502907 -0.236436
C24   C     C_R   0.542768 0.274130 0.420322 -0.029105
C25   C     C_R   0.457384 0.274069 0.579258 -0.030105
C26   C     C_R   0.500437 0.158553 0.499247 -0.015180
C27   C     C_R   0.518535 0.565817 0.064196 0.128284
C28   C     C_R   0.518303 0.565810 0.936266 0.131451
C29   C     C_R   0.515709 0.500195 0.128722 -0.114818
C30   C     C_R   0.515349 0.500201 0.871573 -0.111296
C31   C     C_R   0.527345 0.434678 0.064910 -0.218726
C32   C     C_R   0.527138 0.434678 0.935299 -0.212522
C33   C     C_3   0.471865 0.630922 0.929388 -0.487076
C34   C     C_R   0.178972 0.557679 0.556764 -0.233798
C35   C     C_3   0.472256 0.631051 0.071391 -0.493944
C36   C     C_R   0.742450 0.435236 0.547983 -0.251784
C37   C     C_R   0.256777 0.431579 0.519635 -0.244780
C38   C     C_R   0.813585 0.432580 0.568160 0.021147
C39   C     C_R   0.185769 0.425921 0.539540 0.020668
C40   C     C_R   0.852792 0.495392 0.545882 0.035631
C41   C     C_R   0.146529 0.489992 0.554495 0.037574
C42   C     C_R   0.845575 0.363882 0.612725 0.108891
C43   C     C_R   0.837104 0.299543 0.543606 -0.160957
C44   C     C_R   0.867244 0.234724 0.585422 -0.115669
C45   C     C_R   0.750331 0.561664 0.480065 -0.003959
C46   C     C_R   0.905509 0.233543 0.696825 -0.112079
C47   C     C_R   0.913696 0.297182 0.766632 -0.138373
C48   C     C_R   0.883891 0.362158 0.724930 -0.119500
C49   C     C_R   0.154533 0.352603 0.548717 0.102687
C50   C     C_R   0.116581 0.332767 0.655612 -0.116751
C51   C     C_R   0.088262 0.263259 0.665093 -0.114131
C52   C     C_R   0.097018 0.213286 0.567784 -0.097720
C53   C     C_R   0.134786 0.232494 0.461280 -0.118586
C54   C     C_R   0.163795 0.301731 0.451864 -0.173727
C55   C     C_R   0.720341 0.628811 0.425153 0.140801
C56   C     C_R   0.250449 0.563261 0.542851 -0.009361
C57   C     C_R   0.723273 0.694639 0.491479 -0.163280
C58   C     C_R   0.692263 0.757213 0.442023 -0.130843
C59   C     C_R   0.658482 0.754577 0.326024 -0.098886
C60   C     C_R   0.656148 0.689509 0.258690 -0.133319
C61   C     C_R   0.687212 0.626858 0.307589 -0.105310
C62   C     C_R   0.281235 0.636101 0.558661 0.149251
C63   C     C_R   0.271372 0.689700 0.466775 -0.166633
C64   C     C_R   0.297732 0.759559 0.485121 -0.154973
C65   C     C_R   0.333737 0.776285 0.595285 -0.089058
C66   C     C_R   0.343772 0.723111 0.687026 -0.137298
C67   C     C_R   0.710196 0.499204 0.505830 -0.103014
C68   C     C_R   0.317211 0.653313 0.669292 -0.104480
C69   C     C_R   0.289862 0.499442 0.520401 -0.111230
C70   C     C_R   0.962977 0.528034 0.648240 -0.203072
H1    H     H_    0.531037 0.383275 0.113873 0.181686
H2    H     H_    0.602891 0.067354 0.581155 0.148848
H3    H     H_    0.575898 0.304534 0.357898 0.152328
H4    H     H_    0.424033 0.304414 0.641884 0.156908
H5    H     H_    0.498358 0.678743 0.888168 0.195135
H6    H     H_    0.420724 0.618893 0.112957 0.201137
H7    H     H_    0.420186 0.618362 0.888740 0.197615
H8    H     H_    0.499246 0.678842 0.111988 0.195177
H9    H     H_    0.712027 0.387329 0.568594 0.174108
H10   H     H_    0.286511 0.382029 0.506893 0.175241
H11   H     H_    0.853128 0.606244 0.482038 0.147559
H12   H     H_    0.530713 0.383271 0.886261 0.183245
H13   H     H_    0.148238 0.606644 0.569346 0.146472
H14   H     H_    0.934839 0.556918 0.720697 0.135381
H15   H     H_    0.062398 0.552502 0.726889 0.136166
H16   H     H_    0.062806 0.426904 0.384505 0.135544
H17   H     H_    0.935869 0.428798 0.382079 0.134407
H18   H     H_    0.807706 0.299766 0.456936 0.137575
H19   H     H_    0.860913 0.185399 0.531471 0.134531
H20   H     H_    0.928822 0.183328 0.729066 0.119145
H21   H     H_    0.943147 0.296167 0.853129 0.121500
H22   H     H_    0.890153 0.410895 0.780553 0.123339
H23   H     H_    0.555660 0.695994 0.670866 0.118730
H24   H     H_    0.109592 0.370820 0.732040 0.124255
H25   H     H_    0.059839 0.247994 0.748227 0.121867
H26   H     H_    0.074797 0.159593 0.575172 0.120798
H27   H     H_    0.141725 0.193666 0.386108 0.131283
H28   H     H_    0.192891 0.315928 0.368750 0.131206
H29   H     H_    0.748425 0.697124 0.582269 0.123348
H30   H     H_    0.693870 0.807625 0.494138 0.128952
H31   H     H_    0.634030 0.802929 0.288448 0.135215
H32   H     H_    0.630078 0.687536 0.168802 0.123082
H33   H     H_    0.684555 0.576611 0.254986 0.106098
H34   H     H_    0.444940 0.696196 0.328564 0.119245
H35   H     H_    0.243158 0.677399 0.381499 0.126308
H36   H     H_    0.290260 0.800758 0.413998 0.128338
H37   H     H_    0.354106 0.830367 0.609298 0.138426
H38   H     H_    0.371775 0.736133 0.772110 0.127114
H39   H     H_    0.324278 0.612671 0.741521 0.103959
H40   H     H_    0.556628 0.829655 0.674798 0.135085
H41   H     H_    0.446602 0.829747 0.321251 0.135566
H42   H     H_    0.398450 0.934474 0.417527 0.126689
H43   H     H_    0.604322 0.934230 0.578632 0.126923
H44   H     H_    0.398744 0.067576 0.416427 0.148528
I1    I     I_    0.610555 0.146504 0.286655 -0.421179
I2    I     I_    0.390068 0.146245 0.711186 -0.407108
N1    N     N_R   0.500000 0.689440 0.500000 -0.082669
N2    N     N_R   0.500000 0.310560 0.500000 -0.120244
O1    O     O_R   0.398180 0.560840 0.499970 -0.608684
O2    O     O_R   0.601820 0.560840 0.500030 -0.606694
O3    O     O_R   0.398180 0.439210 0.499910 -0.619371
O4    O     O_R   0.601820 0.439210 0.500090 -0.625171
O5    O     O_R   0.499990 0.560820 0.316770 -0.626671
O6    O     O_R   0.500010 0.560820 0.683230 -0.628951
O7    O     O_R   0.499990 0.439200 0.316710 -0.622391
O8    O     O_R   0.500010 0.439200 0.683290 -0.623771
Zn1   Zn    Zn3+2 0.500000 0.581210 0.500000 0.955042
Zn2   Zn    Zn3+2 0.500000 0.418790 0.500000 0.946728

loop_
_geom_bond_atom_site_label_1
_geom_bond_atom_site_label_2
_ccdc_geom_bond_type
C66   C68   A    
C21   C26   A    
C34   C56   A    
C23   C45   A    
C37   C69   A    
C27   C29   A    
C7    N1    A    
C21   I1    S    
C25   N2    A    
C4    C70   A    
O2    Zn1   S    
C39   C41   A    
C53   C54   A    
C15   O5    A    
C43   H18   S    
C61   H33   S    
C38   C42   S    
C13   H42   S    
C5    C6    A    
C24   H3    S    
C16   C30   S    
C49   C54   A    
C57   H29   S    
C2    H15   S    
C25   H4    S    
C1    O1    A    
C19   C26   S    
C14   C18   A    
C17   C19   A    
C12   O2    A    
C33   H5    S    
C4    C40   S    
C22   I2    S    
C22   C25   A    
C45   C67   A    
O7    Zn2   S    
C63   H35   S    
C70   H14   S    
C42   C43   A    
C9    C11   A    
C31   H1    S    
C59   C60   A    
C38   C40   A    
C34   C41   A    
N2    Zn2   S    
C60   H32   S    
C12   C67   S    
C44   C46   A    
C17   H44   S    
C15   C29   S    
C18   H2    S    
C7    H23   S    
C37   H10   S    
C35   H6    S    
C36   C67   A    
C51   C52   A    
C59   H31   S    
C14   C20   A    
C58   H30   S    
C8    N1    A    
O3    Zn2   S    
C4    C6    A    
C18   C19   A    
C53   H27   S    
C58   C59   A    
C11   C20   S    
C1    C69   S    
C6    H17   S    
C60   C61   A    
C43   C44   A    
C62   C63   A    
N1    Zn1   S    
O5    Zn1   S    
C47   C48   A    
C50   C51   A    
C10   H41   S    
C42   C48   A    
C15   O7    A    
C8    H34   S    
O6    Zn1   S    
C5    H16   S    
C8    C10   A    
C39   C49   S    
C28   C33   S    
C56   C69   A    
C55   C57   A    
C22   C26   A    
C56   C62   S    
C34   H13   S    
C52   C53   A    
C9    H40   S    
C7    C9    A    
C46   C47   A    
C3    C41   S    
O8    Zn2   S    
C23   H11   S    
C13   C20   A    
C47   H21   S    
C31   C32   A    
C50   H24   S    
C66   H38   S    
C3    C5    A    
C36   H9    S    
C64   H36   S    
C46   H20   S    
C62   C68   A    
C14   H43   S    
C32   H12   S    
C35   H8    S    
C24   N2    A    
C13   C17   A    
C27   C35   S    
C64   C65   A    
C36   C38   A    
C2    C3    A    
C16   O6    A    
C29   C31   A    
C30   C32   A    
C33   H7    S    
C57   C58   A    
C55   C61   A    
C28   C30   A    
C33   C35   S    
C52   H26   S    
C68   H39   S    
C65   C66   A    
O4    Zn2   S    
C1    O3    A    
C10   C11   A    
C63   C64   A    
C12   O4    A    
C45   C55   S    
C37   C39   A    
C49   C50   A    
C48   H22   S    
C21   C24   A    
C27   C28   A    
C54   H28   S    
C2    C70   A    
C16   O8    A    
C65   H37   S    
C44   H19   S    
C23   C40   A    
C51   H25   S    
O1    Zn1   S    
