data_mof_unit_3284.cif
_audit_creation_date              2012-12-10T18:35:01-0500
_audit_creation_method            fapswitch 2.2
_symmetry_space_group_name_H-M    P1
_symmetry_Int_Tables_number       1
_space_group_crystal_system       triclinic
_cell_length_a                    15.143532
_cell_length_b                    13.874265
_cell_length_c                    10.836049
_cell_angle_alpha                 89.971652
_cell_angle_beta                  92.142762
_cell_angle_gamma                 90.023354
_cell_volume                      2275.11974606

loop_
_atom_site_label
_atom_site_type_symbol
_atom_type_description
_atom_site_fract_x
_atom_site_fract_y
_atom_site_fract_z
_atom_type_partial_charge
C1    C     C_R   0.329603 0.499620 0.502588 0.921014
C2    C     C_R   0.670393 0.499657 0.497554 0.921106
C3    C     C_R   0.232344 0.496114 0.507342 -0.273261
C4    C     C_R   0.767660 0.496210 0.493561 -0.273075
C5    C     C_R   0.192284 0.421156 0.574861 0.241706
C6    C     C_R   0.807975 0.421665 0.425825 0.242665
C7    C     C_R   0.099441 0.414113 0.574704 0.391711
C8    C     C_R   0.900795 0.414625 0.426918 0.397116
C9    C     C_R   0.048144 0.476219 0.500048 -0.004194
C10   C     C_R   0.951821 0.475951 0.503060 -0.004853
C11   C     C_R   0.531916 0.107999 0.603228 -0.249008
C12   C     C_R   0.468038 0.108058 0.396778 -0.248771
C13   C     C_R   0.533087 0.209291 0.600344 0.016906
C14   C     C_R   0.466904 0.209344 0.399655 0.016522
C15   C     C_R   0.499968 0.055057 0.500002 0.226172
C16   C     C_R   0.429284 0.892533 0.445084 0.169449
C17   C     C_R   0.570746 0.892567 0.554834 0.169222
C18   C     C_R   0.436198 0.790671 0.433307 0.476614
C19   C     C_R   0.563801 0.790685 0.566685 0.476536
C20   C     C_R   0.500006 0.945707 0.499964 -0.218277
C21   C     C_R   0.507661 0.500243 0.262545 0.841055
C22   C     C_R   0.492334 0.500205 0.737452 0.841172
C23   C     C_R   0.555478 0.675169 0.108304 0.550081
C24   C     C_R   0.444321 0.675030 0.891402 0.550149
C25   C     C_R   0.530989 0.762543 0.048781 -0.386290
C26   C     C_R   0.468780 0.762473 0.950714 -0.386003
C27   C     C_R   0.481903 0.588601 0.939243 -0.065906
C28   C     C_R   0.517972 0.588657 0.060618 -0.065962
C29   C     C_R   0.515377 0.501008 0.127870 -0.049630
C30   C     C_R   0.484608 0.500944 0.872122 -0.049850
C31   C     C_R   0.504998 0.413733 0.063819 -0.203291
C32   C     C_R   0.495111 0.413708 0.936296 -0.203495
C33   C     C_R   0.087548 0.549201 0.433615 -0.386198
C34   C     C_R   0.912134 0.548478 0.569802 -0.388997
C35   C     C_R   0.179205 0.563958 0.441915 0.441376
C36   C     C_R   0.820587 0.563600 0.560089 0.442682
Cu1   Cu    Cu3+1 0.500000 0.596430 0.500000 1.077324
Cu2   Cu    Cu3+1 0.500000 0.403570 0.500000 0.948454
H1    H     H_    0.505574 0.345269 0.111942 0.151876
H2    H     H_    0.494635 0.345240 0.888269 0.151897
H3    H     H_    0.555200 0.831808 0.080685 0.160837
H4    H     H_    0.444560 0.831688 0.918632 0.160793
H5    H     H_    0.045452 0.596421 0.377870 0.165939
H6    H     H_    0.953924 0.595420 0.626404 0.165859
H7    H     H_    0.555401 0.071643 0.686477 0.171842
H8    H     H_    0.444552 0.071753 0.313523 0.171825
H9    H     H_    0.559582 0.248166 0.679795 0.122994
H10   H     H_    0.440407 0.248256 0.320205 0.123125
N1    N     N_R   0.500000 0.258690 0.500000 -0.163050
N2    N     N_R   0.500000 0.741330 0.500000 -0.281175
O1    O     O_R   0.371460 0.581430 0.500010 -0.497456
O2    O     O_R   0.628540 0.581430 0.499990 -0.497798
O3    O     O_R   0.371470 0.418560 0.500010 -0.589379
O4    O     O_R   0.628530 0.418560 0.499990 -0.589560
O5    O     O_R   0.500000 0.581450 0.319650 -0.528294
O6    O     O_R   0.500000 0.581450 0.680350 -0.528178
O7    O     O_R   0.500010 0.418580 0.319650 -0.619194
O8    O     O_R   0.499990 0.418580 0.680350 -0.618924
O9    O     O_3   0.353800 0.938854 0.400711 -0.575031
C37   C     C_3   0.298706 0.955938 0.500732 0.087964
H11   H     H_    0.334359 0.994436 0.577573 0.136362
H12   H     H_    0.273054 0.886902 0.537204 0.123814
C38   C     C_3   0.220938 0.017951 0.456921 -0.825265
H13   H     H_    0.182429 0.980478 0.382051 0.241353
H14   H     H_    0.177173 0.031874 0.534926 0.200534
H15   H     H_    0.245167 0.087955 0.421635 0.246324
O10   O     O_3   0.646206 0.938927 0.599313 -0.575209
C39   C     C_3   0.701144 0.956727 0.499279 0.087826
H16   H     H_    0.665422 0.995866 0.423015 0.137077
H17   H     H_    0.726640 0.887950 0.461956 0.123152
C40   C     C_3   0.779072 0.018376 0.543504 -0.825023
H18   H     H_    0.817622 0.980359 0.617891 0.241387
H19   H     H_    0.822745 0.032804 0.465515 0.200435
H20   H     H_    0.755012 0.088157 0.579559 0.246209
O11   O     O_3   0.375452 0.738566 0.361954 -0.508391
C41   C     C_3   0.367665 0.774949 0.240010 -0.150961
H21   H     H_    0.363932 0.713162 0.175123 0.172207
H22   H     H_    0.423433 0.821947 0.213915 0.119167
H23   H     H_    0.305636 0.816630 0.226853 0.170435
O12   O     O_3   0.624497 0.738561 0.638098 -0.508610
C42   C     C_3   0.632440 0.774997 0.759961 -0.150200
H24   H     H_    0.636088 0.713236 0.824967 0.172388
H25   H     H_    0.576784 0.822093 0.786045 0.119303
H26   H     H_    0.694576 0.816565 0.772941 0.170715
O13   O     O_3   0.620546 0.667326 0.203018 -0.565110
C43   C     C_3   0.649903 0.756092 0.252690 -0.298942
H27   H     H_    0.688445 0.796719 0.184544 0.142396
H28   H     H_    0.694867 0.741036 0.333556 0.195110
H29   H     H_    0.594086 0.799570 0.286302 0.127438
O14   O     O_3   0.379269 0.667032 0.796690 -0.565394
C44   C     C_3   0.349700 0.755731 0.747026 -0.299201
H30   H     H_    0.405402 0.799365 0.713218 0.127590
H31   H     H_    0.311195 0.796233 0.815252 0.142324
H32   H     H_    0.304644 0.740575 0.666300 0.195447
O15   O     O_3   0.218516 0.640676 0.382214 -0.522421
C45   C     C_3   0.169083 0.726580 0.394893 -0.275770
H33   H     H_    0.212452 0.789203 0.381812 0.211619
H34   H     H_    0.141862 0.734492 0.488543 0.130559
H35   H     H_    0.115879 0.731157 0.321803 0.141452
O16   O     O_3   0.781255 0.640512 0.619107 -0.522558
C46   C     C_3   0.830534 0.726415 0.604870 -0.275240
H36   H     H_    0.857726 0.733512 0.511076 0.130306
H37   H     H_    0.883794 0.731809 0.677781 0.141347
H38   H     H_    0.787064 0.789070 0.616866 0.211840
O17   O     O_3   0.243427 0.366935 0.657575 -0.567645
C47   C     C_3   0.248770 0.270782 0.616018 0.138805
H39   H     H_    0.277412 0.267090 0.522993 0.147701
H40   H     H_    0.183072 0.235009 0.612049 0.176280
C48   C     C_3   0.308435 0.215200 0.706685 -0.793511
H41   H     H_    0.278001 0.212075 0.798276 0.236699
H42   H     H_    0.318193 0.140851 0.672902 0.190171
H43   H     H_    0.373640 0.251392 0.717187 0.262299
O18   O     O_3   0.757225 0.367963 0.342095 -0.565989
C49   C     C_3   0.751809 0.271523 0.382715 0.138426
H44   H     H_    0.723395 0.267185 0.475865 0.147102
H45   H     H_    0.817494 0.235758 0.385957 0.175217
C50   C     C_3   0.691826 0.216531 0.291847 -0.792921
H46   H     H_    0.721762 0.214430 0.199874 0.237112
H47   H     H_    0.682477 0.141791 0.324670 0.189442
H48   H     H_    0.626482 0.252509 0.282566 0.262086
O19   O     O_3   0.058493 0.344845 0.644367 -0.574209
C51   C     C_3   0.045711 0.381529 0.763916 0.091306
H49   H     H_    0.023144 0.458065 0.762704 0.128968
H50   H     H_    0.108210 0.376165 0.820760 0.177850
C52   C     C_3   0.974937 0.321847 0.824274 -0.801843
H51   H     H_    0.997561 0.246115 0.835608 0.246879
H52   H     H_    0.960870 0.352082 0.916220 0.197347
H53   H     H_    0.913029 0.323151 0.765937 0.251555
O20   O     O_3   0.941993 0.347059 0.355058 -0.575165
C53   C     C_3   0.957428 0.387045 0.237780 0.100152
H54   H     H_    0.968567 0.466612 0.239698 0.123592
H55   H     H_    0.899995 0.371590 0.173948 0.174461
C54   C     C_3   0.039637 0.340650 0.187365 -0.805064
H56   H     H_    0.028664 0.262177 0.173606 0.247101
H57   H     H_    0.055342 0.374125 0.097785 0.197603
H58   H     H_    0.096765 0.351528 0.253249 0.251493

loop_
_geom_bond_atom_site_label_1
_geom_bond_atom_site_label_2
_ccdc_geom_bond_type
C4    C36   A    
C18   O11   S    
C53   H55   S    
O15   C45   S    
C41   H23   S    
C38   H14   S    
C49   H44   S    
C21   O5    A    
Cu2   N1    S    
C5    O17   S    
O13   C43   S    
C26   H4    S    
C46   H36   S    
C37   C38   S    
C28   C29   A    
C24   C26   A    
O18   C49   S    
C50   H47   S    
Cu1   O1    S    
C43   H28   S    
C14   N1    A    
C47   H39   S    
C45   H35   S    
C17   C20   A    
C37   H12   S    
C1    O3    A    
C17   C19   A    
Cu2   O8    S    
Cu1   O6    S    
C11   C15   A    
C39   H16   S    
C45   H34   S    
C54   H58   S    
C24   C27   A    
C9    C10   S    
C23   C25   A    
C38   H15   S    
O9    C37   S    
C46   H37   S    
C27   C30   A    
C9    C33   A    
C7    O19   S    
C42   H25   S    
C42   H24   S    
C15   C20   S    
C17   O10   S    
O10   C39   S    
C33   H5    S    
C34   H6    S    
C41   H21   S    
C10   C34   A    
C2    O4    A    
C50   H48   S    
C25   H3    S    
C44   H30   S    
C5    C7    A    
Cu1   O2    S    
C43   H27   S    
C22   O6    A    
C25   C26   A    
C21   C29   S    
C37   H11   S    
C1    C3    S    
C16   O9    S    
Cu1   O5    S    
C2    C4    S    
O11   C41   S    
C6    O18   S    
C21   O7    A    
Cu1   Cu2   S    
C44   H31   S    
Cu2   O7    S    
C49   H45   S    
C31   C32   A    
Cu2   O4    S    
C12   C15   A    
C3    C35   A    
C16   C20   A    
C45   H33   S    
C36   O16   S    
C16   C18   A    
C23   C28   A    
C52   H52   S    
C1    O1    A    
O19   C51   S    
C2    O2    A    
C13   N1    A    
C12   H8    S    
C12   C14   A    
C46   H38   S    
C54   H56   S    
C48   H43   S    
C4    C6    A    
C51   H50   S    
C8    O20   S    
C42   H26   S    
C18   N2    A    
C13   H9    S    
O20   C53   S    
C7    C9    A    
C22   C30   S    
C41   H22   S    
O12   C42   S    
C3    C5    A    
C43   H29   S    
C24   O14   S    
C22   O8    A    
C40   H20   S    
C6    C8    A    
C39   C40   S    
C35   O15   S    
O17   C47   S    
C51   C52   S    
C48   H42   S    
C53   H54   S    
C40   H18   S    
C29   C31   A    
C50   H46   S    
C44   H32   S    
C30   C32   A    
Cu1   N2    S    
C11   C13   A    
C19   N2    A    
O14   C44   S    
C52   H51   S    
Cu2   O3    S    
C47   H40   S    
C52   H53   S    
O16   C46   S    
C33   C35   A    
C31   H1    S    
C34   C36   A    
C32   H2    S    
C19   O12   S    
C49   C50   S    
C11   H7    S    
C38   H13   S    
C53   C54   S    
C8    C10   A    
C23   O13   S    
C40   H19   S    
C27   C28   A    
C54   H57   S    
C39   H17   S    
C14   H10   S    
C51   H49   S    
C48   H41   S    
C47   C48   S    
