data_mof_unit_1316.cif
_audit_creation_date              2012-12-10T16:57:17-0500
_audit_creation_method            fapswitch 2.2
_symmetry_space_group_name_H-M    P1
_symmetry_Int_Tables_number       1
_space_group_crystal_system       triclinic
_cell_length_a                    15.861772
_cell_length_b                    10.91564
_cell_length_c                    9.71324
_cell_angle_alpha                 90.391893
_cell_angle_beta                  90.59811
_cell_angle_gamma                 90.070185
_cell_volume                      1681.63152106

loop_
_atom_site_label
_atom_site_type_symbol
_atom_type_description
_atom_site_fract_x
_atom_site_fract_y
_atom_site_fract_z
_atom_type_partial_charge
C1    C     C_R   0.498810 0.265402 0.499707 0.844151
C2    C     C_3   0.952782 0.477287 0.651807 -0.356164
C3    C     C_3   0.917477 0.500665 0.504695 0.132084
C4    C     C_3   0.951063 0.625879 0.452016 0.349009
C5    C     C_3   0.048907 0.623259 0.448618 -0.453213
C6    C     C_1   0.825161 0.499966 0.504451 -0.049436
C7    C     C_1   0.175169 0.500146 0.499132 -0.072157
C8    C     C_1   0.250716 0.500469 0.498108 -0.211112
C9    C     C_2   0.498341 0.932209 0.387176 -0.166230
C10   C     C_2   0.505581 0.866730 0.502988 -0.316507
C11   C     C_2   0.502160 0.066237 0.386578 -0.166941
C12   C     C_R   0.340307 0.500293 0.499397 0.824235
C13   C     C_2   0.494142 0.133384 0.501510 -0.319526
C14   C     C_2   0.460127 0.419359 0.923018 -0.094804
C15   C     C_2   0.449624 0.431874 0.076889 -0.094477
C16   C     C_R   0.501144 0.734627 0.500446 0.848566
C17   C     C_R   0.659772 0.499982 0.500679 0.824453
C18   C     C_3   0.050897 0.479859 0.653072 0.346418
C19   C     C_3   0.047660 0.395119 0.407455 0.256845
C20   C     C_3   0.949807 0.397229 0.408861 -0.513733
C21   C     C_1   0.749530 0.499850 0.502744 -0.193210
C22   C     C_3   0.082993 0.499181 0.502831 0.125088
Cu1   Cu    Cu3+1 0.500020 0.500020 0.638630 0.936061
Cu2   Cu    Cu3+1 0.499980 0.499980 0.361370 0.939635
H1    H     H_    0.930508 0.386540 0.688565 0.123388
H2    H     H_    0.927561 0.546801 0.724909 0.220960
H3    H     H_    0.928533 0.637846 0.343409 0.050372
H4    H     H_    0.490585 0.886661 0.288071 0.177980
H5    H     H_    0.516837 0.908447 0.602881 0.156084
H6    H     H_    0.510524 0.110233 0.287639 0.163967
H7    H     H_    0.482239 0.092869 0.600786 0.146636
H8    H     H_    0.433188 0.338716 0.873739 0.145120
H9    H     H_    0.399900 0.379942 0.125452 0.154408
H10   H     H_    0.072128 0.388409 0.691042 0.100608
H11   H     H_    0.554603 0.527396 0.110504 0.211501
H12   H     H_    0.066573 0.415033 0.299388 0.084146
H13   H     H_    0.924868 0.307213 0.443434 0.223880
H14   H     H_    0.925267 0.411230 0.302286 0.137905
H15   H     H_    0.075603 0.700315 0.510912 0.240636
H16   H     H_    0.070333 0.637661 0.341075 0.115023
N1    N     N_2   0.499090 0.498660 0.846910 -0.220539
N2    N     N_2   0.499070 0.498630 0.153040 -0.275658
O1    O     O_R   0.500010 0.321960 0.617040 -0.586726
O2    O     O_R   0.499990 0.321920 0.382900 -0.575346
O3    O     O_R   0.379450 0.500030 0.617120 -0.584716
O4    O     O_R   0.379420 0.499980 0.382980 -0.569626
O5    O     O_R   0.500010 0.678080 0.617100 -0.580794
O6    O     O_R   0.499990 0.678040 0.382960 -0.567397
O7    O     O_R   0.620580 0.500020 0.617020 -0.578037
O8    O     O_R   0.620550 0.499970 0.382880 -0.578247
O9    O     O_3   0.078560 0.577233 0.740791 -0.597434
C23   C     C_3   0.151110 0.546123 0.819600 0.069253
H17   H     H_    0.192547 0.628232 0.824102 0.169353
H18   H     H_    0.189580 0.471154 0.773879 0.131881
C24   C     C_3   0.126233 0.512360 0.966293 -0.372611
H19   H     H_    0.089312 0.588466 0.012466 0.226957
H20   H     H_    0.086158 0.428755 0.963787 0.206532
C25   C     C_3   0.204197 0.488689 0.055814 -0.923296
H21   H     H_    0.240471 0.409884 0.014412 0.247336
H22   H     H_    0.184868 0.467409 0.162295 0.249156
H23   H     H_    0.245331 0.571084 0.059510 0.258037
C26   C     C_R   0.507765 0.621616 0.896012 0.339823
C27   C     C_R   0.587601 0.677219 0.898145 -0.171871
C28   C     C_R   0.596578 0.799414 0.940030 -0.174782
C29   C     C_R   0.525787 0.867437 0.977859 -0.130603
C30   C     C_R   0.445786 0.813674 0.972949 -0.177247
C31   C     C_R   0.436495 0.691594 0.930965 -0.122818
H24   H     H_    0.642726 0.625449 0.868346 0.137145
H25   H     H_    0.658399 0.841486 0.942790 0.137312
H26   H     H_    0.532862 0.961992 0.010298 0.125154
H27   H     H_    0.390932 0.866796 0.000992 0.132592
H28   H     H_    0.374101 0.651437 0.925221 0.115242
O10   O     O_3   0.076038 0.278679 0.453993 -0.611651
C32   C     C_3   0.136263 0.226339 0.364572 0.069389
H29   H     H_    0.174453 0.160317 0.425325 0.163472
H30   H     H_    0.181514 0.295214 0.324548 0.130332
C33   C     C_3   0.092655 0.156527 0.246317 -0.356725
H31   H     H_    0.053190 0.082213 0.289362 0.226857
H32   H     H_    0.051009 0.219258 0.187136 0.209456
C34   C     C_3   0.156989 0.100634 0.148630 -0.927999
H33   H     H_    0.196032 0.173772 0.102119 0.255045
H34   H     H_    0.123632 0.050013 0.064768 0.260554
H35   H     H_    0.198639 0.035705 0.204693 0.254771
O11   O     O_3   0.925044 0.721849 0.541944 -0.585699
C35   C     C_3   0.868488 0.803947 0.477053 0.069112
H36   H     H_    0.831251 0.849147 0.559202 0.168767
H37   H     H_    0.821913 0.756398 0.408470 0.122101
C36   C     C_3   0.916864 0.902801 0.398918 -0.369461
H38   H     H_    0.962141 0.949057 0.470336 0.236919
H39   H     H_    0.953137 0.860071 0.313983 0.204545
C37   C     C_3   0.857003 0.998292 0.338629 -0.915107
H40   H     H_    0.811696 0.954217 0.265660 0.255855
H41   H     H_    0.893606 0.068355 0.282302 0.252318
H42   H     H_    0.821603 0.044774 0.422069 0.257476

loop_
_geom_bond_atom_site_label_1
_geom_bond_atom_site_label_2
_ccdc_geom_bond_type
C24   H19   S    
Cu1   O3    S    
C2    C18   S    
Cu2   N2    S    
O10   C32   S    
C19   C20   S    
C3    C6    S    
C16   O6    A    
C7    C8    T    
C33   H31   S    
C32   H30   S    
C26   C31   A    
C19   H12   S    
Cu1   O7    S    
C25   H22   S    
C29   H26   S    
Cu1   O1    S    
C31   H28   S    
H11   N2    S    
C1    O1    A    
C5    C22   S    
C11   H6    S    
C32   C33   S    
Cu1   Cu2   S    
C9    C10   D    
C23   C24   S    
C25   H23   S    
C35   H37   S    
C30   C31   A    
N1    C26   S    
C34   H35   S    
C16   O5    A    
C23   H18   S    
C18   O9    S    
C33   H32   S    
Cu2   O8    S    
Cu1   O5    S    
C32   H29   S    
O9    C23   S    
Cu2   O6    S    
C19   O10   S    
C19   C22   S    
O11   C35   S    
C12   O4    A    
C17   O7    A    
C37   H40   S    
C34   H33   S    
C25   H21   S    
C35   H36   S    
C6    C21   T    
C17   C21   S    
C26   C27   A    
C37   H41   S    
C20   H14   S    
C1    O2    A    
C30   H27   S    
C4    O11   S    
C36   C37   S    
C8    C12   S    
C3    C20   S    
C2    H2    S    
C28   H25   S    
C9    C11   S    
C14   N1    D    
C34   H34   S    
C36   H39   S    
C5    H15   S    
Cu2   O2    S    
C24   C25   S    
C1    C13   S    
C3    C4    S    
C4    H3    S    
C23   H17   S    
C35   C36   S    
C33   C34   S    
C27   H24   S    
C18   C22   S    
C13   H7    S    
C15   N2    D    
C14   H8    S    
C12   O3    A    
C17   O8    A    
C7    C22   S    
Cu1   N1    S    
Cu2   O4    S    
C28   C29   A    
C24   H20   S    
C2    C3    S    
C10   C16   S    
C37   H42   S    
C20   H13   S    
C11   C13   D    
C10   H5    S    
C18   H10   S    
C2    H1    S    
C27   C28   A    
C4    C5    S    
C36   H38   S    
C29   C30   A    
C5    H16   S    
C14   C15   S    
C15   H9    S    
C9    H4    S    
