data_mof_unit_4883.cif
_audit_creation_date              2012-12-11T15:54:49-0500
_audit_creation_method            fapswitch 2.2
_symmetry_space_group_name_H-M    P1
_symmetry_Int_Tables_number       1
_space_group_crystal_system       triclinic
_cell_length_a                    17.817836
_cell_length_b                    24.428032
_cell_length_c                    15.118303
_cell_angle_alpha                 89.989624
_cell_angle_beta                  126.060284
_cell_angle_gamma                 90.009965
_cell_volume                      5319.51161318

loop_
_atom_site_label
_atom_site_type_symbol
_atom_type_description
_atom_site_fract_x
_atom_site_fract_y
_atom_site_fract_z
_atom_type_partial_charge
C1    C     C_R   0.944173 0.846940 0.088768 0.543040
C2    C     C_R   0.951748 0.155178 0.087804 0.415514
C3    C     C_R   0.453325 0.344610 0.087666 0.541154
C4    C     C_R   0.442708 0.653087 0.087781 0.424965
C5    C     C_R   0.062393 0.850936 0.906202 -0.155415
C6    C     C_R   0.090528 0.128962 0.905172 -0.111765
C7    C     C_R   0.591904 0.373056 0.905028 -0.116053
C8    C     C_R   0.563876 0.649115 0.907522 -0.153577
C9    C     C_R   0.185788 0.127646 0.089199 -0.150507
C10   C     C_R   0.152859 0.849669 0.088796 -0.110703
C11   C     C_R   0.655898 0.649061 0.090684 -0.105292
C12   C     C_R   0.687603 0.374937 0.089144 -0.139852
C13   C     C_R   0.306000 0.999075 0.366291 -0.101956
C14   C     C_R   0.800499 0.499477 0.369256 -0.006898
C15   C     C_R   0.924029 0.000240 0.628716 0.019816
C16   C     C_R   0.424494 0.501163 0.628926 0.020835
C17   C     C_R   0.127661 0.820928 0.996673 0.058394
C18   C     C_R   0.175554 0.146012 0.995557 0.044596
C19   C     C_R   0.677784 0.356876 0.995383 0.052267
C20   C     C_R   0.631022 0.678142 0.999063 0.072410
C21   C     C_3   0.882650 0.048998 0.359559 -0.446285
C22   C     C_3   0.891865 0.948119 0.367367 -0.392242
C23   C     C_3   0.385459 0.551452 0.361977 -0.428479
C24   C     C_3   0.383718 0.450703 0.361537 -0.412532
C25   C     C_3   0.854192 0.041897 0.438286 -0.209620
C26   C     C_3   0.899387 0.942032 0.473681 -0.238868
C27   C     C_3   0.357630 0.545437 0.441351 -0.209409
C28   C     C_3   0.391922 0.444118 0.468351 -0.229706
C29   C     C_3   0.040925 0.005046 0.488872 -0.435323
C30   C     C_3   0.539123 0.501776 0.486438 -0.424687
C31   C     C_3   0.946243 0.000263 0.374852 0.314383
C32   C     C_3   0.443695 0.500760 0.372615 0.301900
C33   C     C_3   0.924418 0.000069 0.531287 0.184821
C34   C     C_3   0.423751 0.501013 0.530702 0.183180
C35   C     C_R   0.856828 0.153022 0.907429 -0.056140
C36   C     C_R   0.848529 0.849199 0.907604 -0.100303
C37   C     C_R   0.347030 0.650186 0.906510 -0.083026
C38   C     C_R   0.358381 0.346724 0.907517 -0.055528
C39   C     C_3   0.025380 0.015917 0.575439 -0.397158
C40   C     C_3   0.525863 0.513021 0.574780 -0.402244
C41   C     C_3   0.733260 0.235438 0.881637 0.408691
C42   C     C_3   0.701844 0.797274 0.900197 0.423464
C43   C     C_3   0.199574 0.704061 0.894327 0.416632
C44   C     C_3   0.234063 0.265302 0.881125 0.409305
C45   C     C_3   0.132180 0.740295 0.899786 -0.430645
C46   C     C_3   0.178211 0.217717 0.880097 -0.431114
C47   C     C_3   0.678258 0.283592 0.880536 -0.418942
C48   C     C_3   0.634947 0.760432 0.905487 -0.438264
C49   C     C_3   0.325229 0.776027 0.986771 -0.363962
C50   C     C_3   0.379492 0.210632 0.013428 -0.347424
C51   C     C_3   0.879736 0.289568 0.012256 -0.336252
C52   C     C_3   0.825506 0.724046 0.984515 -0.372021
C53   C     C_3   0.818725 0.222739 0.088280 0.317722
C54   C     C_3   0.816053 0.790795 0.109612 0.359606
C55   C     C_3   0.310001 0.706886 0.104286 0.323038
C56   C     C_3   0.318726 0.278987 0.087378 0.367892
C57   C     C_3   0.831953 0.232017 0.995617 0.022118
C58   C     C_3   0.805879 0.784440 0.999233 0.034977
C59   C     C_3   0.303255 0.715289 0.996514 0.053792
C60   C     C_3   0.332577 0.268574 0.995476 0.001421
C61   C     C_3   0.187978 0.780618 0.996848 0.189498
C62   C     C_3   0.231607 0.189975 0.994298 0.194016
C63   C     C_3   0.732876 0.312094 0.994164 0.186570
C64   C     C_3   0.691268 0.718663 0.999762 0.188308
C65   C     C_3   0.254352 0.813991 0.982129 -0.431222
C66   C     C_3   0.320516 0.164992 0.016539 -0.456333
C67   C     C_3   0.821523 0.336125 0.014344 -0.459588
C68   C     C_3   0.755323 0.685814 0.980646 -0.427406
C69   C     C_3   0.247073 0.748641 0.107907 -0.345180
C70   C     C_3   0.258367 0.233173 0.085536 -0.341572
C71   C     C_3   0.759904 0.269535 0.086681 -0.298772
C72   C     C_3   0.752860 0.748969 0.112622 -0.378554
C73   C     C_3   0.436912 0.940213 0.515488 -0.422987
C74   C     C_3   0.464705 0.019954 0.433903 -0.340759
C75   C     C_3   0.935353 0.438318 0.505777 -0.378254
C76   C     C_3   0.956376 0.520859 0.424200 -0.344184
C77   C     C_R   0.734065 0.953666 0.752275 -0.062302
C78   C     C_R   0.732825 0.045736 0.751717 -0.086857
C79   C     C_R   0.233130 0.452982 0.742404 -0.083689
C80   C     C_R   0.231126 0.545501 0.740109 -0.048193
C81   C     C_3   0.536171 0.940832 0.617975 -0.363257
C82   C     C_3   0.566907 0.016506 0.529302 -0.401116
C83   C     C_3   0.039378 0.438234 0.594226 -0.394417
C84   C     C_3   0.059119 0.523887 0.517868 -0.388979
C85   C     C_3   0.418259 0.034305 0.563265 -0.379219
C86   C     C_3   0.919097 0.530246 0.564216 -0.380901
C87   C     C_3   0.403295 0.998762 0.468192 0.355334
C88   C     C_3   0.899877 0.497679 0.464463 0.338601
C89   C     C_3   0.577981 0.998794 0.634995 0.288775
C90   C     C_3   0.076618 0.497742 0.621610 0.287892
C91   C     C_3   0.523100 0.038522 0.657223 -0.323039
C92   C     C_3   0.024005 0.530556 0.656903 -0.321074
C93   C     C_R   0.991491 0.045855 0.260292 -0.020010
C94   C     C_R   0.999005 0.953348 0.268036 0.000818
C95   C     C_R   0.493124 0.546365 0.261701 0.016115
C96   C     C_R   0.493062 0.453782 0.262280 0.000801
C97   C     C_R   0.872340 0.819853 0.997682 -0.125725
C98   C     C_R   0.887873 0.186027 0.996227 -0.057238
C99   C     C_R   0.389921 0.313598 0.996147 -0.107312
C100  C     C_R   0.370317 0.679861 0.995994 -0.068107
C101  C     C_R   0.677936 0.999306 0.723413 0.044641
C102  C     C_R   0.176620 0.498645 0.706934 0.022214
C103  C     C_R   0.967784 0.999527 0.293516 -0.090056
C104  C     C_R   0.465025 0.500293 0.290921 -0.077380
C105  C     C_R   0.256281 0.953703 0.301723 -0.054730
C106  C     C_R   0.256763 0.045293 0.303906 -0.050666
C107  C     C_R   0.750449 0.454161 0.306419 -0.104058
C108  C     C_R   0.754637 0.545568 0.304697 -0.066307
C109  C     C_R   0.946472 0.045545 0.694676 -0.110537
C110  C     C_R   0.942051 0.954818 0.692796 -0.171253
C111  C     C_R   0.448728 0.546133 0.696145 -0.102569
C112  C     C_R   0.441273 0.455417 0.692087 -0.183279
H1    H     H_    0.819788 0.051582 0.273348 0.210753
H2    H     H_    0.817407 0.952382 0.296961 0.211571
H3    H     H_    0.322080 0.555666 0.276665 0.235045
H4    H     H_    0.309660 0.458006 0.292426 0.197566
H5    H     H_    0.783705 0.023056 0.391173 0.167853
H6    H     H_    0.830098 0.929310 0.451225 0.161212
H7    H     H_    0.285303 0.529233 0.393865 0.169127
H8    H     H_    0.321763 0.433980 0.446132 0.159320
H9    H     H_    0.084608 0.038405 0.492084 0.212033
H10   H     H_    0.081799 0.966958 0.509742 0.135650
H11   H     H_    0.586265 0.533453 0.492053 0.211340
H12   H     H_    0.575577 0.462209 0.503249 0.144632
H13   H     H_    0.037606 0.060133 0.597531 0.166054
H14   H     H_    0.077950 0.992832 0.651036 0.162754
H15   H     H_    0.542987 0.556652 0.600415 0.166532
H16   H     H_    0.576229 0.487881 0.648166 0.164738
H17   H     H_    0.743275 0.243362 0.816705 0.056030
H18   H     H_    0.692650 0.787419 0.822472 0.044048
H19   H     H_    0.192848 0.715682 0.818743 0.054593
H20   H     H_    0.244314 0.256829 0.816555 0.055373
H21   H     H_    0.608460 0.270384 0.854773 0.250540
H22   H     H_    0.587873 0.784502 0.915867 0.250077
H23   H     H_    0.083853 0.715719 0.907282 0.251004
H24   H     H_    0.108232 0.231334 0.853081 0.243894
H25   H     H_    0.088110 0.762366 0.820619 0.143611
H26   H     H_    0.166318 0.187505 0.817793 0.123955
H27   H     H_    0.665817 0.313222 0.817112 0.130251
H28   H     H_    0.589475 0.739490 0.825212 0.124534
H29   H     H_    0.316287 0.780369 0.907644 0.115798
H30   H     H_    0.379964 0.202724 0.941185 0.141409
H31   H     H_    0.880387 0.296551 0.939889 0.135069
H32   H     H_    0.814109 0.721036 0.903815 0.121505
H33   H     H_    0.815787 0.165006 0.822323 0.117146
H34   H     H_    0.803859 0.836501 0.823000 0.104103
H35   H     H_    0.300911 0.661790 0.821365 0.106748
H36   H     H_    0.318037 0.334662 0.822495 0.117649
H37   H     H_    0.213755 0.835282 0.901462 0.167965
H38   H     H_    0.302413 0.133512 0.953545 0.173663
H39   H     H_    0.803139 0.366773 0.949908 0.173165
H40   H     H_    0.712993 0.665494 0.899024 0.164395
H41   H     H_    0.888096 0.224841 0.168326 0.134825
H42   H     H_    0.888332 0.780728 0.179228 0.171230
H43   H     H_    0.381936 0.715517 0.176382 0.132697
H44   H     H_    0.387821 0.276326 0.167555 0.175902
H45   H     H_    0.295289 0.778670 0.172486 0.095006
H46   H     H_    0.304066 0.212407 0.166210 0.115287
H47   H     H_    0.806646 0.290701 0.166737 0.078052
H48   H     H_    0.800982 0.718030 0.174837 0.127449
H49   H     H_    0.289084 0.846994 0.044895 0.201778
H50   H     H_    0.358993 0.142949 0.096296 0.209605
H51   H     H_    0.860600 0.359026 0.093143 0.204311
H52   H     H_    0.790558 0.652109 0.041730 0.207556
H53   H     H_    0.392043 0.921727 0.536269 0.193505
H54   H     H_    0.447702 0.062983 0.405429 0.224583
H55   H     H_    0.902874 0.420872 0.543345 0.229187
H56   H     H_    0.933098 0.562074 0.387474 0.223424
H57   H     H_    0.437153 0.914342 0.455283 0.158020
H58   H     H_    0.452340 0.995307 0.364438 0.155815
H59   H     H_    0.920639 0.411268 0.438000 0.152004
H60   H     H_    0.946681 0.493858 0.358801 0.155973
H61   H     H_    0.574103 0.909360 0.605619 0.159509
H62   H     H_    0.602330 0.986535 0.509760 0.174739
H63   H     H_    0.073002 0.414451 0.563470 0.173568
H64   H     H_    0.099983 0.502354 0.494223 0.173456
H65   H     H_    0.715306 0.911131 0.739914 0.119545
H66   H     H_    0.710531 0.087940 0.735191 0.144353
H67   H     H_    0.214613 0.410196 0.728148 0.135770
H68   H     H_    0.208278 0.587531 0.720727 0.120342
H69   H     H_    0.538076 0.928847 0.690225 0.225491
H70   H     H_    0.599303 0.057194 0.539604 0.187180
H71   H     H_    0.054642 0.417417 0.668729 0.224094
H72   H     H_    0.081131 0.567570 0.532794 0.186362
H73   H     H_    0.381256 0.015125 0.594299 0.164034
H74   H     H_    0.390873 0.076150 0.538919 0.216065
H75   H     H_    0.881166 0.510928 0.593935 0.177638
H76   H     H_    0.894741 0.572919 0.544214 0.223642
H77   H     H_    0.535301 0.028483 0.736537 0.197649
H78   H     H_    0.546827 0.081317 0.662656 0.211145
H79   H     H_    0.037106 0.512527 0.732434 0.206421
H80   H     H_    0.048884 0.573597 0.675237 0.212195
H81   H     H_    0.940399 0.088156 0.674071 0.089455
H82   H     H_    0.920832 0.913203 0.666138 0.139217
H83   H     H_    0.446890 0.588921 0.678717 0.087452
H84   H     H_    0.418720 0.414085 0.664412 0.143032
H85   H     H_    0.025489 0.840753 0.820613 0.124731
H86   H     H_    0.058541 0.136955 0.819805 0.094887
H87   H     H_    0.560134 0.365874 0.819315 0.113485
H88   H     H_    0.527109 0.660085 0.822340 0.102513
H89   H     H_    0.243679 0.134675 0.172321 0.148950
H90   H     H_    0.195192 0.835062 0.171139 0.112236
H91   H     H_    0.703241 0.661067 0.174672 0.115183
H92   H     H_    0.747169 0.370001 0.172686 0.077109
H93   H     H_    0.920520 0.088081 0.380296 0.151213
H94   H     H_    0.911621 0.909919 0.349140 0.234726
H95   H     H_    0.426581 0.589226 0.384168 0.146676
H96   H     H_    0.397534 0.411695 0.339079 0.226163
N1    N     N_R   0.950530 0.896220 0.057200 -0.068237
N2    N     N_R   0.950530 0.103780 0.057200 -0.069272
N3    N     N_R   0.450530 0.396220 0.057200 -0.070566
N4    N     N_R   0.450530 0.603780 0.057200 -0.065402
N5    N     N_R   0.893330 0.103780 0.942800 -0.056477
N6    N     N_R   0.893330 0.896220 0.942800 -0.053120
N7    N     N_R   0.393330 0.603780 0.942800 -0.047659
N8    N     N_R   0.393330 0.396220 0.942800 -0.059913
N9    N     N_R   0.818150 0.971400 0.792440 -0.051874
N10   N     N_R   0.818150 0.028600 0.792440 -0.048205
N11   N     N_R   0.318150 0.471400 0.792440 -0.048942
N12   N     N_R   0.318150 0.528600 0.792440 -0.046028
N13   N     N_R   0.025710 0.028600 0.207560 -0.069938
N14   N     N_R   0.025710 0.971400 0.207560 -0.073135
N15   N     N_R   0.525710 0.528600 0.207560 -0.067690
N16   N     N_R   0.525710 0.471400 0.207560 -0.074032
N17   N     N_R   0.181850 0.971400 0.207560 -0.066966
N18   N     N_R   0.181850 0.028600 0.207560 -0.077426
N19   N     N_R   0.681850 0.471400 0.207560 -0.072076
N20   N     N_R   0.681850 0.528600 0.207560 -0.078329
N21   N     N_R   0.974290 0.028600 0.792440 -0.045971
N22   N     N_R   0.974290 0.971400 0.792440 -0.044303
N23   N     N_R   0.474290 0.528600 0.792440 -0.045155
N24   N     N_R   0.474290 0.471400 0.792440 -0.045022
N25   N     N_R   0.049470 0.896220 0.942800 -0.049938
N26   N     N_R   0.049470 0.103780 0.942800 -0.048630
N27   N     N_R   0.549470 0.396220 0.942800 -0.048743
N28   N     N_R   0.549470 0.603780 0.942800 -0.048440
N29   N     N_R   0.106670 0.103780 0.057200 -0.038169
N30   N     N_R   0.106670 0.896220 0.057200 -0.048410
N31   N     N_R   0.606670 0.603780 0.057200 -0.050557
N32   N     N_R   0.606670 0.396220 0.057200 -0.041425
Ni1   Ni    Ni4+2 0.065600 0.934400 0.131190 0.294007
Ni2   Ni    Ni4+2 0.065600 0.065600 0.131190 0.265225
Ni3   Ni    Ni4+2 0.565600 0.434400 0.131190 0.269450
Ni4   Ni    Ni4+2 0.565600 0.565600 0.131190 0.261570
Ni5   Ni    Ni4+2 0.934400 0.065600 0.868810 0.232457
Ni6   Ni    Ni4+2 0.934400 0.934400 0.868810 0.218276
Ni7   Ni    Ni4+2 0.434400 0.565600 0.868810 0.230618
Ni8   Ni    Ni4+2 0.434400 0.434400 0.868810 0.227408
Cl1   Cl    Cl    0.043891 0.811415 0.192072 -0.638038
Cl2   Cl    Cl    0.055788 0.183556 0.198607 -0.717711
Cl3   Cl    Cl    0.559361 0.316919 0.196229 -0.711640
Cl4   Cl    Cl    0.540421 0.688867 0.194346 -0.736266
C113  C     C_2   0.844780 0.097634 0.473847 0.547953
H97   H     H_    0.902340 0.126325 0.512029 0.006074
O1    O     O_2   0.772057 0.111340 0.458493 -0.550633
C114  C     C_2   0.967761 0.896214 0.541113 0.560649
H98   H     H_    0.041892 0.902132 0.585671 0.018923
O2    O     O_2   0.939403 0.851189 0.543868 -0.568958
C115  C     C_2   0.354398 0.601562 0.480697 0.549446
H99   H     H_    0.414914 0.628043 0.520421 -0.005927
O3    O     O_2   0.283426 0.618104 0.466626 -0.552412
C116  C     C_2   0.455397 0.395752 0.531242 0.554775
H100  H     H_    0.529925 0.398842 0.575175 0.015816
O4    O     O_2   0.422475 0.351859 0.531023 -0.550522
Cl5   Cl    Cl    0.662123 0.174742 0.838402 -0.583963
Cl6   Cl    Cl    0.665943 0.867460 0.885847 -0.624712
Cl7   Cl    Cl    0.160817 0.634141 0.872669 -0.612236
Cl8   Cl    Cl    0.163667 0.326338 0.837121 -0.604620
Cl9   Cl    Cl    0.778220 0.154885 0.089999 -0.624625
Cl10  Cl    Cl    0.801226 0.860314 0.138022 -0.569262
Cl11  Cl    Cl    0.290712 0.636812 0.124774 -0.635773
Cl12  Cl    Cl    0.280037 0.347501 0.088634 -0.537216
C117  C     C_2   0.678039 0.250062 0.084845 0.686379
H101  H     H_    0.681784 0.252751 0.158960 0.027973
O5    O     O_2   0.609122 0.230204 0.002749 -0.545017
C118  C     C_2   0.699400 0.771969 0.153866 0.709387
H102  H     H_    0.719426 0.760306 0.234356 0.054695
O6    O     O_2   0.635526 0.804166 0.099584 -0.545616
C119  C     C_2   0.191235 0.724875 0.145292 0.686247
H103  H     H_    0.208872 0.735973 0.224976 0.047057
O7    O     O_2   0.128057 0.692591 0.088721 -0.533577
C120  C     C_2   0.175949 0.253657 0.081452 0.688912
H104  H     H_    0.177084 0.249867 0.153713 0.045588
O8    O     O_2   0.109172 0.275036 0.999395 -0.548150
C121  C     C_2   0.423630 0.794160 0.073987 0.652368
H105  H     H_    0.473449 0.795117 0.054952 0.090250
O9    O     O_2   0.448658 0.806607 0.165897 -0.561754
C122  C     C_2   0.479177 0.205188 0.111881 0.678007
H106  H     H_    0.533787 0.204469 0.100670 0.071141
O10   O     O_2   0.499775 0.201157 0.204318 -0.527302
C123  C     C_2   0.979374 0.294981 0.110620 0.677049
H107  H     H_    0.033991 0.294736 0.099511 0.066233
O11   O     O_2   0.999896 0.300161 0.202847 -0.557272
C124  C     C_2   0.924137 0.705108 0.068191 0.649641
H108  H     H_    0.972049 0.705219 0.046410 0.087617
O12   O     O_2   0.951399 0.691020 0.160165 -0.535165
C125  C     C_2   0.009876 0.100807 0.307358 0.516749
H109  H     H_    0.954008 0.130055 0.275501 0.082669
O13   O     O_2   0.088332 0.113793 0.383800 -0.577016
C126  C     C_2   0.050123 0.907807 0.345077 0.590726
H110  H     H_    0.121293 0.914379 0.414899 0.045622
O14   O     O_2   0.013978 0.863552 0.333918 -0.518209
C127  C     C_2   0.523010 0.599148 0.318860 0.495383
H111  H     H_    0.473342 0.631209 0.297872 0.091109
O15   O     O_2   0.604972 0.607467 0.390920 -0.588769
C128  C     C_2   0.527081 0.402487 0.325449 0.536554
H112  H     H_    0.595222 0.401214 0.402347 0.086521
O16   O     O_2   0.478560 0.361697 0.294773 -0.532355
C129  C     C_2   0.265955 0.896224 0.334978 0.486040
H113  H     H_    0.311032 0.869189 0.328997 -0.008116
O17   O     O_2   0.224972 0.878582 0.370896 -0.557416
C130  C     C_2   0.264403 0.101315 0.344057 0.435009
H114  H     H_    0.206092 0.119089 0.337832 0.160913
O18   O     O_2   0.333391 0.129140 0.378740 -0.579993
C131  C     C_2   0.741835 0.401959 0.348699 0.473743
H115  H     H_    0.730769 0.364132 0.305778 0.083805
O19   O     O_2   0.744117 0.400972 0.430877 -0.599857
C132  C     C_2   0.761994 0.602339 0.341691 0.452836
H116  H     H_    0.699821 0.623313 0.319435 0.146076
O20   O     O_2   0.834626 0.627888 0.388620 -0.594186

loop_
_geom_bond_atom_site_label_1
_geom_bond_atom_site_label_2
_ccdc_geom_bond_type
N7    Ni7   S    
C39   H13   S    
C55   C59   S    
C15   C109  A    
C77   C101  A    
N15   N16   A    
C42   C58   S    
C127  O15   D    
C120  H104  S    
C52   H32   S    
N29   Ni2   S    
C46   C62   S    
C86   C88   S    
C69   C119  S    
C62   C70   S    
C35   H33   S    
C110  N22   A    
C17   C61   S    
C41   Cl5   S    
C82   H62   S    
C19   C63   S    
C32   C104  S    
C79   C102  A    
C36   C97   A    
C51   C57   S    
C42   Cl6   S    
N22   Ni6   S    
C23   H95   S    
C86   H75   S    
C78   H66   S    
C78   C101  A    
C85   H73   S    
C93   C125  S    
C73   C81   S    
C44   C46   S    
C68   H52   S    
C11   C20   A    
C131  O19   D    
C4    Cl4   S    
C48   H28   S    
C108  N20   A    
C70   C120  S    
N26   N29   A    
C24   C32   S    
C51   C123  S    
N21   N22   A    
C90   C92   S    
N19   N20   A    
N20   Ni4   S    
C29   H10   S    
C128  H112  S    
C83   H71   S    
C37   H35   S    
C10   H90   S    
C38   H36   S    
C52   C58   S    
C21   H1    S    
C14   C107  A    
C63   C71   S    
C7    C19   A    
C96   C104  A    
C79   H67   S    
N8    Ni8   S    
C53   C71   S    
C126  H110  S    
C6    H86   S    
C89   C101  S    
N23   Ni7   S    
C13   C106  A    
C115  O3    D    
C54   H42   S    
C29   H9    S    
C44   H20   S    
C43   H19   S    
C14   C88   S    
C121  O9    D    
C77   N9    A    
C71   C117  S    
C76   H56   S    
C119  O7    D    
C65   H37   S    
C95   N15   A    
C61   C65   S    
C12   N32   A    
C65   H49   S    
C95   C127  S    
N11   Ni8   S    
C94   C126  S    
C16   C111  A    
C81   H61   S    
C40   H16   S    
C53   H41   S    
C111  N23   A    
N27   N32   A    
N6    Ni6   S    
C56   H44   S    
C93   C103  A    
C55   H43   S    
C91   H77   S    
C82   C89   S    
C64   C68   S    
C48   H22   S    
C123  O11   D    
C3    Cl3   S    
N26   Ni5   S    
C113  H97   S    
C1    Cl1   S    
N18   Ni2   S    
C130  H114  S    
C22   H94   S    
C76   H60   S    
C90   C102  S    
C132  O20   D    
C16   C34   S    
C73   C87   S    
C114  O2    D    
C69   H45   S    
C109  H81   S    
C105  N17   A    
C74   C87   S    
C89   C91   S    
C24   C28   S    
C92   H79   S    
C43   C59   S    
N21   Ni5   S    
N3    N8    A    
C6    N26   A    
C59   C100  S    
C125  O13   D    
C84   C90   S    
N17   N18   A    
C129  O17   D    
C3    N3    A    
C45   H23   S    
C62   C66   S    
C1    N1    A    
N10   Ni5   S    
C84   H72   S    
C73   H53   S    
C28   H8    S    
N1    Ni1   S    
C25   C113  S    
C18   C62   S    
C5    H85   S    
C54   C72   S    
N9    N10   A    
C77   H65   S    
C80   C102  A    
N24   Ni8   S    
C122  O10   D    
C43   Cl7   S    
N13   N14   A    
C107  C131  S    
C26   C33   S    
N4    N7    A    
C13   C87   S    
C41   C47   S    
C42   C48   S    
N5    Ni5   S    
C43   C45   S    
C55   C69   S    
C8    C20   A    
C24   H4    S    
C9    N29   A    
C8    H88   S    
N27   Ni8   S    
C21   C25   S    
C26   H6    S    
C30   H12   S    
N16   Ni3   S    
C116  H100  S    
N2    N5    A    
C82   H70   S    
C53   Cl9   S    
C49   C59   S    
N28   N31   A    
C50   C60   S    
C106  C130  S    
C51   C67   S    
C117  O5    D    
C12   H92   S    
C3    C99   A    
C9    C18   A    
C22   H2    S    
C30   H11   S    
C94   N14   A    
C37   C100  A    
C50   H30   S    
C111  H83   S    
C86   H76   S    
C76   C84   S    
N30   Ni1   S    
C66   H38   S    
C47   C63   S    
C124  H108  S    
C48   C64   S    
C5    C17   A    
N17   Ni1   S    
C66   H50   S    
C112  H84   S    
C109  N21   A    
C49   H29   S    
C128  O16   D    
C119  H103  S    
C35   C98   A    
C81   C89   S    
C14   C108  A    
C28   C34   S    
C131  H115  S    
C39   H14   S    
C47   H21   S    
C15   C110  A    
C74   C82   S    
N14   Ni1   S    
C126  O14   D    
C7    N27   A    
N3    Ni3   S    
N9    Ni6   S    
C13   C105  A    
N11   N12   A    
C53   C57   S    
C40   H15   S    
C24   H96   S    
N32   Ni3   S    
C56   C60   S    
C70   H46   S    
N25   N30   A    
C121  H105  S    
C68   H40   S    
C21   C31   S    
N15   Ni4   S    
C49   C121  S    
C11   H91   S    
C35   N5    A    
N2    Ni2   S    
C9    H89   S    
C8    N28   A    
N12   Ni7   S    
C94   C103  A    
C73   H57   S    
C74   H54   S    
C71   H47   S    
C51   H31   S    
C16   C112  A    
C50   C122  S    
C72   C118  S    
C120  O8    D    
C38   C99   A    
C72   H48   S    
N1    N6    A    
C112  N24   A    
C23   C32   S    
C41   C57   S    
C26   C114  S    
C78   N10   A    
C75   C83   S    
C44   C60   S    
C28   C116  S    
C57   C98   S    
C12   C19   A    
C45   C61   S    
C130  O18   D    
C29   C31   S    
C22   C26   S    
C47   H27   S    
C84   H64   S    
C37   N7    A    
C92   H80   S    
C96   C128  S    
C124  O12   D    
C83   H63   S    
C125  H109  S    
C81   H69   S    
C60   C99   S    
C85   C91   S    
C44   Cl8   S    
C129  H113  S    
C108  C132  S    
C33   C39   S    
C49   C65   S    
C34   C40   S    
C80   H68   S    
C2    Cl2   S    
N19   Ni3   S    
N25   Ni6   S    
C10   C17   A    
C11   N31   A    
C21   H93   S    
C54   Cl10  S    
C79   N11   A    
C127  H111  S    
C96   N16   A    
C110  H82   S    
C106  N18   A    
N31   Ni4   S    
C23   C27   S    
C76   C88   S    
C52   C68   S    
C46   H26   S    
C105  C129  S    
C123  H107  S    
C5    N25   A    
N28   Ni7   S    
C58   C97   S    
N13   Ni2   S    
C85   C87   S    
C27   C34   S    
C6    C18   A    
C91   H78   S    
C63   C67   S    
C2    N2    A    
C22   C31   S    
C67   H39   S    
C30   C32   S    
C1    C97   A    
C113  O1    D    
C116  O4    D    
C23   H3    S    
C107  N19   A    
C31   C103  S    
C20   C64   S    
C132  H116  S    
C67   H51   S    
C36   N6    A    
C114  H98   S    
C29   C39   S    
C45   H25   S    
C117  H101  S    
C30   C40   S    
C42   H18   S    
C118  H102  S    
C50   C66   S    
C36   H34   S    
C118  O6    D    
C10   N30   A    
C56   C70   S    
C4    C100  A    
C75   H59   S    
C115  H99   S    
C95   C104  A    
C54   C58   S    
C61   C69   S    
C85   H74   S    
C83   C90   S    
C38   N8    A    
C25   H5    S    
C80   N12   A    
C75   H55   S    
C27   H7    S    
C27   C115  S    
C4    N4    A    
C122  H106  S    
N4    Ni4   S    
C86   C92   S    
C41   H17   S    
C64   C72   S    
C7    H87   S    
C74   H58   S    
C46   H24   S    
C75   C88   S    
C55   Cl11  S    
C2    C98   A    
C25   C33   S    
N23   N24   A    
C93   N13   A    
C52   C124  S    
C15   C33   S    
C56   Cl12  S    
