data_mof_unit_3247.cif
_audit_creation_date              2012-12-10T18:08:47-0500
_audit_creation_method            fapswitch 2.2
_symmetry_space_group_name_H-M    P1
_symmetry_Int_Tables_number       1
_space_group_crystal_system       triclinic
_cell_length_a                    12.753354
_cell_length_b                    13.873585
_cell_length_c                    23.561339
_cell_angle_alpha                 89.792112
_cell_angle_beta                  93.062968
_cell_angle_gamma                 98.423662
_cell_volume                      4117.91737164

loop_
_atom_site_label
_atom_site_type_symbol
_atom_type_description
_atom_site_fract_x
_atom_site_fract_y
_atom_site_fract_z
_atom_type_partial_charge
C1    C     C_R   0.483150 0.315833 0.500131 0.869673
C2    C     C_R   0.516886 0.684221 0.499922 0.845155
C3    C     C_R   0.436943 0.549957 0.238166 -0.090881
C4    C     C_R   0.409615 0.453662 0.756991 -0.107917
C5    C     C_R   0.437333 0.548847 0.297167 -0.239242
C6    C     C_R   0.412047 0.456034 0.698012 -0.238613
C7    C     C_R   0.500383 0.491010 0.328848 -0.107002
C8    C     C_R   0.499045 0.507826 0.671517 -0.107730
C9    C     C_R   0.562032 0.430622 0.300400 -0.076240
C10   C     C_R   0.584121 0.559991 0.705392 -0.059626
C11   C     C_R   0.564035 0.436128 0.240956 -0.152459
C12   C     C_R   0.581804 0.554187 0.764675 -0.141554
C13   C     C_R   0.501228 0.494659 0.209708 0.320075
C14   C     C_R   0.494847 0.501996 0.790559 0.332390
C15   C     C_1   0.527485 0.787647 0.498364 -0.147199
C16   C     C_1   0.473117 0.212751 0.504269 -0.143620
C17   C     C_2   0.544550 0.979335 0.496932 -0.026246
C18   C     C_2   0.463569 0.022633 0.515227 -0.025386
C19   C     C_1   0.466640 0.126122 0.509039 -0.040476
C20   C     C_1   0.536474 0.874843 0.497254 -0.041495
C21   C     C_2   0.030836 0.489926 0.478154 -0.121479
C22   C     C_2   0.969284 0.510638 0.521519 -0.129139
C23   C     C_R   0.500143 0.496394 0.391009 0.841452
C24   C     C_R   0.499897 0.503367 0.609126 0.826895
C25   C     C_1   0.853605 0.513669 0.513605 0.168227
C26   C     C_1   0.146443 0.486545 0.486349 0.164763
C27   C     C_R   0.494877 0.585444 0.880206 0.551419
C28   C     C_R   0.475622 0.410277 0.119175 0.553086
C29   C     C_R   0.491181 0.413433 0.879166 0.538844
C30   C     C_R   0.524822 0.582339 0.121148 0.532826
C31   C     C_R   0.487039 0.409049 0.939147 -0.056933
C32   C     C_R   0.515851 0.586679 0.061027 -0.053722
C33   C     C_R   0.497406 0.498266 0.969892 -0.029000
C34   C     C_R   0.499388 0.497575 0.030109 -0.027741
C35   C     C_R   0.505502 0.588202 0.940291 -0.088605
C36   C     C_R   0.484565 0.407727 0.059637 -0.092343
C37   C     C_R   0.476014 0.319184 0.969158 -0.100864
C38   C     C_R   0.525032 0.676584 0.031259 -0.104625
C39   C     C_R   0.476298 0.318674 0.029043 -0.049581
C40   C     C_R   0.521229 0.677366 0.971298 -0.045233
Cu1   Cu    Cu3+1 0.395330 0.493960 0.496390 0.985927
Cu2   Cu    Cu3+1 0.604670 0.506040 0.503610 1.026149
H1    H     H_    0.386882 0.594332 0.214472 0.146159
H2    H     H_    0.341681 0.413753 0.776673 0.139078
H3    H     H_    0.388807 0.594141 0.318283 0.156817
H4    H     H_    0.346418 0.415854 0.672951 0.155739
H5    H     H_    0.611821 0.392357 0.218190 0.194297
H6    H     H_    0.646352 0.592809 0.791250 0.182819
N1    N     N_R   0.492761 0.500031 0.851524 -0.459358
N2    N     N_R   0.500680 0.495803 0.148539 -0.458653
N3    N     N_1   0.238030 0.484870 0.490960 -0.157864
N4    N     N_1   0.761970 0.515130 0.509040 -0.148167
O1    O     O_R   0.399110 0.356330 0.496510 -0.585191
O2    O     O_R   0.600890 0.643670 0.503490 -0.553792
O3    O     O_R   0.575900 0.366540 0.502610 -0.547275
O4    O     O_R   0.424100 0.633460 0.497390 -0.573288
O5    O     O_R   0.411590 0.494870 0.414830 -0.578136
O6    O     O_R   0.588410 0.505130 0.585170 -0.557281
O7    O     O_R   0.588370 0.505070 0.420930 -0.559614
O8    O     O_R   0.411630 0.494930 0.579070 -0.581342
O9    O     O_2   0.484440 0.666667 0.850083 -0.524556
O10   O     O_2   0.439283 0.328778 0.147727 -0.515649
O11   O     O_2   0.495466 0.332685 0.848212 -0.541874
O12   O     O_2   0.559166 0.663119 0.152430 -0.545180
C41   C     C_R   0.463267 0.223904 0.939036 0.183220
C42   C     C_R   0.363437 0.182769 0.915354 -0.039081
C43   C     C_R   0.351308 0.092541 0.887648 -0.130235
C44   C     C_R   0.438458 0.042872 0.883676 -0.051669
C45   C     C_R   0.537855 0.083197 0.907548 -0.095411
C46   C     C_R   0.550413 0.173471 0.935196 -0.106256
H7    H     H_    0.295475 0.220665 0.918352 0.121961
H8    H     H_    0.274358 0.061092 0.869281 0.133777
H9    H     H_    0.428938 0.973107 0.862148 0.163228
H10   H     H_    0.605174 0.044552 0.904614 0.131075
H11   H     H_    0.627669 0.204131 0.953620 0.131357
C47   C     C_R   0.534408 0.771348 0.061779 0.186180
C48   C     C_R   0.444285 0.801646 0.083726 -0.046103
C49   C     C_R   0.452753 0.891231 0.111861 -0.139857
C50   C     C_R   0.550894 0.951114 0.117974 -0.091006
C51   C     C_R   0.640751 0.921583 0.095905 -0.112556
C52   C     C_R   0.632734 0.831937 0.067863 -0.098973
H12   H     H_    0.367889 0.755831 0.079053 0.117908
H13   H     H_    0.383228 0.914290 0.128877 0.134211
H14   H     H_    0.557292 0.020395 0.139798 0.171491
H15   H     H_    0.716609 0.968141 0.100558 0.140901
H16   H     H_    0.702739 0.809642 0.050876 0.132377
C53   C     C_2   0.474960 0.223835 0.058863 0.922053
O13   O     O_2   0.551366 0.209318 0.089604 -0.593673
O14   O     O_R   0.387165 0.151164 0.050878 -0.752042
H17   H     H_    0.395961 0.089827 0.072992 0.331051
C54   C     C_2   0.539554 0.773071 0.942100 0.915001
O15   O     O_2   0.475331 0.829993 0.945013 -0.607164
O16   O     O_R   0.631092 0.797902 0.911982 -0.740401
H18   H     H_    0.634868 0.864679 0.893950 0.324755
C55   C     C_2   0.618354 0.356117 0.329908 0.861210
O17   O     O_2   0.594158 0.326537 0.377043 -0.593556
O18   O     O_R   0.695731 0.315357 0.302176 -0.778204
H19   H     H_    0.727160 0.264590 0.326020 0.337930
C56   C     C_2   0.673391 0.625331 0.681239 0.861432
O19   O     O_2   0.658006 0.674428 0.639229 -0.599130
O20   O     O_R   0.774662 0.634075 0.708281 -0.761246
H20   H     H_    0.828499 0.681911 0.688491 0.327960
C57   C     C_R   0.367535 0.967115 0.539592 0.130301
C58   C     C_R   0.265897 0.978707 0.516963 -0.138490
C59   C     C_R   0.175317 0.927367 0.539842 -0.140814
C60   C     C_R   0.185302 0.864600 0.585670 -0.104385
C61   C     C_R   0.285868 0.853203 0.608840 -0.118621
C62   C     C_R   0.376699 0.904592 0.586195 -0.134532
H21   H     H_    0.256830 0.026865 0.481319 0.132738
H22   H     H_    0.097328 0.936300 0.522047 0.133214
H23   H     H_    0.115069 0.825268 0.603390 0.123339
H24   H     H_    0.293417 0.804886 0.644530 0.143023
H25   H     H_    0.454024 0.896051 0.605157 0.142404
C63   C     C_R   0.640091 0.035529 0.472408 0.136383
C64   C     C_R   0.668201 0.013373 0.417591 -0.122945
C65   C     C_R   0.756351 0.067392 0.393828 -0.140394
C66   C     C_R   0.817518 0.143428 0.424648 -0.115627
C67   C     C_R   0.791099 0.165229 0.479454 -0.101103
C68   C     C_R   0.703195 0.111235 0.503456 -0.124095
H26   H     H_    0.620994 0.955257 0.392960 0.130373
H27   H     H_    0.777008 0.050539 0.351396 0.136449
H28   H     H_    0.885479 0.185272 0.406090 0.124075
H29   H     H_    0.838766 0.223960 0.503350 0.129585
H30   H     H_    0.684120 0.128579 0.546127 0.128987
C69   C     C_R   0.016329 0.528514 0.580210 0.137556
C70   C     C_R   0.006383 0.615291 0.608642 -0.141017
C71   C     C_R   0.050763 0.632729 0.663883 -0.134522
C72   C     C_R   0.104185 0.563301 0.691384 -0.077765
C73   C     C_R   0.112828 0.476050 0.663819 -0.129663
C74   C     C_R   0.069025 0.458474 0.608497 -0.127469
H31   H     H_    0.965281 0.669802 0.587820 0.123489
H32   H     H_    0.043698 0.700095 0.685390 0.128635
H33   H     H_    0.138397 0.576871 0.734152 0.136339
H34   H     H_    0.153061 0.421829 0.685424 0.122081
H35   H     H_    0.075562 0.390121 0.587879 0.120063
C75   C     C_R   0.985193 0.474551 0.418971 0.132694
C76   C     C_R   0.002028 0.392191 0.388094 -0.161481
C77   C     C_R   0.963592 0.379418 0.331522 -0.131852
C78   C     C_R   0.908801 0.448997 0.305177 -0.049729
C79   C     C_R   0.891598 0.531097 0.335466 -0.136005
C80   C     C_R   0.930173 0.544339 0.391986 -0.125720
H36   H     H_    0.044839 0.337879 0.407846 0.121727
H37   H     H_    0.976495 0.315645 0.308060 0.136745
H38   H     H_    0.879294 0.439103 0.261340 0.150829
H39   H     H_    0.849130 0.584919 0.314990 0.137417
H40   H     H_    0.918581 0.609696 0.414343 0.125651

loop_
_geom_bond_atom_site_label_1
_geom_bond_atom_site_label_2
_ccdc_geom_bond_type
C38   C40   A    
C21   C26   S    
C29   O11   S    
O16   H18   S    
C30   O12   S    
Cu1   Cu2   S    
C11   H5    S    
C55   O17   D    
C39   C53   S    
C76   H36   S    
C72   C73   A    
Cu2   O6    S    
O18   H19   S    
C29   N1    A    
C48   C49   A    
C23   O7    A    
C3    H1    S    
O20   H20   S    
C70   C71   A    
C70   H31   S    
C59   H22   S    
C18   C19   S    
C77   H37   S    
C50   H14   S    
C14   N1    S    
C60   C61   A    
C64   C65   A    
C17   C20   S    
C65   C66   A    
C23   O5    A    
C43   H8    S    
C61   H24   S    
C1    O1    A    
C67   C68   A    
C27   O9    S    
C33   C35   A    
C71   H32   S    
C28   N2    A    
C69   C74   A    
C56   O19   D    
C44   C45   A    
C22   C25   S    
C37   C41   S    
C61   C62   A    
C31   C33   A    
C57   C62   A    
C32   C38   A    
C9    C55   S    
C21   C75   S    
C52   H16   S    
C3    C13   A    
C12   H6    S    
C67   H29   S    
C42   C43   A    
C30   N2    A    
C21   C22   D    
C29   C31   A    
C41   C46   A    
C45   C46   A    
C72   H33   S    
C49   H13   S    
C58   C59   A    
C17   C63   S    
C63   C64   A    
C60   H23   S    
C15   C20   T    
C65   H27   S    
C43   C44   A    
C47   C48   A    
C4    C6    A    
C2    O2    A    
C54   O15   D    
C5    C7    A    
C49   C50   A    
C51   C52   A    
C22   C69   S    
C38   C47   S    
C4    H2    S    
C27   C35   A    
C44   H9    S    
C68   H30   S    
C5    H3    S    
C50   C51   A    
C32   C34   A    
C62   H25   S    
C79   H39   S    
C66   H28   S    
Cu1   O4    S    
C51   H15   S    
Cu2   O3    S    
C54   O16   S    
C78   H38   S    
C42   H7    S    
C24   O8    A    
C17   C18   D    
C45   H10   S    
C1    C16   S    
C79   C80   A    
C2    C15   S    
C9    C11   A    
Cu1   O1    S    
C10   C12   A    
C80   H40   S    
C24   O6    A    
C56   O20   S    
C74   H35   S    
C12   C14   A    
C41   C42   A    
C53   O14   S    
C69   C70   A    
C71   C72   A    
C57   C58   A    
C73   C74   A    
C76   C77   A    
C7    C9    A    
C6    H4    S    
C36   C39   A    
C63   C68   A    
Cu1   O8    S    
C75   C76   A    
C3    C5    A    
C47   C52   A    
C6    C8    A    
C78   C79   A    
C55   O18   S    
C59   C60   A    
C35   C40   A    
C1    O3    A    
C25   N4    T    
Cu1   O5    S    
C37   C39   A    
C2    O4    A    
C26   N3    T    
Cu2   O2    S    
C30   C32   A    
C11   C13   A    
C58   H21   S    
C48   H12   S    
C16   C19   T    
C7    C23   S    
C8    C24   S    
C75   C80   A    
C33   C34   A    
C34   C36   A    
C18   C57   S    
C40   C54   S    
C4    C14   A    
C10   C56   S    
C73   H34   S    
C77   C78   A    
C13   N2    S    
C31   C37   A    
C28   C36   A    
C53   O13   D    
C8    C10   A    
C64   H26   S    
Cu2   O7    S    
C46   H11   S    
O14   H17   S    
C66   C67   A    
Cu1   N3    S    
C27   N1    A    
Cu2   N4    S    
C28   O10   S    
