data_mof_unit_2799.cif
_audit_creation_date              2012-12-11T16:41:22-0500
_audit_creation_method            fapswitch 2.2
_symmetry_space_group_name_H-M    P1
_symmetry_Int_Tables_number       1
_space_group_crystal_system       triclinic
_cell_length_a                    8.22879
_cell_length_b                    17.323496
_cell_length_c                    18.877425
_cell_angle_alpha                 99.040673
_cell_angle_beta                  91.824307
_cell_angle_gamma                 95.785452
_cell_volume                      2640.92224641

loop_
_atom_site_label
_atom_site_type_symbol
_atom_type_description
_atom_site_fract_x
_atom_site_fract_y
_atom_site_fract_z
_atom_type_partial_charge
Ba1   Ba    Ba6+2 0.849550 0.533890 0.465080 1.673934
Ba2   Ba    Ba6+2 0.340280 0.466170 0.534930 1.721954
C1    C     C_3   0.666174 0.819121 0.292524 -0.334562
C2    C     C_R   0.900253 0.432160 0.099400 -0.031151
C3    C     C_R   0.772621 0.437404 0.953294 -0.088938
C4    C     C_3   0.108749 0.694315 0.270222 0.352451
C5    C     C_R   0.931956 0.470580 0.978462 0.020096
C6    C     C_R   0.718535 0.434013 0.882256 -0.088081
C7    C     C_R   0.819844 0.463712 0.832374 -0.033964
C8    C     C_R   0.976949 0.501807 0.856336 -0.002453
C9    C     C_R   0.033196 0.505589 0.929805 0.025965
C10   C     C_R   0.767912 0.456839 0.759262 -0.008364
C11   C     C_R   0.874043 0.484745 0.710384 -0.302815
C12   C     C_3   0.636404 0.737550 0.313111 0.341866
C13   C     C_R   0.024437 0.527688 0.732962 0.038172
C14   C     C_R   0.076258 0.537275 0.807214 -0.042424
C15   C     C_R   0.148796 0.508665 0.074631 0.026183
C16   C     C_3   0.095042 0.718214 0.196293 -0.350551
C17   C     C_R   0.206581 0.510486 0.147705 -0.004936
C18   C     C_R   0.107139 0.475029 0.196818 -0.069022
C19   C     C_R   0.958137 0.433033 0.169646 0.028004
C20   C     C_R   0.223159 0.581555 0.834292 -0.023738
C21   C     C_R   0.279564 0.584327 0.905265 -0.089167
C22   C     C_R   0.189860 0.544401 0.953940 0.012258
C23   C     C_3   0.481652 0.336985 0.321268 0.277836
C24   C     C_R   0.249717 0.544013 0.026043 0.023601
C25   C     C_R   0.409847 0.575967 0.050895 -0.099322
C26   C     C_R   0.365704 0.545864 0.170983 -0.032384
C27   C     C_R   0.465942 0.576820 0.121324 -0.092097
C28   C     C_3   0.224443 0.707021 0.622052 0.308388
C29   C     C_R   0.421110 0.548388 0.243078 -0.004630
C30   C     C_R   0.316925 0.518680 0.292112 -0.292713
C31   C     C_R   0.161195 0.481111 0.270768 0.059513
C32   C     C_R   0.405086 0.718430 0.470356 -0.295005
C33   C     C_R   0.551816 0.745690 0.509321 0.060469
C34   C     C_3   0.457678 0.311681 0.239961 -0.325846
C35   C     C_R   0.608046 0.825925 0.519685 -0.119875
C36   C     C_R   0.515717 0.879192 0.492049 -0.011558
C37   C     C_R   0.364302 0.851694 0.455116 -0.132255
C38   C     C_R   0.308264 0.771106 0.445390 0.006246
C39   C     C_R   0.577245 0.165416 0.499701 -0.068499
C40   C     C_3   0.231338 0.796595 0.637613 -0.381124
C41   C     C_R   0.629833 0.245769 0.507096 0.105714
C42   C     C_R   0.876668 0.226747 0.572561 0.050674
C43   C     C_R   0.827913 0.145402 0.563222 -0.081677
C44   C     C_R   0.674452 0.114976 0.528873 0.012399
C45   C     C_3   0.086109 0.314659 0.737407 0.345499
C46   C     C_1   0.621710 0.031515 0.516710 0.018887
C47   C     C_1   0.573392 0.962143 0.505284 0.012647
C48   C     C_R   0.768235 0.276764 0.550979 -0.188445
C49   C     C_3   0.940586 0.270184 0.301500 0.626045
C50   C     C_3   0.967887 0.195955 0.246795 0.223743
C51   C     C_3   0.711730 0.642331 0.682002 0.308610
C52   C     C_3   0.719280 0.667455 0.763140 -0.384022
C53   C     C_3   0.107467 0.295645 0.812926 -0.334626
C54   C     C_3   0.552970 0.266375 0.698373 0.372139
C55   C     C_3   0.520551 0.187852 0.724553 -0.344781
C56   C     C_R   0.991168 0.470997 0.050680 -0.005513
H1    H     H_    0.702950 0.738156 0.365477 0.088230
H2    H     H_    0.814733 0.717889 0.778969 0.130417
H3    H     H_    0.749278 0.618376 0.790705 0.059828
H4    H     H_    0.599017 0.685160 0.780746 0.120526
H5    H     H_    0.502887 0.724323 0.318932 -0.063113
H6    H     H_    0.622161 0.863252 0.334787 0.083213
H7    H     H_    0.362918 0.353384 0.342660 0.060311
H8    H     H_    0.573975 0.389729 0.331179 0.042240
H9    H     H_    0.389004 0.251943 0.227440 0.168267
H10   H     H_    0.386730 0.353807 0.215914 0.041317
H11   H     H_    0.580021 0.312211 0.215753 0.148805
H12   H     H_    0.283082 0.822707 0.592178 0.064137
H13   H     H_    0.599058 0.820524 0.240735 0.120272
H14   H     H_    0.131389 0.671011 0.154975 0.071663
H15   H     H_    0.153633 0.373104 0.735518 0.084999
H16   H     H_    0.953711 0.317109 0.726109 -0.080050
H17   H     H_    0.239406 0.295282 0.827375 0.152967
H18   H     H_    0.056170 0.340523 0.852203 0.077415
H19   H     H_    0.041850 0.236916 0.815875 0.122923
H20   H     H_    0.687123 0.278756 0.694449 -0.091745
H21   H     H_    0.490282 0.261574 0.644554 0.060110
H22   H     H_    0.567438 0.140960 0.686019 0.057505
H23   H     H_    0.105442 0.814153 0.645590 0.128186
H24   H     H_    0.387180 0.172949 0.729005 0.153436
H25   H     H_    0.027323 0.639038 0.269859 0.089882
H26   H     H_    0.583633 0.190761 0.777978 0.122104
H27   H     H_    0.834012 0.477704 0.654349 0.067557
H28   H     H_    0.595443 0.407298 0.867258 0.114118
H29   H     H_    0.882166 0.399523 0.201906 0.110474
H30   H     H_    0.298145 0.614347 0.800906 0.098815
H31   H     H_    0.590130 0.602182 0.135940 0.109957
H32   H     H_    0.361259 0.520771 0.347028 0.068904
H33   H     H_    0.684097 0.414097 0.987424 0.077727
H34   H     H_    0.821074 0.291995 0.290080 -0.002958
H35   H     H_    0.784023 0.398065 0.084656 0.099119
H36   H     H_    0.393941 0.619916 0.920623 0.064212
H37   H     H_    0.237469 0.683827 0.280874 -0.064901
H38   H     H_    0.497571 0.599578 0.016650 0.072702
H39   H     H_    0.467542 0.141540 0.466882 0.100450
H40   H     H_    0.288897 0.892630 0.435943 0.093152
H41   H     H_    0.910217 0.106172 0.580433 0.067066
H42   H     H_    0.721094 0.847005 0.550876 0.086287
H43   H     H_    0.360673 0.656642 0.463851 0.068853
H44   H     H_    0.803409 0.339570 0.559573 0.071443
H45   H     H_    0.916983 0.141166 0.266097 0.105529
H46   H     H_    0.967027 0.728400 0.183533 0.149782
H47   H     H_    0.176857 0.772949 0.194905 0.124570
H48   H     H_    0.349333 0.690289 0.612652 0.008615
H49   H     H_    0.142640 0.685490 0.573413 0.062128
H50   H     H_    0.310118 0.820218 0.686799 0.128275
H51   H     H_    0.057056 0.335856 0.467601 0.381219
H52   H     H_    0.065857 0.270117 0.126401 0.324057
H53   H     H_    0.101136 0.192028 0.241457 0.042505
H54   H     H_    0.832684 0.626507 0.664974 0.007360
H55   H     H_    0.618773 0.590645 0.667931 0.072026
H56   H     H_    0.798947 0.834663 0.286930 0.159455
O1    O     O_2   0.878040 0.448040 0.325130 -0.487102
O2    O     O_2   0.212873 0.228092 0.552760 -0.451363
O3    O     O_3   0.148504 0.256597 0.688277 -0.605418
O4    O     O_3   0.126800 0.453980 0.414370 -0.464207
O5    O     O_3   0.569440 0.593820 0.536390 -0.497673
O6    O     O_2   0.359400 0.311980 0.465480 -0.448583
O7    O     O_3   0.535860 0.275615 0.354058 -0.580312
O8    O     O_2   0.434484 0.471146 0.757484 -0.493028
O9    O     O_3   0.491423 0.325015 0.746923 -0.597034
O10   O     O_3   0.651020 0.589120 0.368830 -0.481410
O11   O     O_2   0.757379 0.535915 0.242649 -0.506790
O12   O     O_3   0.671020 0.705536 0.649655 -0.634952
O13   O     O_3   0.074247 0.327315 0.300463 -0.695402
O14   O     O_3   0.694459 0.682507 0.259666 -0.603586
O15   O     O_2   0.830300 0.688050 0.534560 -0.460501
O16   O     O_3   0.068750 0.630380 0.404830 -0.493851
O17   O     O_2   0.971766 0.770769 0.453721 -0.485899
O18   O     O_2   0.808339 0.181003 0.392503 -0.362325
O19   O     O_2   0.107590 0.206887 0.398616 -0.316117
O20   O     O_3   0.944378 0.323423 0.446876 -0.584273
O21   O     O_2   0.692657 0.186453 0.163311 -0.274952
O22   O     O_2   0.915760 0.115649 0.113768 -0.242814
O23   O     O_3   0.060770 0.754525 0.321589 -0.592888
O24   O     O_3   0.945095 0.266494 0.120034 -0.528692
O25   O     O_2   0.311660 0.551990 0.674910 -0.471413
O26   O     O_3   0.062910 0.546080 0.585630 -0.489763
O27   O     O_3   0.538690 0.410940 0.631180 -0.499187
O28   O     O_3   0.165327 0.676714 0.681926 -0.638512
O29   O     O_3   0.620260 0.406250 0.463620 -0.469053
O30   O     O_3   0.120960 0.369680 0.595180 -0.497201
P1    P     P_3+3 0.048060 0.426210 0.336320 1.028080
P2    P     P_3+3 0.655920 0.678120 0.556130 0.980627
P3    P     P_3+3 0.102535 0.732384 0.407234 0.950151
P4    P     P_3+3 0.141640 0.573850 0.663690 0.972230
P5    P     P_3+3 0.088847 0.269293 0.601491 0.992645
P6    P     P_3+3 0.630702 0.588089 0.277108 0.932652
P7    P     P_3+3 0.542411 0.306973 0.447078 1.093041
P8    P     P_3+3 0.558905 0.416653 0.724190 0.929886
S1    S     S_3+6 0.950048 0.241585 0.387411 -0.121005
S2    S     S_3+6 0.875121 0.189982 0.158987 -0.075107

loop_
_geom_bond_atom_site_label_1
_geom_bond_atom_site_label_2
_ccdc_geom_bond_type
C19   H29   S    
C50   H45   S    
C28   H49   S    
C25   C27   A    
Ba2   O30   S    
C10   P8    S    
Ba1   P1    S    
C17   C18   A    
O26   P4    S    
C27   H31   S    
Ba2   O4    S    
C34   H9    S    
C54   H20   S    
C36   C47   S    
C52   H2    S    
C43   C44   A    
C34   H11   S    
O5    P2    S    
C5    C9    A    
C12   H1    S    
C24   C25   A    
C35   C36   A    
O21   S2    D    
O19   S1    D    
C15   C24   A    
C26   C27   A    
C33   C35   A    
C22   C24   A    
C32   C33   A    
Ba1   O15   S    
C13   P4    S    
C53   H19   S    
O20   S1    S    
Ba2   P4    S    
C13   C14   A    
C9    C22   A    
C40   H12   S    
C12   O14   S    
C54   C55   S    
Ba1   Ba2   S    
Ba1   O5    S    
C30   H32   S    
C6    C7    A    
C39   C44   A    
O17   P3    D    
C20   H30   S    
C53   H18   S    
C7    C8    A    
C5    C56   A    
C15   C56   A    
C53   H17   S    
O24   S2    S    
O29   P7    S    
O16   P3    S    
C28   H48   S    
Ba2   O29   S    
C39   C41   A    
C55   H22   S    
C25   H38   S    
C40   H23   S    
O2    P5    D    
C51   H55   S    
O4    P1    S    
C16   H14   S    
C4    C16   S    
C44   C46   S    
O25   P4    D    
C32   H43   S    
C49   C50   S    
C54   O9    S    
O28   P4    S    
H52   O24   S    
C23   H7    S    
C45   H15   S    
Ba1   O16   S    
C43   H41   S    
C37   C38   A    
C3    C5    A    
C29   P6    S    
Ba2   O6    S    
C37   H40   S    
C52   H4    S    
C50   H53   S    
C51   C52   S    
O7    P7    S    
C33   P2    S    
O8    P8    D    
C1    H13   S    
O30   P5    S    
Ba1   O29   S    
C49   H34   S    
O22   S2    D    
C29   C30   A    
C21   C22   A    
O18   S1    D    
C55   H26   S    
C51   O12   S    
C16   H46   S    
C18   C19   A    
C17   C26   A    
C54   H21   S    
O15   P2    D    
C3    H33   S    
Ba1   O26   S    
C31   P1    S    
O13   P1    S    
C18   C31   A    
C32   C38   A    
C51   H54   S    
O14   P6    S    
C46   C47   T    
C48   H44   S    
C11   C13   A    
C39   H39   S    
Ba2   O25   S    
C11   H27   S    
C41   P7    S    
C42   C43   A    
C45   C53   S    
C42   C48   A    
O10   P6    S    
O9    P8    S    
C49   S1    S    
O6    P7    D    
C14   C20   A    
C4    H25   S    
C38   P3    S    
H51   O20   S    
C55   H24   S    
O23   P3    S    
C26   C29   A    
C23   H8    S    
C45   H16   S    
C1    H56   S    
C3    C6    A    
Ba2   O5    S    
C34   H10   S    
C41   C48   A    
C52   H3    S    
C1    C12   S    
C40   H50   S    
O1    P1    D    
C42   P5    S    
C28   O28   S    
C21   H36   S    
C49   O13   S    
C30   C31   A    
C4    O23   S    
C16   H47   S    
Ba2   O26   S    
C8    C14   A    
C2    C19   A    
C36   C37   A    
C23   O7    S    
C12   H5    S    
C15   C17   A    
C6    H28   S    
Ba1   O4    S    
C1    H6    S    
C7    C10   A    
Ba1   O10   S    
C8    C9    A    
C23   C34   S    
C2    H35   S    
C45   O3    S    
Ba1   P2    S    
C10   C11   A    
C4    H37   S    
C2    C56   A    
O11   P6    D    
Ba2   O27   S    
C20   C21   A    
C28   C40   S    
O3    P5    S    
Ba1   O1    S    
C50   S2    S    
C35   H42   S    
O12   P2    S    
O27   P8    S    
