data_mof_unit_1701.cif
_audit_creation_date              2012-12-11T14:52:24-0500
_audit_creation_method            fapswitch 2.2
_symmetry_space_group_name_H-M    P1
_symmetry_Int_Tables_number       1
_space_group_crystal_system       triclinic
_cell_length_a                    18.745061
_cell_length_b                    11.05783
_cell_length_c                    18.482267
_cell_angle_alpha                 89.839822
_cell_angle_beta                  91.299531
_cell_angle_gamma                 89.590739
_cell_volume                      3829.89890053

loop_
_atom_site_label
_atom_site_type_symbol
_atom_type_description
_atom_site_fract_x
_atom_site_fract_y
_atom_site_fract_z
_atom_type_partial_charge
C1    C     C_R   0.270096 0.047850 0.851422 0.522613
C2    C     C_R   0.676150 0.593259 0.026260 -0.171431
C3    C     C_3   0.998371 0.332798 0.073808 0.053999
C4    C     C_3   0.147198 0.778353 0.547034 -0.235530
C5    C     C_3   0.086510 0.825931 0.499746 -0.463520
C6    C     C_3   0.852748 0.775096 0.452787 -0.235194
C7    C     C_3   0.913429 0.821014 0.500004 -0.463431
C8    C     C_3   0.647198 0.278353 0.547034 -0.235530
C9    C     C_3   0.586510 0.325931 0.499746 -0.463520
C10   C     C_3   0.352748 0.275096 0.452787 -0.235194
C11   C     C_3   0.413429 0.321014 0.500004 -0.463431
C12   C     C_3   0.173090 0.794018 0.095555 -0.250126
C13   C     C_R   0.820643 0.086562 0.972544 -0.165414
C14   C     C_3   0.093297 0.787719 0.076982 -0.425366
C15   C     C_3   0.825820 0.792818 0.903240 -0.246493
C16   C     C_3   0.905477 0.785663 0.922690 -0.427841
C17   C     C_3   0.673090 0.294018 0.095555 -0.250125
C18   C     C_3   0.593297 0.287719 0.076982 -0.425365
C19   C     C_3   0.325820 0.292817 0.903240 -0.246493
C20   C     C_3   0.405477 0.285663 0.922690 -0.427841
C21   C     C_R   0.176150 0.093259 0.026260 -0.171431
C22   C     C_R   0.309833 0.553665 0.044115 -0.173122
C23   C     C_R   0.686493 0.560711 0.954329 -0.166707
C24   C     C_R   0.809833 0.053665 0.044115 -0.173122
C25   C     C_R   0.186493 0.060711 0.954329 -0.166707
C26   C     C_R   0.254605 0.607127 0.082752 0.031905
C27   C     C_R   0.743654 0.609281 0.916384 0.033358
C28   C     C_R   0.754605 0.107127 0.082752 0.031905
C29   C     C_R   0.729644 0.047961 0.148592 0.531897
C30   C     C_R   0.243654 0.109281 0.916384 0.033358
C31   C     C_R   0.216335 0.705950 0.051550 0.013547
C32   C     C_R   0.782276 0.706377 0.947564 0.015872
C33   C     C_R   0.716335 0.205950 0.051550 0.013547
C34   C     C_R   0.282276 0.206377 0.947564 0.015872
C35   C     C_R   0.222785 0.728612 0.977723 -0.123324
C36   C     C_R   0.775742 0.729231 0.021371 -0.119813
C37   C     C_R   0.722785 0.228612 0.977723 -0.123324
C38   C     C_R   0.275742 0.229231 0.021371 -0.119813
C39   C     C_R   0.272224 0.664538 0.937087 -0.004609
C40   C     C_R   0.770096 0.547850 0.851422 0.522613
C41   C     C_R   0.725913 0.667445 0.062181 -0.007232
C42   C     C_R   0.772224 0.164538 0.937087 -0.004609
C43   C     C_R   0.225913 0.167445 0.062181 -0.007232
C44   C     C_R   0.500309 0.721312 0.536563 -0.142240
C45   C     C_R   0.497760 0.721746 0.462852 -0.141979
C46   C     C_R   0.000309 0.221312 0.536563 -0.142240
C47   C     C_R   0.997760 0.221746 0.462852 -0.141980
C48   C     C_R   0.503076 0.830889 0.425082 0.037250
C49   C     C_R   0.496024 0.830299 0.574477 0.035884
C50   C     C_R   0.003076 0.330889 0.425082 0.037250
C51   C     C_R   0.229644 0.547961 0.148592 0.531897
C52   C     C_R   0.996024 0.330299 0.574477 0.035884
C53   C     C_R   0.502319 0.941319 0.462371 -0.129572
C54   C     C_R   0.497308 0.941043 0.537257 -0.130162
C55   C     C_R   0.002319 0.441319 0.462371 -0.129572
C56   C     C_R   0.997308 0.441043 0.537257 -0.130162
C57   C     C_R   0.438514 0.817455 0.862079 0.547553
C58   C     C_R   0.527162 0.822586 0.146544 0.540368
C59   C     C_R   0.938514 0.317456 0.862079 0.547553
C60   C     C_R   0.027162 0.322586 0.146544 0.540368
C61   C     C_R   0.214320 0.729550 0.512284 0.050638
C62   C     C_3   0.501577 0.725248 0.977558 -0.108648
C63   C     C_R   0.785303 0.728796 0.487435 0.051479
C64   C     C_R   0.714321 0.229550 0.512284 0.050638
C65   C     C_R   0.285303 0.228796 0.487435 0.051479
C66   C     C_R   0.218861 0.719927 0.436927 0.137264
C67   C     C_R   0.780445 0.720065 0.562770 0.137620
C68   C     C_R   0.718861 0.219927 0.436927 0.137264
C69   C     C_R   0.280445 0.220065 0.562770 0.137620
C70   C     C_R   0.261660 0.627703 0.408820 0.013007
C71   C     C_R   0.737827 0.628736 0.591238 0.012991
C72   C     C_R   0.761660 0.127703 0.408820 0.013007
C73   C     C_3   0.449798 0.737187 0.040713 -0.123952
C74   C     C_R   0.237827 0.128736 0.591238 0.012991
C75   C     C_R   0.321962 0.590678 0.448617 -0.164176
C76   C     C_R   0.677511 0.593072 0.551615 -0.164234
C77   C     C_R   0.821962 0.090678 0.448617 -0.164176
C78   C     C_R   0.177511 0.093072 0.551615 -0.164234
C79   C     C_R   0.327758 0.620207 0.521637 -0.139995
C80   C     C_R   0.671755 0.622585 0.478459 -0.140740
C81   C     C_R   0.827758 0.120207 0.521637 -0.139995
C82   C     C_R   0.171755 0.122585 0.478459 -0.140740
C83   C     C_R   0.270909 0.677973 0.555850 -0.005245
C84   C     C_3   0.001577 0.225248 0.977558 -0.108648
C85   C     C_R   0.728765 0.678412 0.444010 -0.005230
C86   C     C_R   0.770909 0.177973 0.555850 -0.005245
C87   C     C_R   0.228765 0.178412 0.444010 -0.005230
C88   C     C_R   0.275331 0.687640 0.859283 0.548448
C89   C     C_R   0.724272 0.688153 0.140731 0.568165
C90   C     C_R   0.775331 0.187640 0.859283 0.548448
C91   C     C_R   0.224272 0.188153 0.140731 0.568165
C92   C     C_R   0.267339 0.055902 0.651496 0.541664
C93   C     C_R   0.732607 0.055924 0.348426 0.540341
C94   C     C_R   0.767339 0.555902 0.651496 0.541664
C95   C     C_3   0.949798 0.237187 0.040713 -0.123952
C96   C     C_R   0.232607 0.555924 0.348426 0.540341
C97   C     C_R   0.470610 0.823381 0.647477 0.551747
C98   C     C_R   0.529198 0.823668 0.352376 0.539835
C99   C     C_R   0.970610 0.323381 0.647477 0.551747
C100  C     C_R   0.029198 0.323668 0.352376 0.539835
C101  C     C_R   0.274294 0.691387 0.635531 0.574222
C102  C     C_R   0.725557 0.691204 0.364240 0.573216
C103  C     C_R   0.774294 0.191387 0.635531 0.574222
C104  C     C_R   0.225557 0.191205 0.364240 0.573216
C105  C     C_3   0.457569 0.935474 0.035222 -0.126662
C106  C     C_R   0.320642 0.586562 0.972544 -0.165414
C107  C     C_3   0.508880 0.923578 0.971144 -0.105655
C108  C     C_3   0.957569 0.435474 0.035222 -0.126662
C109  C     C_3   0.008880 0.423578 0.971144 -0.105655
C110  C     C_3   0.408033 0.839292 0.000527 -0.139032
C111  C     C_3   0.550416 0.821989 0.011304 -0.105215
C112  C     C_3   0.908033 0.339293 0.000527 -0.139032
C113  C     C_3   0.050416 0.321989 0.011304 -0.105215
C114  C     C_3   0.460073 0.826490 0.938035 0.052111
C115  C     C_3   0.498370 0.832798 0.073808 0.053999
C116  C     C_3   0.960073 0.326490 0.938035 0.052111
Cr1   Cr    Cr6+3 0.229630 0.835900 0.747350 0.981800
Cr2   Cr    Cr6+3 0.614200 0.677120 0.250660 0.995317
Cr3   Cr    Cr6+3 0.885800 0.177120 0.749340 0.994352
Cr4   Cr    Cr6+3 0.114200 0.177120 0.250660 0.995317
Cr5   Cr    Cr6+3 0.770370 0.835900 0.252650 0.982068
Cr6   Cr    Cr6+3 0.729630 0.335900 0.747350 0.981800
Cr7   Cr    Cr6+3 0.270370 0.335900 0.252650 0.982068
Cr8   Cr    Cr6+3 0.387410 0.989850 0.750850 0.989784
Cr9   Cr    Cr6+3 0.612590 0.989850 0.249150 0.989950
Cr10  Cr    Cr6+3 0.887410 0.489850 0.750850 0.989784
Cr11  Cr    Cr6+3 0.112590 0.489850 0.249150 0.989950
Cr12  Cr    Cr6+3 0.385800 0.677120 0.749340 0.994352
H1    H     H_    0.349505 0.851199 0.994903 0.115601
H2    H     H_    0.625259 0.594738 0.447599 0.140454
H3    H     H_    0.874204 0.090959 0.552600 0.138933
H4    H     H_    0.125259 0.094738 0.447599 0.140454
H5    H     H_    0.439979 0.021037 0.060809 0.121877
H6    H     H_    0.533194 0.999590 0.941295 0.128337
H7    H     H_    0.939979 0.521037 0.060809 0.121877
H8    H     H_    0.033194 0.499590 0.941295 0.128338
H9    H     H_    0.519733 0.638657 0.953617 0.125418
H10   H     H_    0.429075 0.662359 0.073819 0.127624
H11   H     H_    0.019733 0.138657 0.953617 0.125418
H12   H     H_    0.609362 0.818564 0.017309 0.120432
H13   H     H_    0.929075 0.162359 0.073819 0.127624
H14   H     H_    0.365379 0.548009 0.944433 0.134961
H15   H     H_    0.631570 0.555503 0.054638 0.138909
H16   H     H_    0.865379 0.048009 0.944433 0.134961
H17   H     H_    0.131570 0.055503 0.054638 0.138909
H18   H     H_    0.344454 0.486126 0.069047 0.114259
H19   H     H_    0.651668 0.494340 0.929521 0.119013
H20   H     H_    0.844454 0.986126 0.069047 0.114259
H21   H     H_    0.151668 0.994340 0.929521 0.119013
H22   H     H_    0.190537 0.798646 0.952145 0.125992
H23   H     H_    0.849504 0.351199 0.994903 0.115601
H24   H     H_    0.809173 0.796224 0.047068 0.126543
H25   H     H_    0.690537 0.298646 0.952145 0.125992
H26   H     H_    0.309173 0.296223 0.047068 0.126543
H27   H     H_    0.500274 0.634024 0.563370 0.123076
H28   H     H_    0.497375 0.634772 0.435956 0.123346
H29   H     H_    0.000274 0.134024 0.563370 0.123076
H30   H     H_    0.997375 0.134772 0.435956 0.123346
H31   H     H_    0.507206 0.026715 0.434108 0.124686
H32   H     H_    0.493085 0.026312 0.565609 0.124384
H33   H     H_    0.007206 0.526715 0.434108 0.124686
H34   H     H_    0.109362 0.318564 0.017309 0.120432
H35   H     H_    0.993085 0.526312 0.565609 0.124384
H36   H     H_    0.102081 0.903148 0.466246 0.187055
H37   H     H_    0.063894 0.752302 0.465685 0.159050
H38   H     H_    0.046120 0.861316 0.537158 0.113810
H39   H     H_    0.123127 0.703034 0.577878 0.167931
H40   H     H_    0.162248 0.851049 0.584548 0.183435
H41   H     H_    0.897989 0.898747 0.533214 0.186569
H42   H     H_    0.936348 0.746995 0.534236 0.158945
H43   H     H_    0.953539 0.855439 0.462256 0.113086
H44   H     H_    0.876676 0.698814 0.422397 0.166730
H45   H     H_    0.363243 0.537626 0.423921 0.112671
H46   H     H_    0.838114 0.848215 0.414903 0.184368
H47   H     H_    0.602081 0.403148 0.466246 0.187055
H48   H     H_    0.563894 0.252302 0.465685 0.159050
H49   H     H_    0.546120 0.361316 0.537158 0.113810
H50   H     H_    0.623127 0.203034 0.577878 0.167931
H51   H     H_    0.662248 0.351049 0.584548 0.183435
H52   H     H_    0.397989 0.398747 0.533214 0.186569
H53   H     H_    0.436348 0.246995 0.534236 0.158945
H54   H     H_    0.453539 0.355439 0.462256 0.113086
H55   H     H_    0.376676 0.198814 0.422397 0.166730
H56   H     H_    0.636246 0.541029 0.576534 0.114261
H57   H     H_    0.338114 0.348215 0.414903 0.184368
H58   H     H_    0.144115 0.776258 0.360500 0.249988
H59   H     H_    0.226080 0.839213 0.353453 0.238401
H60   H     H_    0.854445 0.776316 0.639303 0.250644
H61   H     H_    0.772212 0.840571 0.645170 0.240168
H62   H     H_    0.644115 0.276258 0.360500 0.249988
H63   H     H_    0.726080 0.339213 0.353453 0.238401
H64   H     H_    0.354445 0.276316 0.639303 0.250644
H65   H     H_    0.272212 0.340571 0.645170 0.240168
H66   H     H_    0.082571 0.815216 0.019925 0.126593
H67   H     H_    0.863243 0.037626 0.423921 0.112671
H68   H     H_    0.073204 0.694561 0.085188 0.182660
H69   H     H_    0.063704 0.850289 0.112578 0.130513
H70   H     H_    0.182193 0.782906 0.154665 0.168578
H71   H     H_    0.193201 0.885386 0.084719 0.144098
H72   H     H_    0.915644 0.814448 0.979462 0.124310
H73   H     H_    0.925868 0.691944 0.915865 0.181777
H74   H     H_    0.935250 0.846773 0.886598 0.131485
H75   H     H_    0.817343 0.781531 0.844131 0.171469
H76   H     H_    0.804924 0.884222 0.912731 0.147992
H77   H     H_    0.582571 0.315216 0.019925 0.126593
H78   H     H_    0.136245 0.041029 0.576534 0.114261
H79   H     H_    0.573204 0.194561 0.085188 0.182660
H80   H     H_    0.563704 0.350289 0.112578 0.130513
H81   H     H_    0.682193 0.282907 0.154665 0.168578
H82   H     H_    0.693201 0.385387 0.084719 0.144098
H83   H     H_    0.415644 0.314448 0.979462 0.124310
H84   H     H_    0.425869 0.191944 0.915865 0.181777
H85   H     H_    0.435250 0.346773 0.886598 0.131485
H86   H     H_    0.317343 0.281531 0.844131 0.171469
H87   H     H_    0.304924 0.384221 0.912731 0.147992
H88   H     H_    0.374204 0.590959 0.552600 0.138933
N1    N     N_3   0.187672 0.810386 0.389736 -0.630920
N2    N     N_3   0.810999 0.810689 0.609434 -0.630253
N3    N     N_3   0.687672 0.310386 0.389736 -0.630920
N4    N     N_3   0.310999 0.310689 0.609434 -0.630253
O1    O     O_R   0.214270 0.709000 0.827470 -0.502444
O2    O     O_R   0.543270 0.717630 0.330160 -0.539405
O3    O     O_R   0.956730 0.217630 0.669840 -0.534932
O4    O     O_R   0.043270 0.217630 0.330160 -0.539405
O5    O     O_R   0.320620 0.625640 0.672920 -0.486280
O6    O     O_R   0.679380 0.625640 0.327080 -0.486298
O7    O     O_R   0.820620 0.125640 0.672920 -0.486280
O8    O     O_R   0.179380 0.125640 0.327080 -0.486298
O9    O     O_3   0.334280 0.834290 0.749180 -0.298662
O10   O     O_3   0.665720 0.834290 0.250820 -0.278323
O11   O     O_3   0.834280 0.334290 0.749180 -0.298662
O12   O     O_R   0.785730 0.709000 0.172530 -0.511718
O13   O     O_3   0.165720 0.334290 0.250820 -0.278323
O14   O     O_R   0.236160 0.958490 0.823130 -0.527653
O15   O     O_R   0.763840 0.958490 0.176870 -0.526322
O16   O     O_R   0.736160 0.458490 0.823130 -0.527653
O17   O     O_R   0.263840 0.458490 0.176870 -0.526322
O18   O     O_R   0.332080 0.075470 0.831280 -0.530220
O19   O     O_R   0.667920 0.075470 0.168720 -0.522948
O20   O     O_R   0.832080 0.575470 0.831280 -0.530220
O21   O     O_R   0.167920 0.575470 0.168720 -0.522948
O22   O     O_R   0.446300 0.918110 0.826620 -0.495507
O23   O     O_R   0.714270 0.209000 0.827470 -0.502444
O24   O     O_R   0.553700 0.918110 0.173380 -0.502031
O25   O     O_R   0.946300 0.418110 0.826620 -0.495507
O26   O     O_R   0.053700 0.418110 0.173380 -0.502031
O27   O     O_R   0.457110 0.716200 0.831760 -0.525580
O28   O     O_R   0.542890 0.716200 0.168240 -0.532882
O29   O     O_R   0.957110 0.216200 0.831760 -0.525580
O30   O     O_R   0.042890 0.216200 0.168240 -0.532882
O31   O     O_R   0.320980 0.624310 0.823030 -0.510048
O32   O     O_R   0.679020 0.624310 0.176970 -0.498786
O33   O     O_R   0.820980 0.124310 0.823030 -0.510048
O34   O     O_R   0.285730 0.209000 0.172530 -0.511718
O35   O     O_R   0.179020 0.124310 0.176970 -0.498786
O36   O     O_R   0.213890 0.710430 0.665540 -0.533709
O37   O     O_R   0.786110 0.710430 0.334460 -0.537129
O38   O     O_R   0.713890 0.210430 0.665540 -0.533709
O39   O     O_R   0.286110 0.210430 0.334460 -0.537129
O40   O     O_R   0.235810 0.959820 0.673020 -0.531630
O41   O     O_R   0.764190 0.959820 0.326980 -0.533258
O42   O     O_R   0.735810 0.459820 0.673020 -0.531630
O43   O     O_R   0.264190 0.459820 0.326980 -0.533258
O44   O     O_R   0.331700 0.076900 0.669350 -0.523389
O45   O     O_R   0.445950 0.919440 0.676520 -0.493517
O46   O     O_R   0.668300 0.076900 0.330650 -0.524450
O47   O     O_R   0.831700 0.576900 0.669350 -0.523389
O48   O     O_R   0.168300 0.576900 0.330650 -0.524450
O49   O     O_R   0.554050 0.919440 0.323480 -0.500511
O50   O     O_R   0.945950 0.419440 0.676520 -0.493517
O51   O     O_R   0.054050 0.419440 0.323480 -0.500511
O52   O     O_R   0.456730 0.717630 0.669840 -0.534932

loop_
_geom_bond_atom_site_label_1
_geom_bond_atom_site_label_2
_ccdc_geom_bond_type
C44   C49   A    
C96   O48   A    
C39   C106  A    
C41   C89   S    
C55   C56   A    
C60   O26   A    
C84   C113  S    
C2    H15   S    
C89   O32   A    
C7    H43   S    
Cr9   O46   S    
Cr2   O2    S    
C69   N4    S    
C6    C7    S    
Cr1   O1    S    
C19   C20   S    
Cr11  O21   S    
C57   O27   A    
Cr10  O20   S    
H62   N3    S    
C15   H76   S    
Cr3   O7    S    
C73   C110  S    
C107  C114  S    
C71   C94   S    
C6    H44   S    
C53   C54   A    
Cr2   O6    S    
C94   O47   A    
C105  C107  S    
C56   H35   S    
C80   C85   A    
C9    H48   S    
C18   H77   S    
C64   C68   A    
C25   H21   S    
C28   C29   S    
C105  C110  S    
Cr4   O30   S    
C62   C114  S    
C66   N1    S    
C17   H81   S    
C95   C112  S    
Cr3   O29   S    
C71   C76   A    
C81   H3    S    
Cr1   O36   S    
Cr2   O28   S    
C20   H83   S    
C75   H45   S    
C73   H10   S    
C100  O4    A    
C2    C41   A    
C103  O7    A    
C15   C16   S    
C46   C52   A    
Cr8   O45   S    
C102  O6    A    
C10   H57   S    
Cr8   O18   S    
C108  C109  S    
C110  H1    S    
C101  O5    A    
C13   H16   S    
C74   C92   S    
C37   C42   A    
C29   O15   A    
Cr7   O34   S    
C14   H68   S    
C109  C116  S    
Cr5   O41   S    
C113  H34   S    
Cr7   O13   S    
Cr10  O25   S    
C61   C66   A    
Cr6   O38   S    
C62   C111  S    
C22   H18   S    
C84   H11   S    
Cr7   O43   S    
C8    C9    S    
Cr5   O15   S    
C10   C65   S    
C11   H53   S    
C59   O29   A    
C62   C73   S    
C104  O8    A    
C35   H22   S    
C23   C27   A    
C24   C28   A    
C1    O14   A    
C67   C71   A    
Cr8   O9    S    
C16   H72   S    
C109  C113  S    
H65   N4    S    
C3    C60   S    
C14   H66   S    
C26   C31   A    
Cr4   O4    S    
Cr5   O12   S    
C21   C43   A    
C90   O23   A    
C63   C85   A    
C109  H8    S    
C60   O30   A    
C10   H55   S    
Cr12  O52   S    
C54   H32   S    
C36   C41   A    
C51   O21   A    
C11   H54   S    
C17   C33   S    
C39   C88   S    
C16   H74   S    
C86   C103  S    
Cr3   O33   S    
C104  O39   A    
C64   C86   A    
C13   C42   A    
C92   O40   A    
C105  C115  S    
C111  H12   S    
C106  H14   S    
C47   C50   A    
C93   O41   A    
C98   O49   A    
C48   C53   A    
C14   H69   S    
H58   N1    S    
C99   O3    A    
Cr11  O13   S    
Cr12  O31   S    
C80   H2    S    
Cr11  O48   S    
C30   C34   A    
C5    H36   S    
C37   H25   S    
C15   C32   S    
C68   N3    S    
C55   H33   S    
C108  H7    S    
C51   O17   A    
Cr9   O10   S    
C61   C83   A    
H63   N3    S    
Cr11  O26   S    
Cr1   O40   S    
C59   C116  S    
C82   H4    S    
C93   O46   A    
C6    H46   S    
Cr7   O39   S    
C22   C106  A    
C46   H29   S    
C23   H19   S    
C4    C61   S    
C33   C37   A    
C108  C112  S    
C13   C24   A    
Cr9   O49   S    
C18   H79   S    
C42   C90   S    
C84   C95   S    
C21   H17   S    
C6    C63   S    
C70   C96   S    
C78   H78   S    
C63   C67   A    
C72   C77   A    
Cr6   O11   S    
C8    H50   S    
Cr4   O13   S    
Cr6   O16   S    
C78   C82   A    
C15   H75   S    
C77   C81   A    
C27   C40   S    
C68   C72   A    
C101  O36   A    
Cr3   O3    S    
C17   C18   S    
C112  H23   S    
C69   C74   A    
C59   O25   A    
C45   H28   S    
C5    H38   S    
C65   C87   A    
C58   O24   A    
C53   H31   S    
C92   O44   A    
C38   H26   S    
C8    C64   S    
C88   O31   A    
C72   C93   S    
C97   O45   A    
C79   H88   S    
C94   O42   A    
C90   O33   A    
C12   C14   S    
C28   C33   A    
C17   H82   S    
C96   O43   A    
C5    H37   S    
C7    H41   S    
C12   C31   S    
C3    C113  S    
C58   C115  S    
C3    C108  S    
C103  O38   A    
C31   C35   A    
Cr10  O47   S    
C76   C80   A    
H64   N4    S    
Cr8   O22   S    
C16   H73   S    
Cr12  O9    S    
C32   C36   A    
C110  C114  S    
C112  C116  S    
C3    C95   S    
C9    H49   S    
C44   C45   A    
C105  H5    S    
H59   N1    S    
C45   C48   A    
C25   C30   A    
Cr4   O8    S    
C21   C25   A    
C46   C47   A    
C12   H70   S    
Cr5   O10   S    
C83   C101  S    
C27   C32   A    
C34   C38   A    
C4    H40   S    
C107  C111  S    
Cr10  O50   S    
C67   N2    S    
C36   H24   S    
H61   N2    S    
C81   C86   A    
C4    C5    S    
C19   C34   S    
Cr9   O19   S    
Cr12  O5    S    
C111  C115  S    
C102  O37   A    
C97   O52   A    
C95   H13   S    
Cr6   O23   S    
C91   O34   A    
H60   N2    S    
C1    O18   A    
C107  H6    S    
C48   C98   S    
C74   C78   A    
C52   C99   S    
C50   C100  S    
C50   C55   A    
C73   C115  S    
C4    H39   S    
C18   H80   S    
C20   H85   S    
C19   H86   S    
C58   O28   A    
Cr10  O11   S    
C77   H67   S    
Cr4   O35   S    
C38   C43   A    
C40   O20   A    
Cr2   O32   S    
C26   C51   S    
C40   O16   A    
C79   C83   A    
Cr9   O24   S    
C8    H51   S    
Cr3   O11   S    
C66   C70   A    
C57   C114  S    
C91   O35   A    
Cr1   O14   S    
Cr2   O10   S    
C65   C69   A    
C35   C39   A    
C98   O2    A    
Cr1   O9    S    
C1    C30   S    
Cr12  O27   S    
C12   H71   S    
C9    H47   S    
C19   H87   S    
C20   H84   S    
C89   O12   A    
C62   H9    S    
C47   H30   S    
C43   C91   S    
C99   O50   A    
C10   C11   S    
C57   O22   A    
C49   C97   S    
C87   C104  S    
C52   C56   A    
C82   C87   A    
Cr6   O42   S    
C70   C75   A    
C84   C116  S    
C22   C26   A    
C7    H42   S    
C2    C23   A    
Cr8   O44   S    
C88   O1    A    
Cr11  O51   S    
C11   H52   S    
C76   H56   S    
C75   C79   A    
C29   O19   A    
C24   H20   S    
C85   C102  S    
C49   C54   A    
Cr5   O37   S    
C44   H27   S    
Cr7   O17   S    
C100  O51   A    
