data_mof_unit_1283.cif
_audit_creation_date              2013-03-05T16:03:01-0500
_audit_creation_method            fapswitch 2.2
_symmetry_space_group_name_H-M    P1
_symmetry_Int_Tables_number       1
_space_group_crystal_system       triclinic
_cell_length_a                    15.03804
_cell_length_b                    14.04093
_cell_length_c                    10.534631
_cell_angle_alpha                 90.81911
_cell_angle_beta                  88.106667
_cell_angle_gamma                 89.724172
_cell_volume                      2222.89433495

loop_
_atom_site_label
_atom_site_type_symbol
_atom_site_description
_atom_site_fract_x
_atom_site_fract_y
_atom_site_fract_z
_atom_type_partial_charge
O1    O     O_R   0.367850 0.580280 0.500030 -0.613369
O2    O     O_R   0.632150 0.419720 0.499970 -0.566783
O3    O     O_R   0.632150 0.580280 0.499970 -0.632584
O4    O     O_R   0.367850 0.419720 0.500030 -0.592964
C1    C     C_R   0.326963 0.500375 0.502127 1.017465
C2    C     C_R   0.673232 0.499659 0.491439 0.991063
O5    O     O_R   0.499970 0.580260 0.313950 -0.628439
O6    O     O_R   0.500030 0.419740 0.686050 -0.613690
O7    O     O_R   0.500030 0.580260 0.686050 -0.627170
O8    O     O_R   0.499970 0.419740 0.313950 -0.622049
C3    C     C_R   0.501792 0.499614 0.257198 0.921324
C4    C     C_R   0.499700 0.500373 0.743080 0.959521
Zn1   Zn    Zn3+2 0.500000 0.607200 0.500000 1.001938
Zn2   Zn    Zn3+2 0.500000 0.392800 0.500000 1.024135
C5    C     C_3   0.427079 0.539920 0.048104 -0.154406
C6    C     C_3   0.577990 0.459988 0.952648 -0.183210
C7    C     C_3   0.496274 0.590109 0.961644 -0.089053
C8    C     C_3   0.508694 0.409543 0.039344 -0.168753
C9    C     C_3   0.431966 0.449875 0.962840 -0.046644
C10   C     C_3   0.572840 0.549962 0.038845 -0.085072
H1    H     H_    0.374450 0.405652 0.938111 0.238825
H2    H     H_    0.628522 0.593392 0.073900 0.220897
H3    H     H_    0.366555 0.575433 0.088866 0.181755
H4    H     H_    0.639378 0.426696 0.910418 0.184050
H5    H     H_    0.491360 0.663392 0.925839 0.238214
H6    H     H_    0.513322 0.335469 0.074159 0.195960
C11   C     C_3   0.501076 0.500318 0.878273 -0.041000
C12   C     C_3   0.503410 0.499390 0.122467 -0.039742
C13   C     C_R   0.819244 0.480692 0.378078 0.343121
C14   C     C_R   0.182003 0.518588 0.613152 0.297015
C15   C     C_R   0.769173 0.500281 0.491884 -0.196364
C16   C     C_R   0.231442 0.502149 0.498934 -0.186127
C17   C     C_R   0.810353 0.530331 0.604441 0.077334
C18   C     C_R   0.190849 0.494625 0.380761 0.071084
C19   C     C_R   0.903419 0.539549 0.603159 0.117515
C20   C     C_R   0.097970 0.502408 0.377741 0.120835
C21   C     C_R   0.953781 0.520127 0.490017 0.002358
C22   C     C_R   0.047555 0.520438 0.491467 0.010129
C23   C     C_R   0.911248 0.497691 0.376022 -0.013451
C24   C     C_R   0.090289 0.535754 0.607382 -0.010868
C25   C     C_R   0.947816 0.569023 0.712218 -0.186755
C26   C     C_R   0.054037 0.493661 0.262996 -0.190303
C27   C     C_R   0.039751 0.568154 0.713588 -0.084373
C28   C     C_R   0.962561 0.492328 0.262131 -0.074604
H7    H     H_    0.912563 0.592025 0.798461 0.176416
H8    H     H_    0.089199 0.485625 0.172260 0.191525
H9    H     H_    0.070253 0.594868 0.798153 0.216592
H10   H     H_    0.933581 0.486366 0.170082 0.223176
C29   C     C_R   0.543169 0.796561 0.404139 0.070535
C30   C     C_R   0.452464 0.203245 0.591538 0.072965
C31   C     C_R   0.456765 0.799306 0.595719 0.064529
C32   C     C_R   0.545680 0.200711 0.406528 0.076293
N1    N     N_R   0.500000 0.750030 0.500000 -0.147822
N2    N     N_R   0.500000 0.249970 0.500000 -0.146353
C33   C     C_R   0.456528 0.900353 0.599859 -0.136945
C34   C     C_R   0.548336 0.099665 0.403771 -0.138099
C35   C     C_R   0.542072 0.897432 0.398178 -0.136058
C36   C     C_R   0.449432 0.102323 0.593063 -0.133515
C37   C     C_R   0.499147 0.949475 0.498751 -0.018052
C38   C     C_R   0.499101 0.050420 0.498604 -0.017302
C39   C     C_R   0.413645 0.953057 0.700562 0.331808
C40   C     C_R   0.596894 0.047156 0.307724 0.331234
C41   C     C_R   0.583804 0.947042 0.296078 0.333737
C42   C     C_R   0.399760 0.052448 0.687501 0.350544
H11   H     H_    0.579908 0.753805 0.334300 0.194464
H12   H     H_    0.418572 0.245816 0.664403 0.205628
H13   H     H_    0.421123 0.758692 0.667055 0.203569
H14   H     H_    0.577596 0.241312 0.332427 0.203957
S1    S     S_3+6 0.771269 0.430795 0.238553 0.013305
O9    O     O_2   0.766226 0.507243 0.140790 -0.365721
O10   O     O_2   0.830724 0.351924 0.186819 -0.249969
O11   O     O_3   0.670300 0.384443 0.262611 -0.547846
H15   H     H_    0.658384 0.349419 0.182806 0.394508
S2    S     S_3+6 0.234946 0.501656 0.760626 -0.006758
O12   O     O_2   0.289419 0.587927 0.791137 -0.276977
O13   O     O_2   0.171073 0.482536 0.869983 -0.324837
O14   O     O_3   0.302270 0.406540 0.742879 -0.583191
H16   H     H_    0.261420 0.351852 0.735877 0.404436
C43   C     C_3   0.756457 0.548707 0.727513 -0.823274
H17   H     H_    0.781871 0.503095 0.803718 0.251981
H18   H     H_    0.761782 0.624814 0.756162 0.253280
H19   H     H_    0.684977 0.532237 0.721883 0.215077
C44   C     C_3   0.245081 0.475132 0.258629 -0.834980
H20   H     H_    0.317432 0.468904 0.271315 0.214002
H21   H     H_    0.223735 0.406897 0.214922 0.264923
H22   H     H_    0.234523 0.534017 0.191600 0.247061
S3    S     S_3+6 0.392512 0.897858 0.849607 0.089533
O15   O     O_2   0.307402 0.842389 0.845329 -0.238427
O16   O     O_2   0.467990 0.831102 0.874399 -0.330168
O17   O     O_3   0.385949 0.978242 0.969538 -0.435593
H23   H     H_    0.380403 0.940025 0.047690 0.397296
S4    S     S_3+6 0.681167 0.105110 0.214021 0.083670
O18   O     O_2   0.638287 0.156832 0.107877 -0.290613
O19   O     O_2   0.729086 0.175682 0.295446 -0.260493
O20   O     O_3   0.757306 0.027550 0.153224 -0.450237
H24   H     H_    0.796153 0.065731 0.095994 0.396833
S5    S     S_3+6 0.607603 0.885732 0.148975 0.073499
O21   O     O_2   0.696364 0.836624 0.155164 -0.267950
O22   O     O_2   0.537249 0.812300 0.126138 -0.317697
O23   O     O_3   0.608849 0.960985 0.026132 -0.432858
H25   H     H_    0.630021 0.922178 0.951802 0.396111
S6    S     S_3+6 0.311467 0.111713 0.774408 0.068878
O24   O     O_2   0.349484 0.171378 0.878907 -0.279911
O25   O     O_2   0.262855 0.175103 0.685912 -0.333327
O26   O     O_3   0.237513 0.034447 0.836670 -0.446568
H26   H     H_    0.195013 0.074222 0.888299 0.393409

loop_
_geom_bond_atom_site_label_1
_geom_bond_atom_site_label_2
_geom_bond_distance
_ccdc_geom_bond_type
C14   C16   1.408940 A    
S3    O15   1.503041 D    
C33   C37   1.414612 A    
S1    O11   1.667958 S    
C20   C26   1.400735 A    
O20   H24   0.990529 S    
C8    H6    1.110400 S    
O3    C2    1.287578 A    
S5    O21   1.503181 D    
O17   H23   0.990577 S    
O14   H16   0.989114 S    
C42   S6    1.783493 S    
C30   N2    1.359563 A    
C29   H11   1.079002 S    
O1    C1    1.282083 A    
C19   C21   1.413387 A    
C14   S2    1.787308 S    
C35   C37   1.414679 A    
C36   C38   1.415657 A    
C7    C10   1.540661 S    
C29   C35   1.418657 A    
S6    O26   1.681599 S    
C8    C9    1.539401 S    
C26   H8    1.081192 S    
S1    O10   1.504591 D    
O7    Zn1   2.001453 S    
S4    O18   1.503302 D    
C39   S3    1.780793 S    
C5    C9    1.540450 S    
C24   C27   1.400815 A    
S2    O14   1.676560 S    
C40   S4    1.786857 S    
C15   C17   1.415718 A    
C9    C11   1.529498 S    
C13   S1    1.793678 S    
O3    Zn1   2.021104 S    
O6    C4    1.273996 A    
C1    C16   1.438060 S    
C6    C11   1.529257 S    
C5    H3    1.106854 S    
C2    C15   1.442992 S    
C37   C38   1.417391 A    
C6    H4    1.109684 S    
C13   C15   1.417354 A    
C25   C27   1.383064 A    
O2    C2    1.286641 A    
C26   C28   1.376162 A    
C19   C25   1.405968 A    
S5    O22   1.503508 D    
C32   N2    1.360555 A    
C35   C41   1.420198 A    
Zn1   N1    2.005466 S    
C36   C42   1.419150 A    
S2    O12   1.502489 D    
C4    C11   1.425052 S    
S6    O24   1.503462 D    
C7    C11   1.526230 S    
C8    C12   1.525598 S    
O8    Zn2   2.001453 S    
C43   H18   1.110247 S    
C17   C43   1.524271 S    
C10   C12   1.527947 S    
S4    O20   1.681292 S    
C34   C38   1.414268 A    
C31   N1    1.360378 A    
C16   C18   1.407364 A    
C39   C42   1.419384 A    
O5    C3    1.272651 A    
C21   C22   1.410786 A    
C44   H20   1.103784 S    
O5    Zn1   1.990835 S    
C6    C10   1.545365 S    
C13   C23   1.404646 A    
C40   C41   1.424462 A    
S4    O19   1.503443 D    
C30   C36   1.418296 A    
C14   C24   1.402404 A    
C31   H13   1.079717 S    
S6    O25   1.502732 D    
C30   H12   1.079049 S    
S2    O13   1.503352 D    
Zn2   N2    2.005467 S    
C10   H2    1.108291 S    
S3    O16   1.500477 D    
C34   C40   1.423107 A    
O1    Zn1   2.024683 S    
C18   C44   1.521138 S    
S5    O23   1.682011 S    
C5    C7    1.540051 S    
O6    Zn2   1.990834 S    
C44   H21   1.110442 S    
C41   S5    1.786867 S    
O11   H15   0.989813 S    
C32   H14   1.074860 S    
C43   H19   1.103940 S    
C23   C28   1.405822 A    
O26   H26   0.990503 S    
C7    H5    1.103942 S    
C20   C22   1.415523 A    
C21   C23   1.411517 A    
C22   C24   1.412811 A    
C5    C12   1.523483 S    
C3    C12   1.418702 S    
C29   N1    1.359311 A    
C33   C39   1.420099 A    
O23   H25   0.990484 S    
C17   C19   1.405760 A    
C18   C20   1.401897 A    
C31   C33   1.418819 A    
O4    Zn2   2.021106 S    
S1    O9    1.501535 D    
O2    Zn2   2.024681 S    
O7    C4    1.279952 A    
O8    C3    1.278421 A    
C43   H17   1.110533 S    
C28   H10   1.078513 S    
O4    C1    1.285583 A    
C44   H22   1.109173 S    
C6    C8    1.544173 S    
S3    O17   1.682205 S    
C25   H7    1.081165 S    
C27   H9    1.078799 S    
C32   C34   1.419016 A    
C9    H1    1.103162 S    
