data_mof_unit_709.cif
_audit_creation_date              2012-12-10T16:46:42-0500
_audit_creation_method            fapswitch 2.2
_symmetry_space_group_name_H-M    P1
_symmetry_Int_Tables_number       1
_space_group_crystal_system       triclinic
_cell_length_a                    15.861953
_cell_length_b                    8.698085
_cell_length_c                    7.487673
_cell_angle_alpha                 102.785627
_cell_angle_beta                  94.458681
_cell_angle_gamma                 92.746514
_cell_volume                      1002.14450423

loop_
_atom_site_label
_atom_site_type_symbol
_atom_type_description
_atom_site_fract_x
_atom_site_fract_y
_atom_site_fract_z
_atom_type_partial_charge
C1    C     C_R   0.498116 0.200056 0.453976 0.902319
C2    C     C_3   0.953961 0.489844 0.701638 0.342310
C3    C     C_3   0.916921 0.499064 0.505633 0.125050
C4    C     C_3   0.954769 0.653906 0.462414 -0.371622
C5    C     C_3   0.052802 0.657184 0.471979 -0.511724
C6    C     C_1   0.824552 0.499365 0.496799 -0.029540
C7    C     C_1   0.175850 0.498745 0.510441 0.013582
C8    C     C_1   0.251194 0.498837 0.507022 -0.181948
C9    C     C_2   0.492672 0.032303 0.432715 -0.474585
C10   C     C_2   0.520879 0.969112 0.571420 0.315200
C11   C     C_R   0.340498 0.499278 0.502014 0.798606
C12   C     C_R   0.507100 0.800279 0.546665 0.748800
C13   C     C_R   0.659533 0.500280 0.498028 0.819071
C14   C     C_3   0.051897 0.475254 0.699419 0.345405
C15   C     C_3   0.039378 0.367526 0.346323 0.320275
C16   C     C_3   0.942572 0.352237 0.364213 -0.570868
C17   C     C_1   0.748941 0.499662 0.494329 -0.182916
C18   C     C_3   0.083863 0.499216 0.511285 0.054354
Cu1   Cu    Cu3+1 0.509300 0.517380 0.684380 1.010854
Cu2   Cu    Cu3+1 0.490700 0.482620 0.315620 0.952921
H1    H     H_    0.926218 0.378108 0.731456 0.020923
H2    H     H_    0.929458 0.663963 0.323823 0.170571
H3    H     H_    0.459360 0.961379 0.306719 0.125818
H4    H     H_    0.559382 0.633667 0.051524 0.173760
H5    H     H_    0.059035 0.350140 0.698619 0.050655
H6    H     H_    0.043916 0.415797 0.221105 0.172029
H7    H     H_    0.923524 0.242906 0.407991 0.180407
H8    H     H_    0.907426 0.342605 0.227503 0.180381
H9    H     H_    0.080978 0.763336 0.572251 0.175756
H10   H     H_    0.073613 0.674168 0.338546 0.191030
H11   H     H_    0.935465 0.759164 0.560784 0.212656
N1    N     N_2   0.476670 0.456430 0.038530 0.092025
N2    N     N_2   0.523330 0.543570 0.961470 -0.142796
O1    O     O_R   0.506050 0.286130 0.619770 -0.464822
O2    O     O_R   0.490330 0.256780 0.308370 -0.623233
O3    O     O_R   0.387300 0.514690 0.655770 -0.547229
O4    O     O_R   0.371580 0.485340 0.344370 -0.606002
O5    O     O_R   0.509670 0.743220 0.691630 -0.602177
O6    O     O_R   0.493950 0.713870 0.380230 -0.620239
O7    O     O_R   0.628420 0.514660 0.655630 -0.577005
O8    O     O_R   0.612700 0.485310 0.344230 -0.598352
O9    O     O_3   0.100317 0.549556 0.867986 -0.575971
C19   C     C_3   0.120885 0.712736 0.892479 -0.219568
H12   H     H_    0.065647 0.780253 0.866345 0.207789
H13   H     H_    0.173512 0.734532 0.810200 0.140224
H14   H     H_    0.144638 0.759905 0.038643 0.161759
O10   O     O_3   0.935655 0.626582 0.832459 -0.565285
C20   C     C_3   0.874598 0.590135 0.946492 -0.307278
H15   H     H_    0.860601 0.700846 0.042121 0.182357
H16   H     H_    0.899269 0.507743 0.028423 0.154006
H17   H     H_    0.814213 0.538471 0.865970 0.175916
O11   O     O_3   0.576200 0.058090 0.715613 -0.574834
C21   C     C_3   0.550187 0.048593 0.889198 -0.139320
H18   H     H_    0.582220 0.953592 0.939652 0.142475
H19   H     H_    0.480102 0.031665 0.889709 0.149892
H20   H     H_    0.571277 0.161050 0.988479 0.206450
O12   O     O_3   0.435326 0.332454 0.918300 -0.459736
C22   C     C_3   0.355325 0.305323 0.976996 -0.104407
H21   H     H_    0.321536 0.415969 0.009537 0.170478
H22   H     H_    0.360146 0.245220 0.092901 0.160091
H23   H     H_    0.316372 0.223771 0.862056 0.104462
O13   O     O_3   0.078181 0.221376 0.294346 -0.566752
C23   C     C_3   0.087889 0.134465 0.431786 -0.315278
H24   H     H_    0.028918 0.118795 0.497766 0.141099
H25   H     H_    0.141949 0.186247 0.533867 0.161783
H26   H     H_    0.104496 0.013943 0.365610 0.179943

loop_
_geom_bond_atom_site_label_1
_geom_bond_atom_site_label_2
_ccdc_geom_bond_type
C16   H8    S    
C15   C18   S    
C19   H12   S    
C23   H25   S    
O13   C23   S    
Cu1   O5    S    
C2    O10   S    
C4    H2    S    
C9    C10   D    
C14   C18   S    
Cu1   Cu2   S    
C13   C17   S    
C14   O9    S    
C3    C6    S    
C10   O11   S    
N1    N2    D    
C7    C18   S    
C16   H7    S    
C20   H16   S    
C2    C3    S    
C23   H26   S    
C7    C8    T    
C21   H18   S    
Cu2   O4    S    
C19   H13   S    
O12   C22   S    
C2    H1    S    
C10   C12   S    
N1    O12   S    
C22   H23   S    
C8    C11   S    
C13   O8    A    
C11   O3    A    
C15   O13   S    
Cu2   N1    S    
C1    O1    A    
Cu2   O8    S    
C5    H9    S    
Cu1   O3    S    
C21   H19   S    
C14   H5    S    
C12   O5    A    
C2    C14   S    
C19   H14   S    
C4    H11   S    
Cu1   O7    S    
C3    C16   S    
C12   O6    A    
C22   H22   S    
C15   C16   S    
C6    C17   T    
O10   C20   S    
C4    C5    S    
C1    C9    S    
O11   C21   S    
C1    O2    A    
C5    H10   S    
O9    C19   S    
C21   H20   S    
C11   O4    A    
Cu2   O6    S    
C20   H15   S    
C13   O7    A    
C5    C18   S    
C22   H21   S    
Cu2   O2    S    
C20   H17   S    
C9    H3    S    
C3    C4    S    
H4    N2    S    
Cu1   N2    S    
C23   H24   S    
C15   H6    S    
Cu1   O1    S    
