data_mof_unit_2710.cif
_audit_creation_date              2012-12-10T17:57:24-0500
_audit_creation_method            fapswitch 2.2
_symmetry_space_group_name_H-M    P1
_symmetry_Int_Tables_number       1
_space_group_crystal_system       triclinic
_cell_length_a                    9.513412
_cell_length_b                    10.804605
_cell_length_c                    13.439732
_cell_angle_alpha                 89.583351
_cell_angle_beta                  73.739623
_cell_angle_gamma                 89.978715
_cell_volume                      1326.15572495

loop_
_atom_site_label
_atom_site_type_symbol
_atom_type_description
_atom_site_fract_x
_atom_site_fract_y
_atom_site_fract_z
_atom_type_partial_charge
C1    C     C_R   0.499933 0.737738 0.500231 0.769706
C2    C     C_R   0.440193 0.531858 0.977736 0.077222
C3    C     C_R   0.475333 0.553731 0.869898 0.055049
C4    C     C_R   0.542150 0.566130 0.031834 0.013759
C5    C     C_R   0.686817 0.598128 0.976287 0.099485
C6    C     C_R   0.713995 0.638032 0.872574 0.136945
C7    C     C_R   0.605183 0.620088 0.821960 -0.224207
C8    C     C_R   0.504537 0.570853 0.140326 0.105327
C9    C     C_R   0.762148 0.553025 0.131239 -0.209916
C10   C     C_R   0.380188 0.507967 0.813679 -0.133315
C11   C     C_R   0.630702 0.933363 0.446634 -0.156958
C12   C     C_R   0.423127 0.505678 0.699758 0.800900
C13   C     C_R   0.633432 0.062213 0.439949 0.000637
C14   C     C_R   0.504361 0.128081 0.489961 -0.113482
C15   C     C_R   0.374727 0.064415 0.538842 -0.160041
C16   C     C_R   0.372825 0.936553 0.541483 -0.175441
C17   C     C_R   0.501273 0.871243 0.496997 -0.069355
C18   C     C_R   0.942206 0.596799 0.457974 -0.031861
C19   C     C_R   0.090563 0.597128 0.458680 -0.053236
C20   C     C_R   0.058030 0.402776 0.541364 -0.014299
C21   C     C_R   0.909201 0.402906 0.541523 -0.021669
C22   C     C_R   0.501964 0.262241 0.495437 0.784855
C23   C     C_R   0.576232 0.512135 0.300827 0.798153
C24   C     C_R   0.797371 0.590059 0.027310 -0.147574
C25   C     C_R   0.614908 0.542921 0.189404 -0.068198
C26   C     C_R   0.248665 0.449138 0.866504 -0.182539
C27   C     C_R   0.213024 0.428530 0.973283 0.048872
C28   C     C_R   0.310361 0.466749 0.027623 -0.288159
Cu1   Cu    Cu3+1 0.359340 0.499980 0.500000 0.935489
Cu2   Cu    Cu3+1 0.640660 0.500020 0.500000 0.936862
H1    H     H_    0.849524 0.538970 0.167278 0.153068
H2    H     H_    0.275156 0.113705 0.576862 0.149093
H3    H     H_    0.272003 0.888756 0.580233 0.147801
H4    H     H_    0.900095 0.674253 0.423798 0.132293
H5    H     H_    0.158947 0.675369 0.426020 0.142418
H6    H     H_    0.100130 0.325427 0.575649 0.128657
H7    H     H_    0.839965 0.325607 0.575855 0.140198
H8    H     H_    0.911401 0.605120 0.986514 0.156137
H9    H     H_    0.177625 0.412516 0.823348 0.180060
H10   H     H_    0.285972 0.441483 0.108746 0.134249
H11   H     H_    0.624948 0.657470 0.744487 0.173829
H12   H     H_    0.727935 0.880749 0.409084 0.172715
N1    N     N_R   0.147940 0.499970 0.499970 -0.160463
N2    N     N_R   0.852060 0.500060 0.499990 -0.166117
O1    O     O_R   0.381250 0.680340 0.500010 -0.592368
O2    O     O_R   0.618820 0.680370 0.500010 -0.595921
O3    O     O_R   0.323240 0.499950 0.650980 -0.582716
O4    O     O_R   0.560810 0.499980 0.650980 -0.573368
O5    O     O_R   0.381180 0.319630 0.499990 -0.576454
O6    O     O_R   0.618750 0.319660 0.499990 -0.596876
O7    O     O_R   0.439190 0.500020 0.349020 -0.573059
O8    O     O_R   0.676760 0.500050 0.349020 -0.590639
C29   C     C_2   0.768277 0.124255 0.375630 0.347758
H13   H     H_    0.764172 0.217368 0.346031 0.098322
O9    O     O_2   0.886007 0.070784 0.353020 -0.558831
C30   C     C_3   0.852220 0.706837 0.816068 -0.442398
C31   C     C_3   0.964189 0.619009 0.749575 -0.764393
H14   H     H_    0.990631 0.543961 0.798047 0.254653
H15   H     H_    0.918895 0.577841 0.689949 0.260608
H16   H     H_    0.065998 0.670375 0.710458 0.245903
H17   H     H_    0.826106 0.780107 0.765487 0.206951
H18   H     H_    0.900697 0.755637 0.871010 0.203255
C32   C     C_3   0.363251 0.638451 0.196028 -0.412842
C33   C     C_3   0.395570 0.760969 0.241574 -0.781126
H19   H     H_    0.291400 0.809381 0.278909 0.237653
H20   H     H_    0.455565 0.745923 0.300209 0.246625
H21   H     H_    0.462753 0.821521 0.179033 0.250911
H22   H     H_    0.299665 0.664267 0.141210 0.204780
H23   H     H_    0.288470 0.579439 0.255279 0.220824
C34   C     C_2   0.077674 0.361692 0.028651 0.336410
H24   H     H_    0.052765 0.345508 0.111589 0.075600
O10   O     O_2   0.992192 0.324185 0.982727 -0.546211

loop_
_geom_bond_atom_site_label_1
_geom_bond_atom_site_label_2
_ccdc_geom_bond_type
C15   C16   A    
C2    C4    A    
C9    C24   A    
C6    C7    A    
C18   N2    A    
C16   H3    S    
C21   N2    A    
C11   C13   A    
C4    C8    A    
C1    C17   S    
C22   O6    A    
C12   O4    A    
Cu2   N2    S    
C33   H19   S    
C14   C22   S    
C7    H11   S    
C2    C3    A    
C31   H14   S    
C9    C25   A    
C15   H2    S    
C30   H17   S    
C3    C10   A    
Cu1   O5    S    
C29   H13   S    
Cu1   N1    S    
C2    C28   A    
C8    C25   A    
C18   H4    S    
C1    O1    A    
C23   O8    A    
C34   H24   S    
C27   C34   S    
C10   C12   S    
Cu1   O3    S    
C12   O3    A    
Cu2   O8    S    
Cu2   O4    S    
C19   N1    A    
C3    C7    A    
C13   C29   S    
C29   O9    D    
C26   C27   A    
C5    C6    A    
C1    O2    A    
C30   H18   S    
C26   H9    S    
C31   H15   S    
Cu1   O1    S    
C34   O10   D    
C30   C31   S    
C9    H1    S    
C8    C32   S    
Cu1   Cu2   S    
C24   H8    S    
C20   H6    S    
C33   H21   S    
C32   H23   S    
C4    C5    A    
C20   N1    A    
C21   H7    S    
C20   C21   A    
C11   H12   S    
C18   C19   A    
Cu1   O7    S    
C22   O5    A    
C27   C28   A    
C28   H10   S    
C32   H22   S    
C5    C24   A    
C31   H16   S    
C19   H5    S    
C13   C14   A    
Cu2   O6    S    
C23   C25   S    
C14   C15   A    
C23   O7    A    
Cu2   O2    S    
C10   C26   A    
C11   C17   A    
C32   C33   S    
C6    C30   S    
C16   C17   A    
C33   H20   S    
