data_mof_unit_826.cif
_audit_creation_date              2012-12-10T16:49:26-0500
_audit_creation_method            fapswitch 2.2
_symmetry_space_group_name_H-M    P1
_symmetry_Int_Tables_number       1
_space_group_crystal_system       triclinic
_cell_length_a                    7.76435
_cell_length_b                    8.621704
_cell_length_c                    12.920924
_cell_angle_alpha                 89.396047
_cell_angle_beta                  89.400827
_cell_angle_gamma                 93.48203
_cell_volume                      863.253437738

loop_
_atom_site_label
_atom_site_type_symbol
_atom_type_description
_atom_site_fract_x
_atom_site_fract_y
_atom_site_fract_z
_atom_type_partial_charge
C1    C     C_R   0.455039 0.205581 0.498903 0.873137
C2    C     C_R   0.544961 0.794419 0.501097 0.873135
C3    C     C_R   0.467431 0.493675 0.699566 0.933237
C4    C     C_R   0.532569 0.506327 0.300433 0.933234
C5    C     C_R   0.548341 0.521171 0.189544 -0.251908
C6    C     C_R   0.451660 0.478828 0.810457 -0.251924
C7    C     C_R   0.271183 0.450780 0.961858 0.580005
C8    C     C_R   0.728820 0.549207 0.038143 0.579995
C9    C     C_R   0.287858 0.461146 0.855613 -0.213630
C10   C     C_R   0.712145 0.538845 0.144388 -0.213647
C11   C     C_R   0.600151 0.477311 0.872349 0.353035
C12   C     C_R   0.399851 0.522689 0.127651 0.353018
C13   C     C_R   0.583424 0.507464 0.977057 -0.166301
C14   C     C_R   0.416578 0.492533 0.022943 -0.166311
C15   C     C_2   0.432681 0.042734 0.512656 0.203635
C16   C     C_2   0.567319 0.957266 0.487344 0.203636
H1    H     H_    0.825827 0.556543 0.191666 0.231868
H2    H     H_    0.174178 0.443441 0.808333 0.231865
H3    H     H_    0.997745 0.616221 0.421582 0.211601
H4    H     H_    0.002255 0.383779 0.578418 0.211602
N1    N     N_2   0.054030 0.541640 0.471970 -0.142236
N2    N     N_2   0.945970 0.458360 0.528030 -0.142236
O1    O     O_R   0.609680 0.261530 0.506880 -0.552133
O2    O     O_R   0.390320 0.738470 0.493120 -0.552134
O3    O     O_R   0.323330 0.288220 0.488910 -0.649367
O4    O     O_R   0.676670 0.711780 0.511090 -0.649367
O5    O     O_R   0.619510 0.488830 0.661140 -0.563519
O6    O     O_R   0.380490 0.511170 0.338860 -0.563516
O7    O     O_R   0.333160 0.515520 0.643180 -0.630373
O8    O     O_R   0.666840 0.484480 0.356820 -0.630372
Zn1   Zn    Zn3+2 0.691200 0.482180 0.511990 1.034699
Zn2   Zn    Zn3+2 0.308800 0.517820 0.488010 1.034698
Cl1   Cl    Cl    0.203566 0.596407 0.172931 -0.561360
Cl2   Cl    Cl    0.796436 0.403590 0.827067 -0.561342
O9    O     O_3   0.116244 0.389862 0.002183 -0.641877
H5    H     H_    0.139530 0.335231 0.067963 0.354429
O10   O     O_3   0.883765 0.610109 0.997817 -0.641876
H6    H     H_    0.860485 0.664771 0.932047 0.354423
O11   O     O_3   0.284611 0.977870 0.561650 -0.753093
H7    H     H_    0.208168 0.060931 0.581410 0.350181
O12   O     O_3   0.715389 0.022130 0.438350 -0.753093
H8    H     H_    0.791832 0.939069 0.418590 0.350181

loop_
_geom_bond_atom_site_label_1
_geom_bond_atom_site_label_2
_ccdc_geom_bond_type
O2    Zn2   S    
O10   H6    S    
C1    C15   S    
C2    C16   S    
O12   H8    S    
O9    H5    S    
C11   Cl2   S    
C3    C6    S    
O3    Zn2   S    
C3    O5    A    
C5    C10   A    
C2    O4    A    
N1    N2    D    
C1    O3    A    
C11   C13   A    
C15   O11   S    
C8    C13   A    
C7    O9    S    
C6    C9    A    
H3    N1    S    
C12   C14   A    
C1    O1    A    
O7    Zn2   S    
C6    C11   A    
C2    O2    A    
O8    Zn1   S    
N1    Zn2   S    
N2    Zn1   S    
C10   H1    S    
O5    Zn1   S    
C15   C16   D    
C7    C9    A    
C9    H2    S    
O6    Zn2   S    
C5    C12   A    
C8    C10   A    
C8    O10   S    
O11   H7    S    
C3    O7    A    
C4    O6    A    
C12   Cl1   S    
C13   C14   A    
O4    Zn1   S    
C16   O12   S    
C7    C14   A    
C4    O8    A    
H4    N2    S    
C4    C5    S    
O1    Zn1   S    
