data_mof_unit_4149.cif
_audit_creation_date              2012-12-11T15:52:12-0500
_audit_creation_method            fapswitch 2.2
_symmetry_space_group_name_H-M    P1
_symmetry_Int_Tables_number       1
_space_group_crystal_system       triclinic
_cell_length_a                    10.980476
_cell_length_b                    10.970998
_cell_length_c                    18.786581
_cell_angle_alpha                 89.885733
_cell_angle_beta                  90.190299
_cell_angle_gamma                 119.748221
_cell_volume                      1964.8957694

loop_
_atom_site_label
_atom_site_type_symbol
_atom_type_description
_atom_site_fract_x
_atom_site_fract_y
_atom_site_fract_z
_atom_type_partial_charge
C1    C     C_R   0.519918 0.458208 0.147411 0.536001
C2    C     C_R   0.541168 0.061123 0.147661 0.534565
C3    C     C_R   0.939035 0.480220 0.147657 0.531588
C4    C     C_R   0.452007 0.522955 0.855319 0.554328
C5    C     C_R   0.072449 0.548688 0.855763 0.560785
C6    C     C_R   0.479787 0.934659 0.853684 0.552871
C7    C     C_3   0.736750 0.995734 0.543436 -0.127708
C8    C     C_3   0.992435 0.734379 0.538599 -0.137715
C9    C     C_3   0.477584 0.317072 0.572589 -0.132003
C10   C     C_3   0.940891 0.698240 0.462210 -0.122516
C11   C     C_3   0.759523 0.031494 0.464545 -0.121236
C12   C     C_3   0.475319 0.283976 0.494190 -0.143472
C13   C     C_R   0.516552 0.460722 0.351943 0.543198
C14   C     C_R   0.542814 0.059455 0.352929 0.543679
C15   C     C_R   0.939741 0.481906 0.353319 0.540448
C16   C     C_R   0.420884 0.548965 0.638864 0.522882
C17   C     C_R   0.126213 0.579404 0.638937 0.544762
C18   C     C_R   0.478955 0.933953 0.645192 0.549086
C19   C     C_R   0.499433 0.975513 0.927644 0.021215
C20   C     C_R   0.047149 0.530329 0.931798 0.015696
C21   C     C_R   0.470457 0.514565 0.931131 0.012970
C22   C     C_R   0.009431 0.502125 0.079604 0.012341
C23   C     C_R   0.503129 0.008653 0.075831 0.012060
C24   C     C_R   0.498339 0.505766 0.078899 0.014796
C25   C     C_R   0.456116 0.063752 0.957113 -0.009973
C26   C     C_R   0.002845 0.400945 0.964042 -0.004752
C27   C     C_R   0.599910 0.598422 0.963319 -0.003229
C28   C     C_R   0.982829 0.386619 0.036860 0.004979
C29   C     C_R   0.456687 0.078423 0.029968 0.018013
C30   C     C_R   0.614143 0.592460 0.036120 0.008333
C31   C     C_R   0.559671 0.930946 0.046168 -0.165400
C32   C     C_R   0.078937 0.636249 0.049175 -0.160825
C33   C     C_R   0.364264 0.442435 0.048362 -0.167756
C34   C     C_R   0.097173 0.649963 0.975610 -0.149891
C35   C     C_R   0.557928 0.914634 0.972781 -0.147322
C36   C     C_R   0.350614 0.445169 0.974701 -0.158105
C37   C     C_3   0.326294 0.073043 0.947339 -0.279410
C38   C     C_3   0.875036 0.263892 0.948793 -0.275936
C39   C     C_3   0.736364 0.605146 0.948468 -0.276116
C40   C     C_3   0.851814 0.248171 0.028504 -0.242554
C41   C     C_3   0.322294 0.081770 0.028028 -0.261295
C42   C     C_3   0.752001 0.597342 0.028228 -0.240812
C43   C     C_R   0.496045 0.984425 0.573491 0.009629
C44   C     C_R   0.095546 0.559486 0.563516 0.013075
C45   C     C_R   0.458497 0.542829 0.566124 0.014231
C46   C     C_R   0.016045 0.515700 0.419839 0.007403
C47   C     C_R   0.517742 0.011426 0.425401 0.002739
C48   C     C_R   0.500088 0.498895 0.423678 0.038784
C49   C     C_R   0.625370 0.037067 0.540398 0.014028
C50   C     C_R   0.072533 0.656578 0.525970 -0.020305
C51   C     C_R   0.521186 0.463497 0.549578 0.044567
C52   C     C_R   0.031728 0.632669 0.456719 -0.006797
C53   C     C_R   0.637193 0.056648 0.468613 -0.005284
C54   C     C_R   0.533364 0.436317 0.479152 -0.030116
C55   C     C_R   0.387064 0.961714 0.457676 -0.171950
C56   C     C_R   0.061310 0.430044 0.452623 -0.157986
C57   C     C_R   0.454535 0.594505 0.440062 -0.126975
C58   C     C_R   0.101131 0.452018 0.524736 -0.147069
C59   C     C_R   0.377827 0.953515 0.531906 -0.180983
C60   C     C_R   0.435437 0.617923 0.511769 -0.181462
Cr1   Cr    Cr6+3 0.769160 0.541570 0.250690 1.047672
Cr2   Cr    Cr6+3 0.458430 0.227590 0.250690 1.042447
Cr3   Cr    Cr6+3 0.772410 0.230840 0.250690 1.030481
Cr4   Cr    Cr6+3 0.541570 0.769160 0.749310 1.040733
Cr5   Cr    Cr6+3 0.227590 0.458430 0.749310 1.044738
Cr6   Cr    Cr6+3 0.230840 0.772410 0.749310 1.016895
H1    H     H_    0.606797 0.884739 0.079527 0.136498
H2    H     H_    0.106707 0.728746 0.080921 0.128520
H3    H     H_    0.271659 0.379047 0.080110 0.136483
H4    H     H_    0.145718 0.753668 0.952869 0.136080
H5    H     H_    0.597585 0.849482 0.951603 0.150707
H6    H     H_    0.246632 0.388343 0.951754 0.150003
H7    H     H_    0.237246 0.977496 0.924230 0.145019
H8    H     H_    0.900948 0.186346 0.925703 0.149012
H9    H     H_    0.814531 0.707742 0.925256 0.147055
H10   H     H_    0.757356 0.252790 0.045286 0.150242
H11   H     H_    0.335839 0.183121 0.047109 0.165743
H12   H     H_    0.747349 0.498006 0.045196 0.148124
H13   H     H_    0.348528 0.172344 0.920457 0.151913
H14   H     H_    0.793036 0.275537 0.919638 0.142399
H15   H     H_    0.723999 0.511202 0.919589 0.142276
H16   H     H_    0.862556 0.160483 0.051416 0.153412
H17   H     H_    0.233864 0.987225 0.052717 0.127694
H18   H     H_    0.840025 0.694937 0.050966 0.150286
H19   H     H_    0.294537 0.934458 0.426038 0.161707
H20   H     H_    0.058627 0.343020 0.424255 0.143408
H21   H     H_    0.429377 0.646335 0.398142 0.131033
H22   H     H_    0.131695 0.382900 0.550367 0.165558
H23   H     H_    0.278270 0.916976 0.557007 0.142671
H24   H     H_    0.394924 0.687284 0.524408 0.105597
H25   H     H_    0.694815 0.882637 0.555960 0.140251
H26   H     H_    0.059214 0.848762 0.547730 0.112978
H27   H     H_    0.374200 0.260215 0.599657 0.150886
H28   H     H_    0.827324 0.620884 0.456127 0.141762
H29   H     H_    0.858455 0.129040 0.451658 0.133297
H30   H     H_    0.547628 0.247222 0.476934 0.129747
O1    O     O_R   0.911480 0.572650 0.170990 -0.525890
O2    O     O_R   0.427350 0.338830 0.170990 -0.527938
O3    O     O_R   0.661170 0.088520 0.170990 -0.524353
O4    O     O_R   0.572650 0.911480 0.829010 -0.518201
O5    O     O_R   0.338830 0.427350 0.829010 -0.522586
O6    O     O_R   0.088520 0.661170 0.829010 -0.517661
O7    O     O_R   0.640340 0.528970 0.175680 -0.500088
O8    O     O_R   0.471030 0.111370 0.175680 -0.499910
O9    O     O_R   0.888630 0.359660 0.175680 -0.502266
O10   O     O_R   0.528970 0.640340 0.824320 -0.490682
O11   O     O_R   0.111370 0.471030 0.824320 -0.490690
O12   O     O_R   0.359660 0.888630 0.824320 -0.504908
O13   O     O_R   0.909980 0.572450 0.331530 -0.509677
O14   O     O_R   0.427550 0.337530 0.331530 -0.497060
O15   O     O_R   0.662470 0.090020 0.331530 -0.507129
O16   O     O_R   0.572450 0.909980 0.668470 -0.514893
O17   O     O_R   0.337530 0.427550 0.668470 -0.520197
O18   O     O_R   0.090020 0.662470 0.668470 -0.493136
O19   O     O_R   0.638950 0.528780 0.324500 -0.483048
O20   O     O_R   0.471220 0.110170 0.324500 -0.493820
O21   O     O_R   0.889830 0.361050 0.324500 -0.504552
O22   O     O_R   0.528780 0.638950 0.675500 -0.470398
O23   O     O_R   0.110170 0.471220 0.675500 -0.473667
O24   O     O_R   0.361050 0.889830 0.675500 -0.528206
O25   O     O_3   0.666667 0.333333 0.250560 -0.261978
O26   O     O_3   0.333333 0.666667 0.749440 -0.310721
C61   C     C_1   0.855539 0.089959 0.588883 0.223823
N1    N     N_1   0.948471 0.162694 0.625385 -0.272622
C62   C     C_1   0.879235 0.670845 0.591318 0.235174
N2    N     N_1   0.792459 0.624246 0.634130 -0.238963
C63   C     C_1   0.589454 0.310223 0.612580 0.219004
N3    N     N_1   0.677312 0.304686 0.644130 -0.246922
C64   C     C_1   0.989904 0.818352 0.413541 0.245449
N4    N     N_1   0.026702 0.909740 0.373273 -0.254036
C65   C     C_1   0.735099 0.914071 0.417996 0.218164
N5    N     N_1   0.717199 0.824054 0.379870 -0.285091
C66   C     C_1   0.329117 0.202743 0.468943 0.220797
N6    N     N_1   0.213697 0.142313 0.450256 -0.286557

loop_
_geom_bond_atom_site_label_1
_geom_bond_atom_site_label_2
_ccdc_geom_bond_type
C49   C53   A    
C45   C60   A    
C55   C59   A    
C15   O13   A    
C9    C51   S    
Cr5   O5    S    
C10   C52   S    
C16   O17   A    
C61   N1    T    
C21   C36   A    
C5    C20   S    
C3    O9    A    
C31   H1    S    
C6    C19   S    
C37   H13   S    
C9    C63   S    
C22   C32   A    
C23   C29   A    
Cr1   O7    S    
C18   O16   A    
C41   H11   S    
Cr3   O21   S    
C14   O20   A    
Cr4   O16   S    
C10   H28   S    
C11   H29   S    
C41   H17   S    
C46   C52   A    
C33   C36   A    
Cr4   O22   S    
Cr1   O25   S    
C59   H23   S    
Cr6   O6    S    
Cr3   O3    S    
C25   C37   S    
Cr2   O2    S    
C44   C58   A    
C38   H14   S    
Cr1   O19   S    
C50   C52   A    
Cr6   O26   S    
C8    H26   S    
C39   H9    S    
Cr3   O9    S    
C10   C64   S    
C1    O7    A    
C11   C53   S    
C43   C59   A    
C47   C53   A    
C20   C34   A    
C21   C27   A    
Cr1   O13   S    
C22   C28   A    
C27   C30   A    
C37   C41   S    
C33   H3    S    
Cr3   O25   S    
C17   O18   A    
C39   C42   S    
Cr2   O8    S    
C56   C58   A    
C25   C29   A    
C14   O15   A    
Cr1   O1    S    
C40   H16   S    
C48   C57   A    
C42   H18   S    
C39   H15   S    
C27   C39   S    
C48   C54   A    
C34   H4    S    
C43   C49   A    
C57   C60   A    
C23   C31   A    
C9    H27   S    
C4    O10   A    
C40   H10   S    
C11   C65   S    
C6    O4    A    
C55   H19   S    
C7    C11   S    
C28   C40   S    
Cr2   O20   S    
C13   O14   A    
C16   O22   A    
C3    O1    A    
C56   H20   S    
Cr2   O14   S    
C2    O8    A    
Cr6   O12   S    
C7    H25   S    
C4    O5    A    
Cr5   O23   S    
Cr5   O26   S    
C7    C49   S    
C13   O19   A    
C2    O3    A    
C42   H12   S    
C12   C66   S    
C62   N2    T    
C31   C35   A    
C63   N3    T    
C18   O24   A    
C47   C55   A    
C64   N4    T    
C5    O11   A    
C44   C50   A    
C37   H7    S    
C5    O6    A    
C6    O12   A    
Cr6   O18   S    
C29   C41   S    
Cr5   O17   S    
C26   C38   S    
C7    C61   S    
C58   H22   S    
C16   C45   S    
C13   C48   S    
Cr4   O10   S    
C14   C47   S    
C60   H24   S    
C26   C28   A    
C24   C33   A    
C32   H2    S    
C51   C54   A    
C15   O21   A    
C1    O2    A    
C19   C35   A    
C18   C43   S    
C38   C40   S    
C4    C21   S    
C66   N6    T    
C20   C26   A    
Cr4   O26   S    
C38   H8    S    
C8    C50   S    
C30   C42   S    
Cr3   O15   S    
C65   N5    T    
C19   C25   A    
C9    C12   S    
C24   C30   A    
C17   C44   S    
C17   O23   A    
C35   H5    S    
C57   H21   S    
C8    C62   S    
Cr4   O4    S    
C1    C24   S    
C8    C10   S    
C46   C56   A    
C2    C23   S    
C45   C51   A    
C12   H30   S    
C3    C22   S    
Cr6   O24   S    
C15   C46   S    
Cr5   O11   S    
Cr2   O25   S    
C12   C54   S    
C36   H6    S    
C32   C34   A    
