data_mof_unit_210.cif
_audit_creation_date              2013-03-05T15:57:37-0500
_audit_creation_method            fapswitch 2.2
_symmetry_space_group_name_H-M    P1
_symmetry_Int_Tables_number       1
_space_group_crystal_system       triclinic
_cell_length_a                    15.101923
_cell_length_b                    15.107746
_cell_length_c                    14.986651
_cell_angle_alpha                 108.552247
_cell_angle_beta                  109.896841
_cell_angle_gamma                 110.306538
_cell_volume                      2620.50489838

loop_
_atom_site_label
_atom_site_type_symbol
_atom_site_description
_atom_site_fract_x
_atom_site_fract_y
_atom_site_fract_z
_atom_type_partial_charge
C1    C     C_R   0.908889 0.974758 0.720886 -0.113879
H1    H     H_    0.824305 0.943109 0.698396 0.098385
N1    N     N_R   0.941940 0.944580 0.650780 -0.041933
C2    C     C_R   0.091319 0.313991 0.561581 -0.128351
H2    H     H_    0.175162 0.379963 0.605726 0.120212
N2    N     N_R   0.056800 0.208900 0.502740 -0.052246
C3    C     C_R   0.302740 0.208188 0.798533 -0.144915
H3    H     H_    0.333255 0.177091 0.850161 0.097454
N3    N     N_R   0.204460 0.150250 0.707090 -0.042864
C4    C     C_R   0.696926 0.994132 0.404507 -0.127376
H4    H     H_    0.668007 0.014920 0.342316 0.128746
N4    N     N_R   0.794270 0.003240 0.446420 -0.045593
C5    C     C_R   0.301313 0.299719 0.708045 -0.099301
H5    H     H_    0.329335 0.350270 0.674930 0.085935
N5    N     N_R   0.204920 0.207570 0.650770 -0.043032
C6    C     C_R   0.698622 0.908042 0.499963 -0.148020
H6    H     H_    0.675375 0.854304 0.530891 0.117944
N6    N     N_R   0.793810 0.945920 0.502740 -0.042034
C7    C     C_R   0.909655 0.217958 0.483710 -0.087324
H7    H     H_    0.825814 0.193927 0.460854 0.118414
N7    N     N_R   0.943620 0.152590 0.446420 -0.053877
C8    C     C_R   0.091867 0.063191 0.812023 -0.128349
H8    H     H_    0.177221 0.111303 0.872865 0.124939
N8    N     N_R   0.055110 0.000900 0.707100 -0.042973
C9    C     C_R   0.001721 0.052251 0.823687 0.060023
C10   C     C_R   0.998564 0.321184 0.547771 0.143908
C11   C     C_R   0.364870 0.301727 0.800809 0.143434
C12   C     C_R   0.635706 0.937599 0.438956 0.104358
C13   C     C_R   0.749517 0.687528 0.278974 -0.154216
H9    H     H_    0.737283 0.623350 0.299111 0.104626
N9    N     N_R   0.795080 0.792430 0.349230 -0.041736
C14   C     C_R   0.238785 0.021800 0.428577 -0.123825
H10   H     H_    0.233342 0.041780 0.365274 0.122802
N10   N     N_R   0.206190 0.054080 0.497260 -0.045883
C15   C     C_R   0.092332 0.787242 0.583284 -0.133019
H11   H     H_    0.176996 0.814026 0.634375 0.089440
N11   N     N_R   0.056380 0.847410 0.553580 -0.039681
C16   C     C_R   0.907804 0.001292 0.200111 -0.160047
H12   H     H_    0.824324 0.979318 0.153756 0.126157
N12   N     N_R   0.944890 0.999100 0.292900 -0.040934
C17   C     C_R   0.088959 0.092613 0.288185 -0.147643
H13   H     H_    0.172313 0.151841 0.318247 0.096979
N13   N     N_R   0.058060 0.055420 0.349220 -0.041286
C18   C     C_R   0.909310 0.696761 0.495720 -0.154305
H14   H     H_    0.825974 0.640720 0.469909 0.131332
N14   N     N_R   0.943200 0.791100 0.497260 -0.041746
C19   C     C_R   0.750643 0.779512 0.187378 -0.074041
H15   H     H_    0.739812 0.800643 0.123722 0.110408
N15   N     N_R   0.795540 0.849750 0.292910 -0.044310
C20   C     C_R   0.255605 0.942196 0.531010 -0.140609
H16   H     H_    0.277605 0.898441 0.570426 0.109526
N16   N     N_R   0.205730 0.996760 0.553580 -0.043768
Ni1   Ni    Ni4+2 0.869690 0.869690 0.500000 0.225422
Ni2   Ni    Ni4+2 0.130310 0.130310 0.500000 0.212118
Ni3   Ni    Ni4+2 0.129250 0.998840 0.629170 0.210676
Ni4   Ni    Ni4+2 0.870750 0.001160 0.370830 0.237678
C21   C     C_R   0.723637 0.677492 0.177364 0.115952
C22   C     C_R   0.276875 0.957267 0.451715 0.077748
C23   C     C_R   0.001372 0.692623 0.547698 0.092787
C24   C     C_R   0.995662 0.057985 0.192125 0.064625
H17   H     H_    0.560473 0.584271 0.553951 0.140590
C25   C     C_R   0.497235 0.605675 0.413962 0.288600
C26   C     C_R   0.466177 0.671117 0.376501 0.247426
C27   C     C_R   0.472676 0.762058 0.451067 0.075605
C28   C     C_R   0.505768 0.783965 0.559095 -0.232515
H18   H     H_    0.510679 0.853338 0.616615 0.136983
C29   C     C_R   0.537234 0.719841 0.595005 -0.186528
H19   H     H_    0.565387 0.739017 0.678881 0.152738
C30   C     C_R   0.534165 0.631974 0.523478 -0.176940
C31   C     C_R   0.354182 0.839914 0.410344 0.234517
C32   C     C_R   0.348620 0.932999 0.417392 0.006604
C33   C     C_R   0.425772 0.012529 0.410029 -0.005247
C34   C     C_R   0.509063 0.000808 0.402492 -0.143556
H20   H     H_    0.568958 0.065691 0.401987 0.139763
C35   C     C_R   0.527902 0.921196 0.417118 0.000421
C36   C     C_R   0.450215 0.839634 0.421741 -0.002537
C37   C     C_R   0.391280 0.136311 0.343296 -0.195286
H21   H     H_    0.346987 0.071050 0.259775 0.154812
C38   C     C_R   0.397563 0.235835 0.364177 -0.155226
H22   H     H_    0.359025 0.248203 0.297932 0.128678
C39   C     C_R   0.453784 0.320349 0.471234 -0.048910
H23   H     H_    0.457430 0.396678 0.486049 0.101318
C40   C     C_R   0.506534 0.307104 0.558627 0.378145
C41   C     C_R   0.496536 0.205842 0.538256 -0.143033
H24   H     H_    0.535011 0.193939 0.605487 0.118522
C42   C     C_R   0.437150 0.119585 0.430600 0.073116
C43   C     C_R   0.726144 0.132471 0.209584 -0.247603
H25   H     H_    0.733741 0.074671 0.153222 0.170877
C44   C     C_R   0.818284 0.235471 0.286979 -0.244061
H26   H     H_    0.895053 0.255484 0.288263 0.159102
C45   C     C_R   0.813880 0.307623 0.369357 -0.037725
C46   C     C_R   0.712646 0.281124 0.364914 0.357280
C47   C     C_R   0.619552 0.180217 0.283133 -0.418794
H27   H     H_    0.543232 0.159975 0.282232 0.201622
C48   C     C_R   0.626823 0.102608 0.209057 0.353600
C49   C     C_R   0.924381 0.502255 0.463928 -0.178793
H28   H     H_    0.869204 0.496819 0.390549 0.128449
C50   C     C_R   0.000150 0.601463 0.557631 0.026219
C51   C     C_R   0.069253 0.610866 0.655537 -0.156968
C52   C     C_R   0.066202 0.516580 0.654528 0.319009
C53   C     C_R   0.990226 0.415919 0.557162 -0.077465
C54   C     C_R   0.914532 0.408965 0.463386 0.067412
C55   C     C_R   0.246155 0.782743 0.803994 -0.103503
H29   H     H_    0.289027 0.755629 0.767341 0.110721
C56   C     C_R   0.302811 0.887308 0.893200 -0.038803
H30   H     H_    0.389258 0.939605 0.926489 0.122875
C57   C     C_R   0.247592 0.925296 0.938400 -0.041724
H31   H     H_    0.291734 0.006415 0.007141 0.111475
C58   C     C_R   0.135440 0.858793 0.894484 -0.141334
H32   H     H_    0.092573 0.888675 0.928978 0.123524
C59   C     C_R   0.078253 0.754440 0.804749 -0.110635
H33   H     H_    0.990737 0.704599 0.769446 0.135152
C60   C     C_R   0.133241 0.715775 0.758766 0.181715
C61   C     C_2   0.530968 0.474590 0.884667 -0.115322
C62   C     C_2   0.481392 0.377995 0.877835 -0.204296
H34   H     H_    0.487621 0.493123 0.825894 0.124713
H35   H     H_    0.523247 0.357113 0.934921 0.127686
C63   C     C_2   0.634322 0.567723 0.980594 -0.087754
C64   C     C_2   0.668226 0.574260 0.078374 -0.193004
H36   H     H_    0.666819 0.640515 0.975129 0.117030
H37   H     H_    0.640427 0.502931 0.087103 0.121025
H38   H     H_    0.476652 0.426345 0.078466 0.113780
C65   C     C_R   0.393327 0.296329 0.101652 -0.160666
H39   H     H_    0.464479 0.289268 0.136510 0.150891
C66   C     C_R   0.295294 0.228901 0.091187 -0.203840
H40   H     H_    0.290036 0.167151 0.114287 0.119120
C67   C     C_R   0.202900 0.237914 0.046349 0.068030
C68   C     C_R   0.209210 0.313837 0.010107 -0.181466
H41   H     H_    0.137377 0.319328 0.972893 0.148706
C69   C     C_R   0.307388 0.381388 0.020092 0.276219
C70   C     C_R   0.399821 0.373397 0.067841 -0.127683
C71   C     C_R   0.091646 0.155177 0.117993 -0.241115
H42   H     H_    0.166720 0.201276 0.195781 0.120680
C72   C     C_R   0.991770 0.085285 0.104794 0.057262
C73   C     C_R   0.893378 0.040499 0.005502 0.028931
C74   C     C_R   0.900665 0.054477 0.920765 -0.226997
H43   H     H_    0.825315 0.017478 0.845145 0.130498
C75   C     C_R   0.001113 0.098023 0.926125 0.051283
C76   C     C_R   0.097267 0.162589 0.029336 0.048824
C77   C     C_R   0.741506 0.857226 0.941129 -0.180886
H44   H     H_    0.797584 0.827031 0.949918 0.124790
C78   C     C_R   0.629423 0.784479 0.891605 -0.150924
H45   H     H_    0.598983 0.698868 0.862348 0.106906
C79   C     C_R   0.555312 0.821084 0.874110 0.011571
H46   H     H_    0.468616 0.764207 0.834407 0.121034
C80   C     C_R   0.592875 0.930463 0.905265 -0.063165
H47   H     H_    0.535355 0.958461 0.889245 0.090138
C81   C     C_R   0.704661 0.003527 0.955146 -0.203700
H48   H     H_    0.732302 0.087465 0.975709 0.125623
C82   C     C_R   0.780255 0.968011 0.975349 0.106181
C83   C     C_3   0.489959 0.507148 0.338002 -0.972281
H49   H     H_    0.517872 0.466052 0.380512 0.285925
H50   H     H_    0.403298 0.448720 0.272580 0.262084
H51   H     H_    0.541871 0.530411 0.302547 0.254861
C84   C     C_3   0.426093 0.642696 0.258566 -0.968523
H52   H     H_    0.351575 0.560790 0.205627 0.255556
H53   H     H_    0.403876 0.699444 0.238940 0.268569
H54   H     H_    0.490514 0.643281 0.238453 0.261627
C85   C     C_3   0.260896 0.742530 0.393702 -0.981981
H55   H     H_    0.283080 0.738414 0.470296 0.241772
H56   H     H_    0.183771 0.744418 0.366514 0.256039
H57   H     H_    0.243398 0.666915 0.328532 0.261441
C86   C     C_3   0.574267 0.401871 0.672071 -1.000959
H58   H     H_    0.602499 0.377589 0.734002 0.259920
H59   H     H_    0.646989 0.464307 0.679885 0.281471
H60   H     H_    0.524926 0.437854 0.687821 0.221200
N17   N     N_R   0.536616 0.992314 0.139820 0.223705
O1    O     O_R   0.549767 0.915984 0.086297 -0.421772
O2    O     O_R   0.446370 0.964692 0.142892 -0.430965
N18   N     N_R   0.704281 0.354295 0.445524 0.234755
O3    O     O_R   0.766158 0.390562 0.548898 -0.410611
O4    O     O_R   0.632205 0.382588 0.415153 -0.454629
N19   N     N_R   0.133516 0.521004 0.752540 0.232705
O5    O     O_R   0.239016 0.586821 0.807875 -0.422699
O6    O     O_R   0.090206 0.453905 0.782730 -0.401299
C87   C     C_3   0.311801 0.459349 0.977425 -0.835641
H61   H     H_    0.395868 0.510692 0.995638 0.244149
H62   H     H_    0.255943 0.413176 0.887580 0.276878
H63   H     H_    0.285220 0.513302 0.014953 0.265999

loop_
_geom_bond_atom_site_label_1
_geom_bond_atom_site_label_2
_geom_bond_distance
_ccdc_geom_bond_type
C6    C12   1.378808 A    
C43   H25   1.074852 S    
C47   H27   1.079016 S    
C49   C54   1.361978 A    
C84   H53   1.107726 S    
N12   Ni4   1.873428 S    
C17   H13   1.078838 S    
C15   H11   1.078052 S    
C14   C22   1.367590 A    
C68   H41   1.083907 S    
C61   C62   1.339791 D    
C65   H39   1.082525 S    
N17   O2    1.301503 A    
C37   H21   1.083209 S    
C71   C76   1.396400 A    
C56   C57   1.397473 A    
C53   C54   1.421990 A    
C55   C60   1.403664 A    
N2    Ni2   1.886451 S    
C31   C85   1.516651 S    
C58   C59   1.398278 A    
C10   C53   1.446747 S    
C16   H12   1.071830 S    
C22   C32   1.451904 S    
C65   C66   1.395584 A    
N18   O3    1.301025 A    
C18   C23   1.377616 A    
H17   C30   1.081872 S    
C50   C51   1.408680 A    
C3    C11   1.380507 A    
C15   C23   1.366794 A    
C1    H1    1.074435 S    
C34   H20   1.083076 S    
C83   H51   1.109769 S    
C7    C10   1.368611 A    
C63   C64   1.334695 D    
C52   C53   1.412673 A    
N6    Ni1   1.886562 S    
C41   H24   1.083730 S    
C55   C56   1.397964 A    
N12   N13   1.381716 A    
C85   H55   1.109898 S    
C46   N18   1.431217 S    
C71   H42   1.079425 S    
C62   H35   1.083087 S    
C8    C9    1.391191 A    
C49   C50   1.379983 A    
C19   H15   1.078253 S    
C20   N16   1.337241 A    
C83   H49   1.104356 S    
C85   H56   1.109447 S    
C31   C32   1.410458 A    
N3    Ni3   1.865560 S    
C44   C45   1.402372 A    
C73   C74   1.385296 A    
N16   Ni3   1.873889 S    
C21   C64   1.452691 S    
C87   H62   1.109933 S    
N8    Ni3   1.873428 S    
C47   C48   1.401180 A    
C5    H5    1.080946 S    
C84   H54   1.110310 S    
C1    C9    1.397341 A    
C17   N13   1.343786 A    
N1    N8    1.381715 A    
C67   C76   1.477626 S    
N9    N15   1.388276 A    
C39   C40   1.399028 A    
N17   O1    1.300549 A    
C18   N14   1.326100 A    
C39   H23   1.080182 S    
C80   C81   1.396343 A    
C37   C38   1.396072 A    
C84   H52   1.108204 S    
C25   C83   1.498910 S    
C29   H19   1.078805 S    
C20   C22   1.395873 A    
N5    Ni2   1.847557 S    
C3    H3    1.081957 S    
C86   H60   1.107116 S    
C77   H44   1.083108 S    
C19   N15   1.337857 A    
C4    H4    1.078172 S    
C44   H26   1.083371 S    
C45   C46   1.411018 A    
C38   C39   1.393586 A    
C6    H6    1.072182 S    
C28   C29   1.389669 A    
N19   O5    1.300480 A    
N2    N7    1.381840 A    
N9    Ni1   1.847560 S    
C38   H22   1.076814 S    
C25   C30   1.403889 A    
C43   C48   1.404765 A    
C29   C30   1.389742 A    
C14   N10   1.315939 A    
C35   C36   1.416278 A    
C13   H9    1.079410 S    
C19   C21   1.392568 A    
C79   C80   1.395914 A    
N13   Ni2   1.847937 S    
C2    C10   1.392651 A    
C40   C41   1.402686 A    
C57   H31   1.081539 S    
C49   H28   1.087083 S    
C25   C26   1.417227 A    
C20   H16   1.078721 S    
C27   C36   1.477850 S    
C85   H57   1.110662 S    
C59   C60   1.405617 A    
C6    N6    1.329975 A    
C61   C63   1.464212 S    
C81   H48   1.083355 S    
N19   O6    1.301236 A    
N4    Ni4   1.873889 S    
C64   H37   1.080614 S    
C4    N4    1.323147 A    
C16   C24   1.375833 A    
C81   C82   1.405749 A    
C2    N2    1.338594 A    
C87   H61   1.110802 S    
C13   C21   1.378946 A    
C37   C42   1.403779 A    
N10   Ni2   1.886563 S    
C5    N5    1.332846 A    
C31   C36   1.403084 A    
C66   H40   1.081339 S    
C8    N8    1.329654 A    
C34   C35   1.392286 A    
C45   C54   1.481295 S    
C67   C68   1.405553 A    
N15   Ni4   1.865560 S    
C77   C82   1.405874 A    
H38   C70   1.077268 S    
C55   H29   1.082449 S    
C78   C79   1.396190 A    
C18   H14   1.082146 S    
C15   N11   1.324675 A    
C74   C75   1.389676 A    
C80   H47   1.081135 S    
C4    C12   1.381361 A    
C3    N3    1.340765 A    
C40   C86   1.495830 S    
C59   H33   1.083272 S    
C65   C70   1.397150 A    
C8    H8    1.072023 S    
C5    C11   1.378272 A    
C17   C24   1.399965 A    
C77   C78   1.399465 A    
C33   C34   1.365615 A    
C68   C69   1.401354 A    
C51   C60   1.482678 S    
N7    Ni4   1.866299 S    
C61   H34   1.083717 S    
C72   C73   1.427062 A    
C33   C42   1.481278 S    
C73   C82   1.477539 S    
C56   H30   1.080481 S    
N10   N16   1.388276 A    
C51   C52   1.404165 A    
C79   H46   1.081730 S    
C69   C87   1.501450 S    
C14   H10   1.069720 S    
C87   H63   1.109479 S    
C7    H7    1.076528 S    
C43   C44   1.397515 A    
C9    C75   1.474296 S    
N3    N5    1.388278 A    
C26   C84   1.510992 S    
C32   C33   1.419011 A    
C13   N9    1.334871 A    
C58   H32   1.082716 S    
C27   C28   1.404948 A    
C16   N12   1.326877 A    
N1    Ni1   1.847936 S    
C57   C58   1.396649 A    
N18   O4    1.297760 A    
N14   Ni1   1.886450 S    
C46   C47   1.397619 A    
C24   C72   1.481380 S    
C69   C70   1.402585 A    
C48   N17   1.439143 S    
C83   H50   1.107853 S    
C63   H36   1.080295 S    
C86   H58   1.110696 S    
C75   C76   1.407339 A    
C26   C27   1.414502 A    
N11   Ni3   1.866299 S    
C2    H2    1.081024 S    
C71   C72   1.409854 A    
C28   H18   1.083824 S    
N4    N6    1.388276 A    
C52   N19   1.438562 S    
C66   C67   1.403179 A    
C23   C50   1.426157 S    
C78   H45   1.079659 S    
C41   C42   1.404144 A    
C86   H59   1.110299 S    
C1    N1    1.330766 A    
N11   N14   1.381841 A    
C12   C35   1.457654 S    
C74   H43   1.081336 S    
C7    N7    1.321438 A    
C11   C62   1.456167 S    
