data_mof_unit_1797.cif
_audit_creation_date              2012-12-10T18:52:11-0500
_audit_creation_method            fapswitch 2.2
_symmetry_space_group_name_H-M    P1
_symmetry_Int_Tables_number       1
_space_group_crystal_system       triclinic
_cell_length_a                    15.702741
_cell_length_b                    10.716243
_cell_length_c                    9.884626
_cell_angle_alpha                 89.2616
_cell_angle_beta                  89.135964
_cell_angle_gamma                 90.840872
_cell_volume                      1662.81821659

loop_
_atom_site_label
_atom_site_type_symbol
_atom_type_description
_atom_site_fract_x
_atom_site_fract_y
_atom_site_fract_z
_atom_type_partial_charge
C1    C     C_R   0.498827 0.259972 0.501089 0.917209
C2    C     C_R   0.501276 0.739760 0.499100 0.921637
C3    C     C_R   0.544275 0.939916 0.394841 0.536852
C4    C     C_R   0.463011 0.059554 0.613231 0.537176
C5    C     C_R   0.501788 0.872047 0.498068 -0.202997
C6    C     C_R   0.499500 0.127247 0.503492 -0.205747
C7    C     C_R   0.555941 0.574593 0.069965 0.372378
C8    C     C_R   0.443615 0.425824 0.930744 0.357111
C9    C     C_R   0.553824 0.577951 0.924820 0.349024
C10   C     C_R   0.447584 0.419671 0.075104 0.338907
C11   C     C_R   0.338046 0.500590 0.500836 0.875148
C12   C     C_R   0.661976 0.500272 0.499074 0.878013
C13   C     C_3   0.972251 0.387904 0.460404 -0.398562
C14   C     C_3   0.027926 0.618498 0.538176 -0.396500
C15   C     C_3   0.030372 0.478927 0.376790 0.601336
C16   C     C_3   0.969792 0.527463 0.621781 0.601276
C17   C     C_1   0.249281 0.502813 0.502575 -0.217521
C18   C     C_1   0.750788 0.500438 0.496883 -0.184155
C19   C     C_3   0.025719 0.415768 0.587080 0.110781
C20   C     C_3   0.974407 0.590639 0.411480 0.121426
C21   C     C_3   0.083286 0.505087 0.502366 0.004445
C22   C     C_3   0.916857 0.501286 0.496214 0.001717
C23   C     C_1   0.174062 0.504480 0.503079 0.020862
C24   C     C_1   0.826048 0.500656 0.495854 0.023341
C25   C     C_R   0.539563 0.068062 0.395321 -0.351645
C26   C     C_R   0.460442 0.930802 0.604743 -0.405714
H1    H     H_    0.947437 0.295098 0.429826 0.163929
H2    H     H_    0.052762 0.711287 0.568764 0.166718
H3    H     H_    0.569773 0.121140 0.313190 0.195877
H4    H     H_    0.425850 0.876136 0.680920 0.176990
N1    N     N_R   0.499980 0.499970 0.857200 -0.195595
N2    N     N_R   0.500020 0.500030 0.142800 -0.194389
O1    O     O_R   0.499990 0.316750 0.614620 -0.547572
O2    O     O_R   0.500010 0.683250 0.385380 -0.543591
O3    O     O_R   0.500000 0.316780 0.385290 -0.587765
O4    O     O_R   0.500000 0.683220 0.614710 -0.613611
O5    O     O_R   0.376780 0.499970 0.614640 -0.604036
O6    O     O_R   0.623220 0.500030 0.385360 -0.597510
O7    O     O_R   0.376780 0.500000 0.385310 -0.620490
O8    O     O_R   0.623220 0.500000 0.614690 -0.564288
Zn1   Zn    Zn3+2 0.500000 0.499980 0.653120 1.026482
Zn2   Zn    Zn3+2 0.500000 0.500020 0.346880 1.019486
O9    O     O_3   0.069995 0.459757 0.249709 -0.609584
C27   C     C_3   0.013093 0.397324 0.164088 -0.341326
H5    H     H_    0.950446 0.444159 0.159106 0.164223
H6    H     H_    0.004431 0.298282 0.196747 0.167229
H7    H     H_    0.040906 0.397778 0.060237 0.193248
O10   O     O_3   0.930290 0.546684 0.748941 -0.595793
C28   C     C_3   0.987458 0.608497 0.834658 -0.321974
H8    H     H_    0.996396 0.707577 0.802307 0.166159
H9    H     H_    0.049970 0.561258 0.839366 0.157229
H10   H     H_    0.959742 0.607919 0.938575 0.192992
C29   C     C_3   0.943314 0.688873 0.312085 -0.897033
H11   H     H_    0.998772 0.736223 0.261722 0.255762
H12   H     H_    0.903038 0.644469 0.234522 0.221330
H13   H     H_    0.905106 0.758835 0.367099 0.237115
C30   C     C_3   0.056775 0.317560 0.686545 -0.880249
H14   H     H_    0.001333 0.271454 0.738295 0.253196
H15   H     H_    0.093927 0.246602 0.631252 0.244585
H16   H     H_    0.098096 0.361687 0.762957 0.221259
O11   O     O_3   0.587861 0.881809 0.291319 -0.564928
C31   C     C_3   0.675280 0.882496 0.322352 -0.266629
H17   H     H_    0.711424 0.846458 0.234378 0.200412
H18   H     H_    0.687463 0.820396 0.410876 0.151299
H19   H     H_    0.700313 0.978439 0.340963 0.127954
O12   O     O_3   0.424104 0.120526 0.720547 -0.560429
C32   C     C_3   0.451873 0.071411 0.845768 -0.194485
H20   H     H_    0.521744 0.054504 0.845741 0.118160
H21   H     H_    0.415553 0.985042 0.873857 0.128425
H22   H     H_    0.438842 0.139396 0.926511 0.242439
O13   O     O_3   0.615777 0.643416 0.139171 -0.535772
C33   C     C_3   0.696747 0.590023 0.119480 -0.236534
H23   H     H_    0.724712 0.618090 0.019671 0.192415
H24   H     H_    0.695027 0.486280 0.130151 0.144398
H25   H     H_    0.740066 0.625650 0.198152 0.160252
O14   O     O_3   0.386267 0.351054 0.863365 -0.527698
C34   C     C_3   0.306694 0.411236 0.856850 -0.191280
H26   H     H_    0.311947 0.514985 0.848019 0.126206
H27   H     H_    0.265191 0.386435 0.944146 0.115335
H28   H     H_    0.272566 0.376496 0.767125 0.192641
O15   O     O_3   0.608333 0.655344 0.849920 -0.559153
C35   C     C_3   0.586700 0.781091 0.871208 -0.223243
H29   H     H_    0.516556 0.795523 0.872292 0.128097
H30   H     H_    0.614101 0.838542 0.786652 0.168274
H31   H     H_    0.614793 0.816170 0.966045 0.202285
O16   O     O_3   0.415845 0.314977 0.143439 -0.578257
C36   C     C_3   0.328962 0.326885 0.177902 -0.142303
H32   H     H_    0.303816 0.423235 0.166513 0.138182
H33   H     H_    0.319437 0.297045 0.284981 0.176969
H34   H     H_    0.291042 0.260283 0.117526 0.152168

loop_
_geom_bond_atom_site_label_1
_geom_bond_atom_site_label_2
_ccdc_geom_bond_type
C36   H32   S    
O2    Zn2   S    
C16   O10   S    
O15   C35   S    
C1    O1    A    
C34   H26   S    
C19   C30   S    
C17   C23   T    
C18   C24   T    
C14   C21   S    
C19   C21   S    
O6    Zn2   S    
C7    O13   S    
C34   H28   S    
C6    C25   A    
C3    O11   S    
C8    O14   S    
C11   O5    A    
O3    Zn2   S    
C31   H18   S    
C11   C17   S    
C28   H9    S    
C27   H7    S    
C2    O2    A    
C34   H27   S    
O12   C32   S    
C12   O6    A    
O4    Zn1   S    
C33   H25   S    
C27   H6    S    
O7    Zn2   S    
C29   H12   S    
C25   H3    S    
C15   C20   S    
C13   C19   S    
C32   H20   S    
C14   C20   S    
C3    C25   A    
O14   C34   S    
C4    C6    A    
O16   C36   S    
C20   C29   S    
C30   H16   S    
C29   H11   S    
C35   H29   S    
C1    C6    S    
C32   H21   S    
C12   O8    A    
O9    C27   S    
C31   H17   S    
C28   H10   S    
C11   O7    A    
C33   H24   S    
O10   C28   S    
C20   C22   S    
C26   H4    S    
C35   H30   S    
C13   C15   S    
C22   C24   S    
C2    C5    S    
C27   H5    S    
C1    O3    A    
C29   H13   S    
C2    O4    A    
C7    C9    A    
O8    Zn1   S    
C16   C22   S    
C7    N2    A    
N1    Zn1   S    
C31   H19   S    
C8    N1    A    
C33   H23   S    
C3    C5    A    
C4    C26   A    
C35   H31   S    
C32   H22   S    
O1    Zn1   S    
C21   C23   S    
C15   O9    S    
O13   C33   S    
C4    O12   S    
C10   O16   S    
C30   H14   S    
C16   C19   S    
C13   C22   S    
C14   C16   S    
O5    Zn1   S    
O11   C31   S    
C30   H15   S    
C9    N1    A    
C5    C26   A    
C10   N2    A    
C15   C21   S    
C8    C10   A    
C28   H8    S    
C36   H34   S    
C12   C18   S    
C36   H33   S    
N2    Zn2   S    
C13   H1    S    
C14   H2    S    
C9    O15   S    
