data_mof_unit_1109.cif
_audit_creation_date              2012-12-10T17:03:51-0500
_audit_creation_method            fapswitch 2.2
_symmetry_space_group_name_H-M    P1
_symmetry_Int_Tables_number       1
_space_group_crystal_system       triclinic
_cell_length_a                    18.628295
_cell_length_b                    18.825208
_cell_length_c                    19.066534
_cell_angle_alpha                 110.597618
_cell_angle_beta                  109.756299
_cell_angle_gamma                 109.345152
_cell_volume                      5063.33519924

loop_
_atom_site_label
_atom_site_type_symbol
_atom_type_description
_atom_site_fract_x
_atom_site_fract_y
_atom_site_fract_z
_atom_type_partial_charge
C1    C     C_R   0.992653 0.113014 0.619456 0.831729
C2    C     C_R   0.218580 0.309284 0.636221 -0.030966
C3    C     C_R   0.834707 0.140181 0.578749 0.382074
C4    C     C_R   0.120883 0.120640 0.501783 0.944267
C5    C     C_R   0.787574 0.179686 0.550883 0.383512
C6    C     C_R   0.814433 0.266791 0.609245 -0.072064
C7    C     C_R   0.881261 0.309821 0.696709 -0.199613
C8    C     C_R   0.930422 0.271990 0.723773 -0.001759
C9    C     C_R   0.915183 0.192530 0.661539 -0.069949
C10   C     C_R   0.981872 0.169992 0.684993 -0.142049
C11   C     C_R   0.047470 0.212388 0.772794 -0.113895
C12   C     C_R   0.211447 0.155614 0.437539 -0.108026
C13   C     C_R   0.052161 0.281090 0.836102 -0.151771
C14   C     C_R   0.995828 0.312157 0.811554 -0.020111
C15   C     C_R   0.777773 0.686337 0.357734 -0.121147
C16   C     C_R   0.992928 0.873091 0.379403 1.043494
C17   C     C_R   0.773423 0.604157 0.323358 -0.126975
C18   C     C_R   0.757054 0.553354 0.362059 0.470899
C19   C     C_R   0.741212 0.583200 0.431187 -0.062659
C20   C     C_R   0.738213 0.662521 0.459896 -0.161086
C21   C     C_R   0.774139 0.720266 0.434972 0.079813
C22   C     C_R   0.808601 0.810701 0.491392 -0.049421
C23   C     C_R   0.316710 0.308264 0.499541 -0.152830
C24   C     C_R   0.786666 0.839097 0.554474 -0.291421
C25   C     C_R   0.726860 0.777656 0.560623 0.544875
C26   C     C_R   0.700284 0.687815 0.511477 -0.140057
C27   C     C_R   0.037161 0.740332 0.406258 0.435652
C28   C     C_R   0.878630 0.877413 0.496016 0.865460
C29   C     C_R   0.089682 0.703680 0.430260 -0.092608
C30   C     C_R   0.135283 0.685713 0.386315 -0.112740
C31   C     C_R   0.118952 0.693830 0.312131 -0.106377
C32   C     C_R   0.051605 0.712527 0.278620 -0.040320
C33   C     C_R   0.024382 0.750876 0.333862 0.003515
C34   C     C_R   0.315947 0.328164 0.578273 -0.128472
C35   C     C_R   0.980944 0.795176 0.311378 -0.183668
C36   C     C_R   0.931456 0.768118 0.222899 0.324269
C37   C     C_R   0.934486 0.703736 0.160985 0.395047
C38   C     C_R   0.003275 0.686720 0.189748 -0.094736
C39   C     C_R   0.622074 0.502007 0.620619 0.911952
C40   C     C_R   0.185566 0.066057 0.384425 0.428999
C41   C     C_R   0.379163 0.378384 0.498652 0.905048
C42   C     C_R   0.377124 0.498125 0.380428 0.907705
C43   C     C_R   0.624751 0.620981 0.504024 0.844812
C44   C     C_R   0.879135 0.503305 0.884172 1.048461
C45   C     C_R   0.238889 0.273800 0.571258 0.010783
C46   C     C_R   0.999474 0.379618 0.879824 0.830551
C47   C     C_R   0.120261 0.492269 0.112180 0.813220
C48   C     C_R   0.003521 0.620509 0.123170 0.996569
C49   C     C_R   0.782847 0.672523 0.771587 -0.097754
C50   C     C_R   0.830615 0.749968 0.854430 0.389836
C51   C     C_R   0.882954 0.751238 0.927685 -0.129640
C52   C     C_R   0.193004 0.039139 0.309539 -0.093160
C53   C     C_R   0.884356 0.673496 0.917269 0.428586
C54   C     C_R   0.820182 0.590403 0.836813 -0.033269
C55   C     C_R   0.763780 0.589814 0.764956 -0.165971
C56   C     C_R   0.189622 0.184442 0.502494 -0.092468
C57   C     C_R   0.692478 0.506964 0.688454 -0.149028
C58   C     C_R   0.679401 0.426526 0.681244 0.467703
C59   C     C_R   0.739159 0.427045 0.749171 0.285175
C60   C     C_R   0.811092 0.507833 0.824284 -0.187026
C61   C     C_R   0.187200 0.429290 0.340710 -0.034998
C62   C     C_R   0.098769 0.358629 0.297157 -0.094604
C63   C     C_R   0.043158 0.319526 0.206364 -0.010144
C64   C     C_R   0.222986 0.101099 0.285792 -0.200156
C65   C     C_R   0.074125 0.356655 0.163153 -0.113473
C66   C     C_R   0.159009 0.431784 0.207754 -0.021001
C67   C     C_R   0.388475 0.399097 0.662950 0.492813
C68   C     C_R   0.220293 0.456587 0.291362 0.083937
C69   C     C_R   0.310982 0.500873 0.316842 -0.123815
C70   C     C_R   0.338032 0.536365 0.270999 -0.175406
C71   C     C_R   0.276687 0.529813 0.199540 0.461484
C72   C     C_R   0.185756 0.481406 0.170261 -0.272025
C73   C     C_R   0.251299 0.190607 0.340831 0.035483
C74   C     C_R   0.259856 0.219625 0.425033 0.055377
C75   C     C_2   0.270443 0.422637 0.790162 0.368736
C76   C     C_2   0.772019 0.312543 0.578825 0.570415
C77   C     C_2   0.771285 0.728730 0.305226 0.421190
C78   C     C_R   0.374012 0.428625 0.733117 -0.103091
C79   C     C_2   0.790808 0.574503 0.250671 0.367784
C80   C     C_2   0.746163 0.540393 0.483223 0.561852
C81   C     C_2   0.095862 0.684713 0.500955 0.359552
C82   C     C_2   0.194183 0.651876 0.414006 0.505003
C83   C     C_2   0.176875 0.690011 0.275072 0.508525
C84   C     C_2   0.775272 0.682544 0.696333 0.485557
C85   C     C_2   0.171849 0.946759 0.257086 0.585550
C86   C     C_2   0.937385 0.835635 0.014098 0.424630
C87   C     C_2   0.241230 0.473885 0.437140 0.403166
C88   C     C_2   0.067158 0.324786 0.347086 0.385287
C89   C     C_R   0.287647 0.385643 0.718861 -0.174655
C90   C     C_2   0.950166 0.244683 0.156480 0.467087
C91   C     C_2   0.221873 0.070777 0.201882 0.354018
C92   C     C_2   0.251321 0.245901 0.301393 0.481156
C93   C     C_2   0.449531 0.503393 0.821946 0.484217
C94   C     C_2   0.124794 0.279750 0.612335 0.413010
H1    H     H_    0.896957 0.374357 0.742782 0.198996
H2    H     H_    0.710294 0.275576 0.516768 0.139930
H3    H     H_    0.804853 0.728183 0.268926 0.071096
H4    H     H_    0.763409 0.582993 0.196242 0.058825
H5    H     H_    0.732914 0.444751 0.270327 0.364906
H6    H     H_    0.789271 0.580604 0.553360 0.013236
H7    H     H_    0.210342 0.036624 0.472679 0.341463
H8    H     H_    0.721491 0.869165 0.644479 0.344462
H9    H     H_    0.865776 0.793069 0.139854 0.385867
H10   H     H_    0.022325 0.773891 0.507277 0.333052
H11   H     H_    0.037936 0.659691 0.506711 0.105686
H12   H     H_    0.101748 0.312118 0.904126 0.135881
H13   H     H_    0.170708 0.598344 0.425137 0.116986
H14   H     H_    0.200797 0.644529 0.271816 0.074217
H15   H     H_    0.814211 0.652701 0.067483 0.338249
H16   H     H_    0.603395 0.297037 0.612059 0.374131
H17   H     H_    0.736128 0.625900 0.631763 -0.029405
H18   H     H_    0.775772 0.810196 0.813987 0.383239
H19   H     H_    0.192849 0.930061 0.210086 0.038319
H20   H     H_    0.947942 0.897272 0.017449 0.140846
H21   H     H_    0.004117 0.731578 0.011791 0.356601
H22   H     H_    0.709938 0.339639 0.779403 0.355600
H23   H     H_    0.814255 0.909091 0.597090 0.123925
H24   H     H_    0.242365 0.435116 0.467800 0.088328
H25   H     H_    0.081249 0.370653 0.410516 0.084181
H26   H     H_    0.917601 0.225843 0.189759 0.124404
H27   H     H_    0.263015 0.530488 0.094800 0.344748
H28   H     H_    0.165044 0.009957 0.143206 0.079284
H29   H     H_    0.265909 0.236765 0.249628 0.122693
H30   H     H_    0.478430 0.387557 0.638728 0.322943
H31   H     H_    0.444666 0.513095 0.879330 0.043003
H32   H     H_    0.104669 0.281682 0.659542 0.115875
H33   H     H_    0.407566 0.569083 0.290766 0.174345
H34   H     H_    0.031863 0.324967 0.093317 0.206046
H35   H     H_    0.096913 0.194190 0.792605 0.186007
H36   H     H_    0.299498 0.493465 0.829616 0.085427
H37   H     H_    0.820075 0.028463 0.565440 0.323844
H38   H     H_    0.707672 0.077223 0.431807 0.400273
O1    O     O_R   0.051710 0.091600 0.643330 -0.631768
O2    O     O_R   0.856640 0.448280 0.908400 -0.617922
O3    O     O_R   0.051720 0.460120 0.908370 -0.622671
O4    O     O_R   0.948270 0.091620 0.539910 -0.566613
O5    O     O_R   0.948290 0.356670 0.908380 -0.606696
O6    O     O_R   0.143340 0.551720 0.091580 -0.590440
O7    O     O_R   0.039910 0.448270 0.091590 -0.636833
O8    O     O_R   0.051690 0.643330 0.091600 -0.552887
O9    O     O_R   0.948270 0.539880 0.091610 -0.616285
O10   O     O_R   0.143340 0.091610 0.551710 -0.646415
O11   O     O_R   0.039890 0.091630 0.448290 -0.544248
O12   O     O_R   0.591640 0.448340 0.539940 -0.553797
O13   O     O_R   0.051730 0.908380 0.460090 -0.590250
O14   O     O_R   0.948290 0.908400 0.356670 -0.560653
O15   O     O_R   0.960110 0.908370 0.551710 -0.616974
O16   O     O_R   0.856660 0.908390 0.448290 -0.573729
O17   O     O_R   0.591600 0.551770 0.643360 -0.601870
O18   O     O_2   0.227440 0.374961 0.808114 -0.579630
O19   O     O_3   0.796535 0.049900 0.527670 -0.734028
O20   O     O_3   0.714734 0.134707 0.467664 -0.755732
O21   O     O_2   0.807082 0.392727 0.621589 -0.577149
O22   O     O_2   0.723049 0.759822 0.297656 -0.498071
O23   O     O_R   0.408370 0.460150 0.551730 -0.591518
O24   O     O_2   0.838641 0.542980 0.252455 -0.545714
O25   O     O_3   0.755413 0.474057 0.333801 -0.689245
O26   O     O_2   0.704805 0.460156 0.447963 -0.482748
O27   O     O_3   0.163885 0.006721 0.410600 -0.727487
O28   O     O_3   0.696116 0.804380 0.615799 -0.707077
O29   O     O_3   0.879510 0.802990 0.198511 -0.727554
O30   O     O_3   0.989642 0.757032 0.445636 -0.797380
O31   O     O_2   0.165788 0.699071 0.554768 -0.523518
O32   O     O_2   0.269469 0.685037 0.427207 -0.511238
O33   O     O_2   0.202395 0.741585 0.252215 -0.499467
O34   O     O_R   0.408410 0.356720 0.448320 -0.621676
O35   O     O_3   0.869735 0.654262 0.073431 -0.721730
O36   O     O_3   0.606317 0.348370 0.607085 -0.760161
O37   O     O_2   0.819204 0.753973 0.706707 -0.546194
O38   O     O_3   0.830347 0.826334 0.864632 -0.731232
O39   O     O_2   0.130702 0.887736 0.265341 -0.492800
O40   O     O_2   0.969474 0.837757 0.082691 -0.570709
O41   O     O_3   0.946336 0.678457 0.986017 -0.680043
O42   O     O_3   0.729761 0.347843 0.739243 -0.782034
O43   O     O_2   0.280235 0.554067 0.483429 -0.512947
O44   O     O_2   0.029404 0.245878 0.320009 -0.516519
O45   O     O_R   0.408360 0.551760 0.460120 -0.560353
O46   O     O_2   0.907817 0.203359 0.076670 -0.555690
O47   O     O_3   0.307842 0.567652 0.158112 -0.710714
O48   O     O_2   0.285904 0.111349 0.198601 -0.547155
O49   O     O_2   0.231444 0.301459 0.324938 -0.642311
O50   O     O_3   0.474963 0.433388 0.681065 -0.695075
O51   O     O_2   0.517878 0.555716 0.832360 -0.483839
O52   O     O_2   0.069564 0.258049 0.540076 -0.531555
O53   O     O_R   0.408400 0.448330 0.356700 -0.624272
O54   O     O_R   0.591600 0.643380 0.551740 -0.554162
O55   O     O_R   0.591640 0.539950 0.448320 -0.630816
O56   O     O_R   0.960070 0.551730 0.908390 -0.602525
Zn1   Zn    Zn3+2 0.069070 0.999990 0.569050 1.010632
Zn2   Zn    Zn3+2 0.930930 0.000010 0.430950 1.157510
Zn3   Zn    Zn3+2 0.499980 0.569110 0.569080 1.130032
Zn4   Zn    Zn3+2 0.500030 0.430990 0.430980 1.085517
Zn5   Zn    Zn3+2 0.069050 0.569070 0.999980 1.061089
Zn6   Zn    Zn3+2 0.930930 0.430930 0.000000 1.036400

loop_
_geom_bond_atom_site_label_1
_geom_bond_atom_site_label_2
_ccdc_geom_bond_type
C70   H33   S    
C66   C68   A    
C63   C65   A    
C30   C82   S    
O45   Zn3   S    
C12   C74   A    
C27   C29   A    
C11   C13   A    
C73   C74   A    
C79   H4    S    
H37   O19   S    
C35   C36   A    
C59   O42   S    
C4    O11   A    
C90   O46   D    
O1    Zn1   S    
C7    C8    A    
C37   O35   S    
C54   C60   A    
C53   C54   A    
C27   C33   A    
H30   O50   S    
C83   O33   D    
C24   H23   S    
C85   O39   D    
C5    O20   S    
C20   C26   A    
C86   O40   D    
C49   C84   S    
C36   C37   A    
C44   C60   S    
C92   O49   D    
C16   C35   S    
H10   O30   S    
C30   C31   A    
C78   C93   S    
C39   C57   S    
C76   O21   D    
C17   C79   S    
C31   C83   S    
C83   H14   S    
C63   C90   S    
C16   O14   A    
C18   C19   A    
C71   O47   S    
O54   Zn3   S    
C41   O34   A    
C40   O27   S    
C33   C35   A    
C46   O3    A    
O5    Zn6   S    
H16   O36   S    
H18   O38   S    
C19   C20   A    
C45   C56   A    
C66   C72   A    
C8    C9    A    
C91   H28   S    
C64   C73   A    
C77   H3    S    
C70   C71   A    
C32   C38   A    
C1    O4    A    
C58   O36   S    
C9    C10   A    
C38   C48   S    
C61   C62   A    
O7    Zn6   S    
C79   O24   D    
C59   C60   A    
C78   C89   A    
C22   C28   S    
C13   C14   A    
C80   H6    S    
C44   O2    A    
C81   O31   D    
C69   C70   A    
C67   C78   A    
C94   O52   D    
C25   O28   S    
C1    O1    A    
C11   H35   S    
C51   C86   S    
C26   C43   S    
C50   C51   A    
C94   H32   S    
C2    C45   A    
O16   Zn2   S    
C81   H11   S    
H9    O29   S    
C84   H17   S    
O17   Zn3   S    
C48   O8    A    
C53   O41   S    
C65   H34   S    
C2    C94   S    
C24   C25   A    
C87   H24   S    
C14   C46   S    
C84   O37   D    
C52   C64   A    
C92   H29   S    
H8    O28   S    
C68   C69   A    
O12   Zn4   S    
C43   O54   A    
C58   C59   A    
C40   C52   A    
O10   Zn1   S    
C62   C88   S    
C42   C69   S    
O4    Zn2   S    
C16   O13   A    
C51   C53   A    
C90   H26   S    
C12   C40   A    
C2    C89   A    
C29   C81   S    
C37   C38   A    
C3    C9    A    
C67   O50   S    
C77   O22   D    
O3    Zn5   S    
C80   O26   D    
C31   C32   A    
C43   O55   A    
C23   C34   A    
C91   O48   D    
C62   C63   A    
C17   C18   A    
C50   O38   S    
C34   C45   A    
C82   H13   S    
C39   O12   A    
C88   H25   S    
O55   Zn4   S    
C12   C56   A    
O23   Zn3   S    
C44   O56   A    
C46   O5    A    
C42   O53   A    
O56   Zn5   S    
C65   C66   A    
H5    O25   S    
C36   O29   S    
H38   O20   S    
C22   C24   A    
O2    Zn6   S    
C23   C74   A    
C87   O43   D    
O53   Zn4   S    
C61   C87   S    
O8    Zn5   S    
O6    Zn5   S    
C15   C17   A    
C54   C55   A    
C52   C85   S    
C28   O15   A    
C8    C14   A    
O13   Zn1   S    
C15   C77   S    
C28   O16   A    
C1    C10   S    
C73   C92   S    
C13   H12   S    
C3    C5    A    
H15   O35   S    
C34   C67   A    
C42   O45   A    
C75   H36   S    
C6    C76   S    
C6    C7    A    
C7    H1    S    
C39   O17   A    
C3    O19   S    
C23   C41   S    
H22   O42   S    
C86   H20   S    
C32   C33   A    
C55   C57   A    
C25   C26   A    
C71   C72   A    
C27   O30   S    
C18   O25   S    
C49   C55   A    
C76   H2    S    
C4    O10   A    
C93   O51   D    
C61   C68   A    
C57   C58   A    
C5    C6    A    
C82   O32   D    
O15   Zn1   S    
C47   O6    A    
C85   H19   S    
H27   O47   S    
O11   Zn2   S    
C48   O9    A    
O34   Zn4   S    
O9    Zn6   S    
C19   C80   S    
C93   H31   S    
C47   C72   S    
C10   C11   A    
C75   C89   S    
C29   C30   A    
C88   O44   D    
C15   C21   A    
C20   C21   A    
H7    O27   S    
H21   O41   S    
C49   C50   A    
C47   O7    A    
O14   Zn2   S    
C75   O18   D    
C64   C91   S    
C21   C22   A    
C4    C56   S    
C41   O23   A    
