data_mof_unit_1132.cif
_audit_creation_date              2012-12-11T14:06:42-0500
_audit_creation_method            fapswitch 2.2
_symmetry_space_group_name_H-M    P1
_symmetry_Int_Tables_number       1
_space_group_crystal_system       triclinic
_cell_length_a                    6.914365
_cell_length_b                    17.368541
_cell_length_c                    24.066636
_cell_angle_alpha                 104.235044
_cell_angle_beta                  90.644777
_cell_angle_gamma                 89.95009
_cell_volume                      2801.29424385

loop_
_atom_site_label
_atom_site_type_symbol
_atom_type_description
_atom_site_fract_x
_atom_site_fract_y
_atom_site_fract_z
_atom_type_partial_charge
O1    O     O_R   0.494290 0.391990 0.999150 -0.528253
O2    O     O_R   0.827170 0.534410 0.082350 -0.544773
O3    O     O_R   0.994360 0.608010 0.000850 -0.548975
C1    C     C_R   0.659230 0.550035 0.106162 0.711444
O4    O     O_R   0.824210 0.388010 0.004470 -0.522045
O5    O     O_R   0.991370 0.460560 0.922410 -0.542608
C2    C     C_R   0.653559 0.354959 0.001130 0.780570
O6    O     O_R   0.497270 0.539440 0.077590 -0.539040
O7    O     O_3   0.659770 0.523970 0.973170 -0.374783
V1    V     V_3+5 0.935840 0.495550 0.004980 1.491446
O8    O     O_R   0.320910 0.465590 0.917650 -0.541298
C3    C     C_R   0.150751 0.451835 0.893671 0.734298
O9    O     O_R   0.323870 0.611990 0.995530 -0.531948
C4    C     C_R   0.154098 0.644295 0.996700 0.727187
V2    V     V_3+5 0.435470 0.504450 0.995020 1.482831
O10   O     O_3   0.161670 0.476030 0.026830 -0.352504
C5    C     C_2   0.142994 0.726249 0.989557 -0.020702
C6    C     C_2   0.978962 0.770389 0.002663 -0.347802
H1    H     H_    0.853290 0.744388 0.017804 0.149865
C7    C     C_R   0.144317 0.255415 0.625952 0.616731
N1    N     N_R   0.068617 0.329110 0.648502 -0.556632
C8    C     C_R   0.979945 0.371158 0.614056 0.684655
C9    C     C_R   0.958511 0.338061 0.554135 -0.093884
C10   C     C_R   0.044624 0.263069 0.530243 -0.047191
C11   C     C_R   0.136933 0.221701 0.566469 -0.050841
C12   C     C_R   0.856808 0.376486 0.516853 0.234976
C13   C     C_R   0.853411 0.342968 0.457912 -0.142210
C14   C     C_R   0.943948 0.270491 0.434044 -0.068046
C15   C     C_R   0.038349 0.229244 0.470075 -0.040668
C16   C     C_R   0.125811 0.154534 0.445970 -0.035727
C17   C     C_R   0.217675 0.113375 0.483605 0.122878
C18   C     C_R   0.221034 0.147593 0.542891 -0.124776
C19   C     C_R   0.938416 0.237852 0.374577 0.610051
N2    N     N_R   0.023728 0.166433 0.351457 -0.558184
C20   C     C_R   0.116052 0.124525 0.385236 0.588298
O11   O     O_2   0.229591 0.215348 0.661032 -0.506281
O12   O     O_2   0.918838 0.445385 0.637775 -0.461201
H2    H     H_    0.776057 0.373883 0.430545 0.201028
O13   O     O_2   0.847779 0.277196 0.339933 -0.504414
O14   O     O_2   0.197080 0.054376 0.359702 -0.512973
H3    H     H_    0.291490 0.115893 0.571029 0.173523
C21   C     C_R   0.854029 0.086333 0.266288 -0.103107
H4    H     H_    0.745251 0.072109 0.294246 0.150571
C22   C     C_R   0.835775 0.056706 0.206757 0.114638
C23   C     C_R   0.977353 0.075787 0.169903 -0.101431
C24   C     C_R   0.136484 0.123036 0.194815 -0.181790
H5    H     H_    0.247497 0.138713 0.168120 0.158413
C25   C     C_R   0.153142 0.151911 0.254311 -0.065412
H6    H     H_    0.275479 0.188854 0.272437 0.145199
C26   C     C_R   0.011430 0.134076 0.290290 0.341591
C27   C     C_R   0.252677 0.410201 0.731811 0.209622
C28   C     C_R   0.275107 0.442037 0.791924 0.051858
C29   C     C_R   0.135166 0.423487 0.829749 -0.093000
C30   C     C_R   0.972625 0.377679 0.806077 -0.212253
H7    H     H_    0.862812 0.363133 0.833615 0.154565
C31   C     C_R   0.949796 0.348730 0.746920 -0.101762
H8    H     H_    0.824202 0.312990 0.730098 0.161099
C32   C     C_R   0.089419 0.363876 0.709465 0.302741
C33   C     C_R   0.675366 0.853920 0.619230 0.585142
N3    N     N_R   0.538404 0.825074 0.649372 -0.560952
C34   C     C_R   0.415263 0.765402 0.622627 0.630684
C35   C     C_R   0.432891 0.728400 0.563129 -0.128634
C36   C     C_R   0.570100 0.759563 0.531374 -0.042267
C37   C     C_R   0.693255 0.822290 0.559817 -0.002057
C38   C     C_R   0.316995 0.662841 0.534228 0.196600
C39   C     C_R   0.320500 0.636340 0.473648 0.164264
C40   C     C_R   0.463250 0.665895 0.441914 -0.119805
C41   C     C_R   0.586583 0.727942 0.471247 -0.036793
C42   C     C_R   0.725450 0.759760 0.440327 0.010555
C43   C     C_R   0.847751 0.821380 0.469519 -0.147557
C44   C     C_R   0.832102 0.852105 0.528429 -0.149128
C45   C     C_R   0.491406 0.634838 0.381997 0.647679
N4    N     N_R   0.621263 0.668904 0.352433 -0.557839
C46   C     C_R   0.737640 0.730184 0.380568 0.586951
O15   O     O_2   0.793232 0.913385 0.646670 -0.508074
O16   O     O_2   0.273265 0.744291 0.653706 -0.500323
O17   O     O_2   0.396578 0.569134 0.353456 -0.487477
O18   O     O_2   0.863834 0.763148 0.350754 -0.522394
H9    H     H_    0.956048 0.846441 0.446876 0.165911
H10   H     H_    0.928917 0.899752 0.549251 0.167012
C47   C     C_R   0.468027 0.639633 0.255901 -0.081867
H11   H     H_    0.332087 0.662293 0.275186 0.138794
C48   C     C_R   0.476562 0.610159 0.196348 -0.176500
H12   H     H_    0.346110 0.610859 0.171147 0.132016
C49   C     C_R   0.651171 0.580854 0.169706 -0.056955
C50   C     C_R   0.817047 0.581796 0.204458 -0.192772
H13   H     H_    0.953847 0.559617 0.185562 0.141384
C51   C     C_R   0.807783 0.610573 0.264219 -0.056902
H14   H     H_    0.936538 0.609482 0.290058 0.158339
C52   C     C_R   0.633088 0.639910 0.290579 0.360459
C53   C     C_R   0.655340 0.839099 0.749803 0.144150
C54   C     C_R   0.629698 0.870463 0.808842 -0.182864
H15   H     H_    0.734177 0.855339 0.838375 0.151816
C55   C     C_R   0.470755 0.919254 0.830344 -0.122801
C56   C     C_R   0.335690 0.937060 0.790675 0.111120
C57   C     C_R   0.362698 0.906682 0.731610 -0.134992
H16   H     H_    0.258930 0.920784 0.701556 0.172579
C58   C     C_R   0.521182 0.858021 0.710545 0.345640
C59   C     C_2   0.637322 0.267958 0.991930 -0.067428
C60   C     C_2   0.478071 0.232068 0.008072 -0.065859
O19   O     O_R   0.618210 0.960470 0.922400 -0.538607
O20   O     O_R   0.291310 0.111960 0.995450 -0.523536
O21   O     O_R   0.124210 0.039530 0.077580 -0.540080
C61   C     C_R   0.461922 0.145037 0.998825 0.774701
O22   O     O_R   0.288310 0.965490 0.917650 -0.526716
O23   O     O_R   0.121180 0.892010 0.999220 -0.523816
C62   C     C_R   0.456859 0.951067 0.893742 0.765482
O24   O     O_R   0.621230 0.107990 0.000760 -0.534744
O25   O     O_3   0.455770 0.976060 0.026840 -0.356781
V3    V     V_3+5 0.179680 0.004440 0.995020 1.573278
O26   O     O_R   0.791670 0.888040 0.004570 -0.534850
C63   C     C_R   0.961936 0.854558 0.000403 0.799532
O27   O     O_R   0.794680 0.034510 0.082370 -0.531434
C64   C     C_R   0.964444 0.047733 0.106255 0.736281
V4    V     V_3+5 0.680070 0.995560 0.005010 1.553232
O28   O     O_3   0.953840 0.023940 0.973160 -0.352896
I1    I     I_    0.393485 0.762552 0.950581 -0.397383
I2    I     I_    0.465277 0.426234 0.672543 -0.278926
C65   C     C_3   0.442577 0.496958 0.815461 -0.657044
H17   H     H_    0.389224 0.550457 0.846964 0.203167
H18   H     H_    0.550314 0.465402 0.836276 0.207059
H19   H     H_    0.517962 0.519702 0.782522 0.235022
I3    I     I_    0.160175 0.592164 0.580535 -0.137593
I4    I     I_    0.085768 0.561009 0.432472 -0.252863
C66   C     C_3   0.824588 0.784630 0.730792 -0.596767
H20   H     H_    0.819218 0.734574 0.751905 0.204734
H21   H     H_    0.825757 0.758794 0.683866 0.233040
H22   H     H_    0.961626 0.817946 0.743377 0.225890
I5    I     I_    0.092565 0.012237 0.814551 -0.293839
I6    I     I_    0.856396 0.204402 0.937259 -0.293842
I7    I     I_    0.259167 0.295764 0.062862 -0.339803
I8    I     I_    0.684978 0.481017 0.541344 -0.192336
C67   C     C_3   0.313060 0.033209 0.463059 -0.659425
H23   H     H_    0.205126 0.988559 0.440818 0.233588
H24   H     H_    0.434398 0.037420 0.434123 0.238903
H25   H     H_    0.374814 0.010982 0.498987 0.179835
I9    I     I_    0.595603 0.980020 0.178426 -0.352882

loop_
_geom_bond_atom_site_label_1
_geom_bond_atom_site_label_2
_ccdc_geom_bond_type
O19   C62   A    
O22   V3    S    
C22   I9    S    
V3    O28   S    
N4    C46   A    
O26   C63   A    
C61   O24   A    
C1    O6    A    
C47   H11   S    
C60   I7    S    
O23   C63   A    
C23   C24   A    
C28   C29   A    
O22   C62   A    
C12   C13   A    
C45   O17   S    
C2    C59   S    
C16   C20   A    
O21   V3    S    
O24   V4    S    
C14   C15   A    
C6    C63   S    
N4    C52   S    
N2    C20   A    
N3    C58   S    
O5    C3    A    
C16   C17   A    
C50   C51   A    
C9    C12   A    
C7    C11   A    
C13   H2    S    
V4    O28   S    
C60   C61   S    
C27   I2    S    
C31   H8    S    
C40   C45   A    
C37   C44   A    
C10   C15   A    
C30   H7    S    
O8    V2    S    
C23   C64   S    
C55   C56   A    
C56   C57   A    
C41   C42   A    
C57   C58   A    
C66   H22   S    
C18   H3    S    
C43   C44   A    
O1    V2    S    
O7    V1    S    
C3    C29   S    
C35   C38   A    
C5    I1    S    
C11   C18   A    
C25   C26   A    
C39   C40   A    
C33   N3    A    
N1    C8    A    
C67   H24   S    
C4    C5    S    
C42   C43   A    
C21   C22   A    
C44   H10   S    
C47   C48   A    
C5    C6    D    
C24   C25   A    
C65   H18   S    
C34   O16   S    
C30   C31   A    
C55   C62   S    
N2    C26   S    
C40   C41   A    
O21   C64   A    
C10   C11   A    
C17   C67   S    
O4    C2    A    
C50   H13   S    
C6    H1    S    
C1    C49   S    
C49   C50   A    
C8    O12   S    
C27   C28   A    
N3    C34   A    
O2    C1    A    
C15   C16   A    
C67   H25   S    
C48   H12   S    
C9    C10   A    
C57   H16   S    
C35   C36   A    
C54   C55   A    
C19   N2    A    
C33   C37   A    
C42   C46   A    
C27   C32   A    
C19   O13   S    
C51   H14   S    
O20   C61   A    
O3    C4    A    
C21   C26   A    
C47   C52   A    
C25   H6    S    
C48   C49   A    
C51   C52   A    
C14   C19   A    
O6    V2    S    
O9    V2    S    
C67   H23   S    
O19   V4    S    
C39   I4    S    
O20   V3    S    
C21   H4    S    
O2    V1    S    
C33   O15   S    
C53   C54   A    
C12   I8    S    
C22   C23   A    
C56   I5    S    
O27   C64   A    
O23   V3    S    
C65   H19   S    
C24   H5    S    
C53   C66   S    
C59   I6    S    
C43   H9    S    
O1    C2    A    
C17   C18   A    
C45   N4    A    
O5    V1    S    
C65   H17   S    
C29   C30   A    
C36   C41   A    
C59   C60   D    
C20   O14   S    
O7    V2    S    
O4    V1    S    
O3    V1    S    
V1    O10   S    
O25   V3    S    
C66   H20   S    
C54   H15   S    
C31   C32   A    
C38   I3    S    
C53   C58   A    
C34   C35   A    
O25   V4    S    
C36   C37   A    
C7    O11   S    
C28   C65   S    
N1    C32   S    
C7    N1    A    
C38   C39   A    
C46   O18   S    
C13   C14   A    
C66   H21   S    
C8    C9    A    
O26   V4    S    
O9    C4    A    
V2    O10   S    
O8    C3    A    
O27   V4    S    
