data_mof_unit_3365.cif
_audit_creation_date              2012-12-10T20:31:56-0500
_audit_creation_method            fapswitch 2.2
_symmetry_space_group_name_H-M    P1
_symmetry_Int_Tables_number       1
_space_group_crystal_system       triclinic
_cell_length_a                    9.876591
_cell_length_b                    10.677952
_cell_length_c                    15.318801
_cell_angle_alpha                 89.946377
_cell_angle_beta                  69.179696
_cell_angle_gamma                 89.292314
_cell_volume                      1509.92666012

loop_
_atom_site_label
_atom_site_type_symbol
_atom_type_description
_atom_site_fract_x
_atom_site_fract_y
_atom_site_fract_z
_atom_type_partial_charge
C1    C     C_R   0.501083 0.740033 0.496589 0.900745
C2    C     C_R   0.435230 0.391875 0.902688 0.122353
C3    C     C_R   0.292502 0.353003 0.952708 0.167777
C4    C     C_R   0.542317 0.383814 0.943575 0.001061
C5    C     C_R   0.496281 0.376227 0.041744 0.031449
C6    C     C_R   0.353200 0.336045 0.091695 -0.200779
C7    C     C_R   0.254686 0.319061 0.046297 -0.226065
C8    C     C_R   0.692797 0.387043 0.890820 0.223934
C9    C     C_R   0.790008 0.416078 0.934453 -0.273091
C10   C     C_R   0.741311 0.435536 0.030605 0.123948
C11   C     C_R   0.594465 0.412309 0.085501 0.094552
C12   C     C_R   0.410539 0.493801 0.675999 0.869977
C13   C     C_R   0.837902 0.476702 0.072735 -0.191757
C14   C     C_R   0.789702 0.497336 0.168669 -0.181575
C15   C     C_R   0.548137 0.435707 0.181422 -0.237849
C16   C     C_R   0.384376 0.938578 0.485769 0.140031
C17   C     C_R   0.508714 0.870974 0.479121 -0.163381
C18   C     C_R   0.642840 0.931086 0.450077 -0.248798
C19   C     C_R   0.647233 0.060931 0.447471 0.278563
C20   C     C_R   0.514329 0.128581 0.476420 -0.190251
C21   C     C_R   0.387162 0.066027 0.485454 0.083305
C22   C     C_3   0.238761 0.077557 0.557882 -0.398819
C23   C     C_R   0.504147 0.260040 0.494409 0.918620
C24   C     C_3   0.235091 0.935774 0.557567 -0.477841
C25   C     C_R   0.884602 0.523886 0.580123 0.316014
C26   C     C_R   0.971058 0.465626 0.422696 -0.090702
C27   C     C_R   0.114836 0.465600 0.422690 -0.120592
C28   C     C_R   0.026701 0.522052 0.580519 0.252323
C29   C     C_3   0.999854 0.636623 0.639733 -0.521279
C30   C     C_3   0.847371 0.640682 0.637501 -0.508961
C31   C     C_R   0.589730 0.497424 0.323920 0.864399
C32   C     C_R   0.360974 0.455985 0.774161 -0.073397
C33   C     C_R   0.644060 0.478520 0.222959 -0.050955
C34   C     C_R   0.189285 0.354043 0.909047 -0.218304
C35   C     C_R   0.224087 0.404032 0.819330 -0.203181
C36   C     C_R   0.463230 0.452070 0.817558 -0.193294
H1    H     H_    0.146060 0.288096 0.086016 0.160546
H2    H     H_    0.949896 0.495343 0.031409 0.144454
H3    H     H_    0.743106 0.878261 0.434514 0.195928
H4    H     H_    0.239105 0.117645 0.624808 0.206730
H5    H     H_    0.160230 0.121890 0.529891 0.234693
H6    H     H_    0.231602 0.893036 0.624568 0.200819
H7    H     H_    0.155326 0.899531 0.528138 0.213260
H8    H     H_    0.951997 0.439711 0.359846 0.163373
H9    H     H_    0.203273 0.439372 0.359771 0.146978
H10   H     H_    0.002992 0.616350 0.710202 0.215351
H11   H     H_    0.436143 0.424603 0.224764 0.144443
H12   H     H_    0.067405 0.715895 0.603147 0.212345
H13   H     H_    0.763069 0.625755 0.707242 0.214912
H14   H     H_    0.826884 0.721951 0.598233 0.216249
H15   H     H_    0.865516 0.529517 0.200092 0.152617
H16   H     H_    0.903666 0.423932 0.892828 0.163905
H17   H     H_    0.082323 0.316712 0.944390 0.149815
H18   H     H_    0.145501 0.400891 0.784973 0.171903
H19   H     H_    0.565134 0.498620 0.785036 0.173537
H20   H     H_    0.315945 0.314570 0.165260 0.148532
N1    N     N_R   0.856900 0.500860 0.500610 -0.113212
N2    N     N_R   0.142540 0.500820 0.500610 -0.116375
O1    O     O_R   0.385310 0.683210 0.499990 -0.611179
O2    O     O_R   0.614650 0.683240 0.500000 -0.626297
O3    O     O_R   0.319830 0.499970 0.632240 -0.616613
O4    O     O_R   0.549170 0.500000 0.632250 -0.597433
O5    O     O_R   0.385350 0.316760 0.500000 -0.619247
O6    O     O_R   0.614690 0.316790 0.500010 -0.551105
O7    O     O_R   0.450830 0.500000 0.367750 -0.626759
O8    O     O_R   0.680170 0.500030 0.367760 -0.619232
Zn1   Zn    Zn3+2 0.346870 0.499980 0.499990 0.951385
Zn2   Zn    Zn3+2 0.653130 0.500020 0.500010 0.990461
Br1   Br    Br    0.836073 0.135086 0.408923 -0.528115
Br2   Br    Br    0.775339 0.324381 0.764918 -0.564850

loop_
_geom_bond_atom_site_label_1
_geom_bond_atom_site_label_2
_ccdc_geom_bond_type
C8    C9    A    
C31   O8    A    
C2    C4    A    
C18   H3    S    
C31   C33   S    
C16   C21   A    
C29   C30   S    
C28   N2    A    
C12   O4    A    
C9    C10   A    
O3    Zn1   S    
O8    Zn2   S    
C19   C20   A    
C20   C23   S    
C15   H11   S    
C29   H10   S    
C4    C8    A    
C22   H4    S    
C27   H9    S    
C14   C33   A    
C23   O5    A    
C17   C18   A    
C13   H2    S    
C26   H8    S    
C16   C24   S    
C36   H19   S    
C21   C22   S    
C12   C32   S    
C35   H18   S    
C12   O3    A    
C26   C27   A    
C6    C7    A    
C9    H16   S    
C25   N1    A    
C24   H7    S    
C27   N2    A    
C32   C36   A    
C22   C24   S    
C28   C29   S    
C30   H13   S    
C5    C11   A    
C3    C7    A    
C11   C15   A    
O4    Zn2   S    
C1    O1    A    
C7    H1    S    
C5    C6    A    
C30   H14   S    
C26   N1    A    
O5    Zn1   S    
C19   Br1   S    
C22   H5    S    
C16   C17   A    
C10   C11   A    
C1    C17   S    
N1    Zn2   S    
C25   C28   A    
C32   C35   A    
O6    Zn2   S    
N2    Zn1   S    
C24   H6    S    
C20   C21   A    
O2    Zn2   S    
C34   H17   S    
C34   C35   A    
C1    O2    A    
C2    C36   A    
C25   C30   S    
C31   O7    A    
C18   C19   A    
C23   O6    A    
C2    C3    A    
C29   H12   S    
C3    C34   A    
O1    Zn1   S    
C13   C14   A    
C8    Br2   S    
C15   C33   A    
C14   H15   S    
C6    H20   S    
C4    C5    A    
O7    Zn1   S    
C10   C13   A    
