data_mof_unit_2366.cif
_audit_creation_date              2012-12-10T18:21:27-0500
_audit_creation_method            fapswitch 2.2
_symmetry_space_group_name_H-M    P1
_symmetry_Int_Tables_number       1
_space_group_crystal_system       triclinic
_cell_length_a                    14.934839
_cell_length_b                    14.085345
_cell_length_c                    10.693267
_cell_angle_alpha                 90.312716
_cell_angle_beta                  90.415866
_cell_angle_gamma                 89.805593
_cell_volume                      2249.35547557

loop_
_atom_site_label
_atom_site_type_symbol
_atom_type_description
_atom_site_fract_x
_atom_site_fract_y
_atom_site_fract_z
_atom_type_partial_charge
C1    C     C_R   0.326774 0.500185 0.495518 0.854230
C2    C     C_R   0.048865 0.494061 0.722099 -0.206433
C3    C     C_R   0.093596 0.498273 0.607897 0.136093
C4    C     C_R   0.499923 0.499638 0.257191 0.841078
C5    C     C_R   0.045488 0.503287 0.493880 0.031779
C6    C     C_R   0.090957 0.508709 0.378435 0.049113
C7    C     C_R   0.041372 0.515218 0.265703 -0.052383
C8    C     C_R   0.947388 0.514893 0.267731 -0.050516
C9    C     C_R   0.186048 0.497364 0.606224 -0.262592
C10   C     C_R   0.230933 0.500961 0.493431 -0.051449
C11   C     C_R   0.184871 0.507346 0.379892 -0.250524
C12   C     C_3   0.573442 0.514031 0.919839 -0.404537
C13   C     C_R   0.530234 0.798344 0.398318 -0.072732
C14   C     C_R   0.529929 0.200534 0.398173 -0.069893
C15   C     C_R   0.474842 0.798332 0.605104 -0.062471
C16   C     C_R   0.475249 0.202283 0.605263 -0.060521
C17   C     C_R   0.474201 0.898960 0.609720 -0.052671
C18   C     C_R   0.473305 0.101640 0.609283 -0.052942
C19   C     C_R   0.672690 0.499893 0.503881 0.904412
C20   C     C_R   0.501541 0.949372 0.503268 0.067239
C21   C     C_R   0.501397 0.050348 0.503190 0.066425
C22   C     C_R   0.532422 0.898624 0.397974 0.027010
C23   C     C_R   0.809712 0.506735 0.388119 -0.241257
C24   C     C_R   0.532378 0.100140 0.397943 0.029470
C25   C     C_R   0.448769 0.950057 0.718250 -0.051880
C26   C     C_R   0.446870 0.051204 0.717277 -0.050092
C27   C     C_R   0.567254 0.048563 0.296529 -0.196947
C28   C     C_R   0.567065 0.949079 0.296451 -0.191506
C29   C     C_R   0.480504 0.500708 0.738656 0.790438
C30   C     C_3   0.419993 0.572644 0.081273 -0.419075
C31   C     C_3   0.465482 0.399466 0.070043 -0.412491
C32   C     C_3   0.419242 0.589854 0.938023 -0.142497
C33   C     C_3   0.436904 0.405497 0.930573 -0.136654
C34   C     C_R   0.767463 0.499861 0.502533 -0.052543
C35   C     C_3   0.581654 0.527026 0.061890 -0.447532
C36   C     C_3   0.492117 0.499453 0.120361 0.137207
C37   C     C_3   0.472653 0.502689 0.876863 0.074967
C38   C     C_1   0.085027 0.522381 0.146508 0.121345
C39   C     C_1   0.897014 0.521560 0.151066 0.154930
C40   C     C_R   0.433199 0.899660 0.837802 0.122543
C41   C     C_R   0.506442 0.863460 0.905477 -0.166198
C42   C     C_R   0.494309 0.827874 0.025794 -0.171049
C43   C     C_R   0.409875 0.831723 0.081081 -0.115473
C44   C     C_R   0.336438 0.865631 0.013114 -0.104262
C45   C     C_R   0.814730 0.495024 0.614518 -0.259921
C46   C     C_R   0.347398 0.896351 0.890218 -0.108019
C47   C     C_R   0.421775 0.102372 0.833261 0.121570
C48   C     C_R   0.331329 0.111932 0.865730 -0.143179
C49   C     C_R   0.308058 0.142458 0.985744 -0.097760
C50   C     C_R   0.374667 0.168582 0.071335 -0.096710
C51   C     C_R   0.464582 0.163896 0.036879 -0.143064
C52   C     C_R   0.488403 0.129821 0.918851 -0.161845
C53   C     C_R   0.325681 0.625290 0.892069 0.111815
C54   C     C_R   0.258824 0.657674 0.976718 -0.072433
C55   C     C_R   0.181297 0.704419 0.935159 -0.125629
C56   C     C_R   0.907460 0.496791 0.612388 0.142147
C57   C     C_R   0.168663 0.723042 0.808976 -0.122365
C58   C     C_R   0.234792 0.697338 0.724847 -0.129352
C59   C     C_R   0.311757 0.650107 0.766538 -0.227336
C60   C     C_R   0.337038 0.382930 0.905134 0.141075
C61   C     C_R   0.311816 0.347822 0.786499 -0.218161
C62   C     C_R   0.227231 0.309017 0.763940 -0.133527
C63   C     C_R   0.164825 0.305137 0.859491 -0.142980
C64   C     C_R   0.186843 0.340899 0.977208 -0.138445
C65   C     C_R   0.270995 0.381335 0.999659 -0.085027
C66   C     C_R   0.952033 0.502828 0.496135 0.036856
C67   C     C_R   0.902836 0.508157 0.382856 0.047937
C68   C     C_R   0.956076 0.492823 0.724415 -0.231192
H1    H     H_    0.430140 0.641924 0.128976 0.173096
H2    H     H_    0.596693 0.084808 0.218173 0.133952
H3    H     H_    0.595991 0.911835 0.217919 0.139886
H4    H     H_    0.355984 0.543155 0.114274 0.150768
H5    H     H_    0.415425 0.364467 0.129583 0.166547
H6    H     H_    0.462354 0.652768 0.922060 0.172143
H7    H     H_    0.474587 0.346505 0.885136 0.155340
H8    H     H_    0.597969 0.602242 0.084981 0.181452
H9    H     H_    0.637125 0.481854 0.098666 0.169058
H10   H     H_    0.605520 0.576256 0.874673 0.184942
H11   H     H_    0.612788 0.450176 0.891478 0.180565
H12   H     H_    0.525462 0.352654 0.077858 0.163539
H13   H     H_    0.768871 0.510792 0.304033 0.134008
H14   H     H_    0.779186 0.490432 0.702469 0.132377
H15   H     H_    0.922358 0.488618 0.813547 0.173822
H16   H     H_    0.572962 0.864382 0.865853 0.132121
H17   H     H_    0.550520 0.797849 0.076310 0.115739
H18   H     H_    0.400958 0.806993 0.175777 0.124829
H19   H     H_    0.270827 0.867324 0.055331 0.119432
H20   H     H_    0.289704 0.921140 0.837872 0.114850
H21   H     H_    0.279166 0.091193 0.800335 0.115403
H22   H     H_    0.238391 0.145700 0.012430 0.126240
H23   H     H_    0.085805 0.491101 0.809357 0.194735
H24   H     H_    0.356627 0.193367 0.163798 0.121676
H25   H     H_    0.515873 0.186419 0.101801 0.108275
H26   H     H_    0.558496 0.122663 0.895215 0.127022
H27   H     H_    0.265929 0.653050 0.076814 0.109872
H28   H     H_    0.131793 0.728150 0.001973 0.130380
H29   H     H_    0.109040 0.759720 0.777003 0.129790
H30   H     H_    0.227104 0.714757 0.626859 0.151419
H31   H     H_    0.361223 0.637274 0.699708 0.192481
H32   H     H_    0.357352 0.348846 0.710245 0.174293
H33   H     H_    0.210345 0.281699 0.671972 0.145976
H34   H     H_    0.223337 0.494863 0.693045 0.167452
H35   H     H_    0.099511 0.274454 0.842418 0.133419
H36   H     H_    0.138625 0.336583 0.051993 0.138179
H37   H     H_    0.282919 0.408265 0.092649 0.103275
H38   H     H_    0.222767 0.511031 0.293984 0.125169
H39   H     H_    0.553529 0.758764 0.317798 0.128095
H40   H     H_    0.553224 0.239348 0.317746 0.125922
H41   H     H_    0.456232 0.758254 0.686089 0.140545
H42   H     H_    0.459297 0.242530 0.687618 0.133085
N1    N     N_R   0.500070 0.750030 0.500050 -0.104099
N2    N     N_R   0.500070 0.249970 0.500050 -0.103150
N3    N     N_1   0.117647 0.527985 0.049496 -0.235075
N4    N     N_1   0.856831 0.526910 0.058402 -0.247898
O1    O     O_R   0.367860 0.580280 0.500020 -0.637987
O2    O     O_R   0.367860 0.419720 0.500020 -0.629313
O3    O     O_R   0.500000 0.580270 0.314790 -0.635188
O4    O     O_R   0.500000 0.419730 0.314790 -0.635649
O5    O     O_R   0.632160 0.580270 0.499960 -0.603753
O6    O     O_R   0.632160 0.419730 0.499960 -0.605075
O7    O     O_R   0.500030 0.580270 0.685200 -0.643231
O8    O     O_R   0.500030 0.419730 0.685200 -0.641123
Zn1   Zn    Zn3+2 0.500020 0.607200 0.499990 0.927304
Zn2   Zn    Zn3+2 0.500020 0.392800 0.499990 0.929447

loop_
_geom_bond_atom_site_label_1
_geom_bond_atom_site_label_2
_ccdc_geom_bond_type
C4    C36   S    
C18   C21   A    
C59   H31   S    
C41   C42   A    
C15   H41   S    
C45   H14   S    
C58   H30   S    
C24   C27   A    
C49   H22   S    
C13   H39   S    
C53   C59   A    
C16   H42   S    
C7    C8    A    
C53   C54   A    
C40   C46   A    
N2    Zn2   S    
C2    C68   A    
C25   C40   S    
C32   H6    S    
C5    C6    A    
C31   H5    S    
C23   C67   A    
C12   H11   S    
C17   C20   A    
C12   H10   S    
C15   C17   A    
C14   C24   A    
C12   C37   S    
C33   H7    S    
C35   C36   S    
C45   C56   A    
C9    H34   S    
C18   C26   A    
C31   C33   S    
C52   H26   S    
C1    O2    A    
C44   H19   S    
O2    Zn2   S    
C9    C10   A    
C62   H33   S    
C23   C34   A    
C14   H40   S    
C66   C67   A    
C19   O5    A    
C22   C28   A    
C43   H18   S    
C4    O4    A    
C61   C62   A    
C65   H37   S    
C44   C46   A    
C46   H20   S    
C35   H8    S    
O1    Zn1   S    
N1    Zn1   S    
C51   C52   A    
C15   N1    A    
C31   H12   S    
C63   H35   S    
C6    C11   A    
C42   H17   S    
C38   N3    T    
C5    C66   A    
C25   C26   A    
C56   C68   A    
C41   H16   S    
C35   H9    S    
C33   C37   S    
C29   O7    A    
C60   C61   A    
C14   N2    A    
C43   C44   A    
C62   C63   A    
C3    C9    A    
C47   C48   A    
C39   N4    T    
C57   H29   S    
C29   O8    A    
C11   H38   S    
C50   C51   A    
C34   C45   A    
O4    Zn2   S    
C32   C37   S    
C12   C35   S    
C54   H27   S    
C47   C52   A    
C27   H2    S    
C26   C47   S    
C51   H25   S    
C50   H24   S    
C40   C41   A    
C8    C39   S    
C20   C22   A    
C19   O6    A    
C33   C60   S    
C48   H21   S    
C55   C57   A    
C4    O3    A    
C28   H3    S    
C42   C43   A    
O8    Zn2   S    
C32   C53   S    
C30   H1    S    
C16   N2    A    
C64   H36   S    
C54   C55   A    
C48   C49   A    
C23   H13   S    
C68   H15   S    
C1    C10   S    
C55   H28   S    
C3    C5    A    
C19   C34   S    
C60   C65   A    
C30   H4    S    
C6    C7    A    
O5    Zn1   S    
C30   C36   S    
C17   C25   A    
C64   C65   A    
C2    C3    A    
C58   C59   A    
C13   N1    A    
C30   C32   S    
C57   C58   A    
C56   C66   A    
C7    C38   S    
C13   C22   A    
O3    Zn1   S    
C2    H23   S    
O7    Zn1   S    
C10   C11   A    
C63   C64   A    
C61   H32   S    
C20   C21   A    
C8    C67   A    
C16   C18   A    
C49   C50   A    
C21   C24   A    
C29   C37   S    
C27   C28   A    
C31   C36   S    
C1    O1    A    
O6    Zn2   S    
