data_mof_unit_3912.cif
_audit_creation_date              2012-12-10T18:57:52-0500
_audit_creation_method            fapswitch 2.2
_symmetry_space_group_name_H-M    P1
_symmetry_Int_Tables_number       1
_space_group_crystal_system       triclinic
_cell_length_a                    10.833434
_cell_length_b                    9.88407
_cell_length_c                    8.907807
_cell_angle_alpha                 90.153797
_cell_angle_beta                  91.086668
_cell_angle_gamma                 89.951592
_cell_volume                      953.65861773

loop_
_atom_site_label
_atom_site_type_symbol
_atom_type_description
_atom_site_fract_x
_atom_site_fract_y
_atom_site_fract_z
_atom_type_partial_charge
C1    C     C_R   0.260340 0.500770 0.509541 0.922041
C2    C     C_R   0.063130 0.625311 0.491300 0.127198
C3    C     C_R   0.873460 0.498147 0.493479 -0.190173
C4    C     C_R   0.127653 0.504004 0.522168 -0.195746
C5    C     C_R   0.564196 0.074314 0.608174 0.411672
C6    C     C_R   0.437268 0.926685 0.390074 0.326239
C7    C     C_R   0.435932 0.072591 0.391115 0.274784
C8    C     C_R   0.564823 0.929924 0.608366 0.254126
C9    C     C_3   0.155544 0.158151 0.550096 -0.689690
C10   C     C_3   0.853788 0.754625 0.262654 -0.742193
C11   C     C_3   0.856525 0.174606 0.416362 -0.692686
C12   C     C_R   0.740158 0.499497 0.495296 0.898704
C13   C     C_3   0.146601 0.808144 0.641355 -0.730171
C14   C     C_R   0.499886 0.499893 0.218756 0.918033
C15   C     C_R   0.500266 0.500117 0.781252 0.906347
C16   C     C_1   0.500076 0.499864 0.065415 -0.166491
C17   C     C_1   0.500207 0.500188 0.934597 -0.154654
C18   C     C_R   0.064929 0.384726 0.558223 0.102342
C19   C     C_R   0.936406 0.620939 0.468518 0.119826
C20   C     C_R   0.938026 0.378399 0.534366 0.122906
H1    H     H_    0.096332 0.258976 0.742015 0.209923
H2    H     H_    0.945689 0.141197 0.369975 0.209397
H3    H     H_    0.807176 0.235549 0.329547 0.244809
H4    H     H_    0.800129 0.083772 0.440450 0.220121
H5    H     H_    0.097009 0.822742 0.413684 0.232587
H6    H     H_    0.060263 0.853554 0.684162 0.210305
H7    H     H_    0.219712 0.886167 0.636828 0.233199
H8    H     H_    0.179289 0.728763 0.720922 0.243596
H9    H     H_    0.673899 0.088735 0.784646 0.361910
H10   H     H_    0.381776 0.902865 0.184112 0.326591
H11   H     H_    0.301446 0.090260 0.244687 0.316223
H12   H     H_    0.084603 0.079668 0.568754 0.203473
H13   H     H_    0.655055 0.775999 0.683153 0.392611
H14   H     H_    0.246172 0.118249 0.588825 0.234903
H15   H     H_    0.159760 0.180549 0.428274 0.261366
H16   H     H_    0.897762 0.828856 0.476718 0.223679
H17   H     H_    0.944072 0.767146 0.207258 0.222913
H18   H     H_    0.795806 0.845056 0.238898 0.237689
H19   H     H_    0.805666 0.664347 0.215462 0.243491
H20   H     H_    0.904048 0.194789 0.643601 0.230489
N1    N     N_R   0.500000 0.857200 0.500000 -0.158960
N2    N     N_R   0.500000 0.142800 0.500000 -0.141482
N3    N     N_2   0.128023 0.278374 0.635781 -0.289701
N4    N     N_2   0.871769 0.740540 0.423116 -0.279828
N5    N     N_2   0.875529 0.252429 0.553231 -0.241735
N6    N     N_2   0.125265 0.752573 0.492506 -0.252089
O1    O     O_R   0.316770 0.614620 0.499990 -0.560240
O2    O     O_3   0.377243 0.852628 0.279837 -0.716459
O3    O     O_3   0.369255 0.146576 0.286594 -0.722008
O4    O     O_3   0.632210 0.866020 0.719705 -0.779121
O5    O     O_R   0.683230 0.385380 0.500010 -0.567631
O6    O     O_R   0.683230 0.614620 0.500010 -0.629748
O7    O     O_R   0.316770 0.385380 0.499990 -0.568901
O8    O     O_R   0.500010 0.614640 0.285340 -0.562228
O9    O     O_R   0.499990 0.385360 0.714660 -0.558018
O10   O     O_R   0.499990 0.614640 0.714660 -0.628314
O11   O     O_R   0.500010 0.385360 0.285340 -0.564733
O12   O     O_3   0.629679 0.149283 0.713612 -0.709643
Zn1   Zn    Zn3+2 0.500000 0.653120 0.500000 1.005364
Zn2   Zn    Zn3+2 0.500000 0.346880 0.500000 1.043788

loop_
_geom_bond_atom_site_label_1
_geom_bond_atom_site_label_2
_ccdc_geom_bond_type
C5    C8    A    
C2    C4    A    
C5    N2    A    
C13   H8    S    
C3    C19   A    
C6    C7    A    
O5    Zn2   S    
O6    Zn1   S    
H20   N5    S    
C11   H2    S    
C20   N5    S    
O10   Zn1   S    
C19   N4    S    
C10   H18   S    
C1    C4    S    
C4    C18   A    
C15   O10   A    
C2    C19   A    
C3    C20   A    
H1    N3    S    
C18   N3    S    
C8    N1    A    
N1    Zn1   S    
C9    H14   S    
C6    O2    S    
C5    O12   S    
H11   O3    S    
C10   H17   S    
C11   N5    S    
H10   O2    S    
C14   O8    A    
O7    Zn2   S    
C18   C20   A    
O8    Zn1   S    
C2    N6    S    
C13   N6    S    
C14   C16   S    
C13   H6    S    
C9    N3    S    
H16   N4    S    
O1    Zn1   S    
C8    O4    S    
C11   H4    S    
C12   O5    A    
H9    O12   S    
C7    O3    S    
C15   C17   S    
C7    N2    A    
N2    Zn2   S    
C11   H3    S    
C9    H15   S    
C14   O11   A    
C1    O7    A    
C1    O1    A    
O11   Zn2   S    
C3    C12   S    
C9    H12   S    
C12   O6    A    
H13   O4    S    
O9    Zn2   S    
C10   N4    S    
H5    N6    S    
C13   H7    S    
C16   C17   T    
C10   H19   S    
C6    N1    A    
C15   O9    A    
