data_mof_unit_1512.cif
_audit_creation_date              2012-12-11T14:50:54-0500
_audit_creation_method            fapswitch 2.2
_symmetry_space_group_name_H-M    P1
_symmetry_Int_Tables_number       1
_space_group_crystal_system       triclinic
_cell_length_a                    11.037605
_cell_length_b                    10.976613
_cell_length_c                    18.825671
_cell_angle_alpha                 90.131643
_cell_angle_beta                  89.5666
_cell_angle_gamma                 60.371067
_cell_volume                      1982.49984013

loop_
_atom_site_label
_atom_site_type_symbol
_atom_type_description
_atom_site_fract_x
_atom_site_fract_y
_atom_site_fract_z
_atom_type_partial_charge
C1    C     C_R   0.231855 0.648122 0.608937 0.610984
C2    C     C_R   0.563954 0.166794 0.786267 0.472072
C3    C     C_R   0.556524 0.174299 0.714582 0.432357
C4    C     C_R   0.653064 0.618873 0.601581 0.660665
C5    C     C_R   0.663485 0.172605 0.674058 -0.026207
C6    C     C_R   0.197506 0.550908 0.723751 0.272105
C7    C     C_R   0.204493 0.553752 0.798354 0.253124
C8    C     C_R   0.180595 0.675822 0.833395 -0.018537
C9    C     C_R   0.175643 0.786009 0.793345 0.266659
C10   C     C_R   0.160649 0.788332 0.720152 0.441052
C11   C     C_R   0.180105 0.667480 0.683494 0.021786
C12   C     C_3   0.798892 0.518658 0.789365 0.526714
C13   C     C_R   0.728796 0.521115 0.270007 0.395350
C14   C     C_R   0.724294 0.532236 0.196892 0.256057
C15   C     C_R   0.644937 0.664779 0.165193 -0.054826
C16   C     C_R   0.628113 0.227160 0.602171 0.616632
C17   C     C_R   0.548375 0.779100 0.207758 0.249365
C18   C     C_R   0.549772 0.765386 0.281474 0.395848
C19   C     C_R   0.644702 0.638493 0.313303 -0.008642
C20   C     C_R   0.688566 0.057699 0.298148 0.232834
C21   C     C_R   0.697641 0.031457 0.225752 0.357593
C22   C     C_R   0.652760 0.142670 0.177490 0.021691
C23   C     C_3   0.726394 0.680634 0.807815 -0.115720
C24   C     C_R   0.582916 0.281590 0.200822 0.234512
C25   C     C_R   0.576341 0.307924 0.273247 0.380223
C26   C     C_R   0.635528 0.195674 0.321267 0.025923
C27   C     C_R   0.071249 0.820319 0.311469 0.244178
C28   C     C_R   0.215115 0.652266 0.403855 0.609126
C29   C     C_R   0.044832 0.837616 0.239106 0.224285
C30   C     C_R   0.056052 0.724160 0.197167 -0.006905
C31   C     C_R   0.081862 0.598479 0.231485 0.221006
C32   C     C_R   0.114775 0.580685 0.303704 0.227337
C33   C     C_R   0.125283 0.686351 0.341351 -0.017067
C34   C     C_3   0.679368 0.644046 0.675446 -0.141774
C35   C     C_R   0.701343 0.101749 0.895921 0.608894
C36   C     C_R   0.751926 0.705937 0.882728 0.644218
C37   C     C_R   0.119243 0.706956 0.905634 0.606146
C38   C     C_R   0.674160 0.106680 0.103587 0.641342
C39   C     C_R   0.693028 0.688417 0.096181 0.622614
C40   C     C_R   0.638433 0.617077 0.389722 0.636419
C41   C     C_R   0.031538 0.744177 0.119884 0.617382
C42   C     C_R   0.616275 0.230443 0.395184 0.643775
C43   C     C_3   0.566832 0.745015 0.795826 0.710181
C44   C     C_3   0.540609 0.708352 0.720513 0.477248
C45   C     C_3   0.748223 0.737518 0.677159 0.527783
C46   C     C_3   0.781558 0.753437 0.755930 0.574957
C47   C     C_3   0.786057 0.500298 0.709775 0.684702
C48   C     C_R   0.786499 0.148645 0.707464 0.453569
C49   C     C_R   0.792318 0.147453 0.781845 0.251467
C50   C     C_R   0.682705 0.152117 0.822295 -0.044063
Cl1   Cl    Cl    0.930231 0.153339 0.822718 -0.224764
Cl2   Cl    Cl    0.478103 0.585522 0.725249 -0.545184
Cl3   Cl    Cl    0.002229 0.004257 0.203915 -0.344158
Cl4   Cl    Cl    0.082924 0.456158 0.186217 -0.323925
Cl5   Cl    Cl    0.139909 0.425470 0.345907 -0.323443
Cl6   Cl    Cl    0.640928 0.898786 0.633188 -0.319877
Cl7   Cl    Cl    0.979939 0.415385 0.811284 -0.154050
Cl8   Cl    Cl    0.193410 0.408941 0.682795 -0.153046
Cl9   Cl    Cl    0.254701 0.403242 0.849529 -0.299976
Cl10  Cl    Cl    0.221877 0.904377 0.831154 -0.154298
Cl11  Cl    Cl    0.822374 0.375237 0.147223 -0.316115
Cl12  Cl    Cl    0.424331 0.942205 0.172310 -0.313323
Cl13  Cl    Cl    0.738784 0.918611 0.358530 -0.473862
Cl14  Cl    Cl    0.496059 0.421662 0.141168 -0.457553
Cl15  Cl    Cl    0.032219 0.970111 0.364515 -0.339155
Cr1   Cr    Cr6+3 0.392930 0.397900 0.502230 1.252094
Cr2   Cr    Cr6+3 0.398240 0.708600 0.501260 1.285657
Cr3   Cr    Cr6+3 0.708800 0.393470 0.496460 1.287092
Cr4   Cr    Cr6+3 0.937620 0.938540 0.007640 1.224203
Cr5   Cr    Cr6+3 0.625150 0.937450 0.994520 1.270245
Cr6   Cr    Cr6+3 0.937990 0.625080 0.001190 1.242495
F1    F     F_    0.500086 0.889691 0.803161 -0.398629
F2    F     F_    0.812539 0.392350 0.298085 -0.494658
F3    F     F_    0.459930 0.877023 0.321917 -0.496135
F4    F     F_    0.749077 0.897869 0.201979 -0.658707
F5    F     F_    0.506420 0.442445 0.297425 -0.631223
F6    F     F_    0.436344 0.828949 0.689435 -0.427999
F7    F     F_    0.725703 0.891690 0.773810 -0.618541
F8    F     F_    0.731824 0.460644 0.827437 -0.511616
F9    F     F_    0.744295 0.403074 0.699982 -0.537602
F10   F     F_    0.914666 0.444949 0.675646 -0.419132
F11   F     F_    0.922764 0.694850 0.764098 -0.624538
F12   F     F_    0.871213 0.676368 0.637651 -0.513254
F13   F     F_    0.894729 0.139874 0.668547 -0.430298
F14   F     F_    0.464031 0.146591 0.817317 -0.402190
F15   F     F_    0.447890 0.168784 0.684703 -0.419133
F16   F     F_    0.511311 0.695701 0.847385 -0.494862
F17   F     F_    0.146512 0.902278 0.684729 -0.427953
O1    O     O_R   0.507430 0.255570 0.581420 -0.421006
O2    O     O_R   0.837200 0.593290 0.915250 -0.427660
O3    O     O_R   0.065330 0.635370 0.931590 -0.458647
O4    O     O_R   0.280190 0.527390 0.578910 -0.472237
O5    O     O_R   0.068300 0.828790 0.091860 -0.432552
O6    O     O_R   0.798730 0.057480 0.079370 -0.463257
O7    O     O_R   0.584680 0.080480 0.076790 -0.443480
O8    O     O_R   0.626790 0.809640 0.067050 -0.446653
O9    O     O_R   0.816010 0.596460 0.076500 -0.440296
O10   O     O_R   0.045680 0.638310 0.081070 -0.441107
O11   O     O_3   0.833590 0.833690 0.001120 -0.398329
O12   O     O_R   0.524460 0.695920 0.424060 -0.440613
O13   O     O_R   0.260310 0.739740 0.584580 -0.392974
O14   O     O_R   0.532250 0.695150 0.573830 -0.427117
O15   O     O_R   0.744930 0.503430 0.576380 -0.388398
O16   O     O_R   0.699250 0.276390 0.571950 -0.426968
O17   O     O_R   0.499020 0.256400 0.419850 -0.445859
O18   O     O_R   0.272400 0.528160 0.429140 -0.451113
O19   O     O_R   0.251910 0.740570 0.423020 -0.439895
O20   O     O_R   0.736530 0.504260 0.414810 -0.422119
O21   O     O_R   0.691460 0.277160 0.422180 -0.445393
O22   O     O_3   0.499990 0.499990 0.499980 -0.381033
O23   O     O_R   0.089490 0.825610 0.930610 -0.455003
O24   O     O_R   0.818370 0.054540 0.929880 -0.471359
O25   O     O_R   0.605870 0.077310 0.915530 -0.401104
O26   O     O_R   0.646440 0.806700 0.917570 -0.394847

loop_
_geom_bond_atom_site_label_1
_geom_bond_atom_site_label_2
_ccdc_geom_bond_type
C12   F8    S    
C43   F1    S    
C27   C29   A    
C6    Cl8   S    
C1    C11   S    
Cr3   O15   S    
C36   O26   A    
C7    C8    A    
C45   C46   S    
Cr5   O26   S    
Cr6   O9    S    
C12   C23   S    
C10   F17   S    
C29   Cl3   S    
C44   F6    S    
C42   O21   A    
Cr4   O5    S    
C30   C31   A    
Cr4   O24   S    
C39   O9    A    
C28   O19   A    
C22   C38   S    
C4    O15   A    
C23   C43   S    
C2    F14   S    
C18   C19   A    
C5    C16   S    
C2    C50   A    
C46   F11   S    
C16   O16   A    
C41   O5    A    
C45   Cl6   S    
C28   O18   A    
C8    C9    A    
C49   Cl1   S    
C4    O14   A    
C38   O7    A    
C30   C41   S    
C35   O25   A    
C9    C10   A    
C32   Cl5   S    
C40   O20   A    
C44   Cl2   S    
C16   O1    A    
C24   Cl14  S    
C23   C46   S    
C13   C14   A    
C3    F15   S    
C45   F12   S    
C47   F9    S    
Cr1   O18   S    
C12   C47   S    
C7    Cl9   S    
Cr6   O10   S    
Cr1   O1    S    
Cr5   O25   S    
C5    C48   A    
C4    C34   S    
C37   O3    A    
C31   Cl4   S    
C34   C44   S    
C24   C25   A    
Cr4   O6    S    
C10   C11   A    
C6    C11   A    
C46   F7    S    
C13   C19   A    
Cr1   O4    S    
C25   C26   A    
C14   Cl11  S    
Cr6   O11   S    
C27   C33   A    
C48   F13   S    
Cr5   O8    S    
C43   C44   S    
C29   C30   A    
C27   Cl15  S    
C17   Cl12  S    
Cr2   O22   S    
C31   C32   A    
C38   O6    A    
C35   C50   S    
C17   C18   A    
C34   C45   S    
Cr3   O22   S    
Cr1   O22   S    
C15   C39   S    
Cr2   O12   S    
C12   Cl7   S    
Cr4   O11   S    
C48   C49   A    
C13   F2    S    
C28   C33   S    
C23   C36   S    
C1    O4    A    
C22   C24   A    
C8    C37   S    
Cr1   O17   S    
C1    O13   A    
Cr5   O11   S    
Cr2   O13   S    
C36   O2    A    
C15   C17   A    
C14   C15   A    
Cr3   O16   S    
C3    C5    A    
C40   O12   A    
C6    C7    A    
C21   F4    S    
C25   F5    S    
C43   F16   S    
C32   C33   A    
C9    Cl10  S    
C20   Cl13  S    
Cr5   O7    S    
Cr4   O23   S    
Cr2   O19   S    
Cr6   O2    S    
C20   C26   A    
C2    C3    A    
Cr3   O21   S    
C47   F10   S    
C26   C42   S    
C42   O17   A    
C39   O8    A    
C37   O23   A    
C19   C40   S    
Cr6   O3    S    
C20   C21   A    
C18   F3    S    
C49   C50   A    
C41   O10   A    
C34   C47   S    
Cr3   O20   S    
C21   C22   A    
C35   O24   A    
Cr2   O14   S    
