data_mof_unit_2844.cif
_audit_creation_date              2012-12-11T15:39:31-0500
_audit_creation_method            fapswitch 2.2
_symmetry_space_group_name_H-M    P1
_symmetry_Int_Tables_number       1
_space_group_crystal_system       triclinic
_cell_length_a                    17.396085
_cell_length_b                    24.269525
_cell_length_c                    15.177103
_cell_angle_alpha                 90.156483
_cell_angle_beta                  126.002379
_cell_angle_gamma                 89.741686
_cell_volume                      5183.72323148

loop_
_atom_site_label
_atom_site_type_symbol
_atom_type_description
_atom_site_fract_x
_atom_site_fract_y
_atom_site_fract_z
_atom_type_partial_charge
Br1   Br    Br    0.584194 0.616737 0.362754 -0.594008
Br2   Br    Br    0.445392 0.616977 0.647991 -0.555761
Br3   Br    Br    0.078137 0.116473 0.361847 -0.574910
Br4   Br    Br    0.926397 0.117262 0.641378 -0.572527
C1    C     C_R   0.315988 0.368234 0.909637 -0.125378
C2    C     C_R   0.485491 0.499293 0.667698 -0.052178
C3    C     C_R   0.189081 0.862612 0.002606 0.039744
C4    C     C_R   0.036544 0.999803 0.347589 -0.038902
C5    C     C_R   0.952361 0.997499 0.645524 -0.045677
C6    C     C_R   0.173047 0.502053 0.713069 0.034707
C7    C     C_R   0.802238 0.501318 0.366178 0.035702
C8    C     C_R   0.673086 0.002073 0.713243 0.034448
C9    C     C_R   0.302229 0.001320 0.366169 0.034799
C10   C     C_R   0.021221 0.553861 0.616514 0.133127
C11   C     C_R   0.926910 0.553640 0.528907 0.156342
C12   C     C_R   0.521333 0.053915 0.616308 0.133150
C13   C     C_R   0.690290 0.375209 0.093363 -0.121008
C14   C     C_R   0.427053 0.053681 0.528646 0.166382
C15   C     C_R   0.070864 0.504087 0.658119 0.045587
C16   C     C_R   0.880655 0.503623 0.481440 0.043579
C17   C     C_R   0.570903 0.004141 0.658183 0.043880
C18   C     C_R   0.380742 0.003655 0.481372 0.047402
C19   C     C_R   0.018138 0.455264 0.631165 -0.186778
C20   C     C_R   0.922426 0.454995 0.542105 -0.189806
C21   C     C_R   0.518134 0.955341 0.631315 -0.186658
C22   C     C_R   0.422453 0.955059 0.542175 -0.189662
C23   C     C_3   0.938456 0.603832 0.480396 -0.484226
C24   C     C_R   0.816494 0.867663 0.909338 -0.126133
C25   C     C_3   0.041573 0.604018 0.576221 -0.485704
C26   C     C_3   0.438709 0.103729 0.479902 -0.489568
C27   C     C_3   0.541805 0.103928 0.575784 -0.486193
C28   C     C_R   0.294411 0.771534 0.903611 -0.134805
C29   C     C_R   0.708091 0.769431 0.099181 -0.130263
C30   C     C_R   0.796290 0.271887 0.904761 -0.135272
C31   C     C_R   0.209793 0.269013 0.100069 -0.130028
C32   C     C_R   0.747441 0.316564 0.906482 -0.206636
C33   C     C_R   0.261375 0.311754 0.099030 -0.206598
C34   C     C_R   0.246660 0.816869 0.905234 -0.206917
C35   C     C_R   0.190617 0.875785 0.092929 -0.119160
C36   C     C_R   0.760823 0.811449 0.098127 -0.205047
C37   C     C_R   0.763006 0.332230 0.004740 0.147391
C38   C     C_R   0.244171 0.327804 0.000291 0.149701
C39   C     C_R   0.263426 0.833485 0.003661 0.147740
C40   C     C_R   0.744721 0.826655 0.999535 0.148839
C41   C     C_R   0.443134 0.652658 0.089119 -0.175004
C42   C     C_R   0.554819 0.653220 0.911864 -0.173982
C43   C     C_R   0.943979 0.152752 0.089292 -0.188308
C44   C     C_R   0.056188 0.152935 0.911881 -0.164259
C45   C     C_R   0.842579 0.311764 0.103002 -0.169696
C46   C     C_R   0.383251 0.685220 0.998692 -0.159674
C47   C     C_R   0.161487 0.310091 0.902044 -0.173876
C48   C     C_R   0.343120 0.812987 0.101861 -0.168910
C49   C     C_R   0.662176 0.808934 0.901180 -0.174655
C50   C     C_R   0.391604 0.768023 0.100422 -0.140555
C51   C     C_R   0.609384 0.766925 0.902195 -0.137389
C52   C     C_R   0.892154 0.267514 0.101474 -0.142134
C53   C     C_R   0.109742 0.267363 0.903021 -0.136860
C54   C     C_R   0.360385 0.743333 0.000733 0.171406
C55   C     C_R   0.639566 0.742613 0.001653 0.169563
C56   C     C_R   0.861889 0.243434 0.001627 0.171255
C57   C     C_R   0.615871 0.685035 0.002904 -0.170007
C58   C     C_R   0.141026 0.242396 0.002334 0.170958
C59   C     C_R   0.584238 0.527097 0.612930 -0.129923
C60   C     C_R   0.605886 0.524784 0.539379 -0.118933
C61   C     C_R   0.910443 0.025221 0.469162 -0.119568
C62   C     C_R   0.935853 0.028220 0.399276 -0.130774
C63   C     C_R   0.547288 0.494160 0.444840 0.158634
C64   C     C_R   0.505339 0.498141 0.590589 0.183288
C65   C     C_R   0.016428 0.999536 0.424613 0.183350
C66   C     C_R   0.966977 0.994323 0.563658 0.156966
C67   C     C_R   0.470552 0.463563 0.425097 -0.174822
C68   C     C_R   0.884392 0.185380 0.999047 -0.156598
C69   C     C_R   0.449757 0.465363 0.498914 -0.163325
C70   C     C_R   0.070288 0.966468 0.516274 -0.165677
C71   C     C_R   0.045715 0.964094 0.586937 -0.173607
C72   C     C_R   0.545921 0.452875 0.298994 -0.224468
C73   C     C_R   0.477161 0.453502 0.713460 -0.208588
C74   C     C_R   0.034246 0.953839 0.294079 -0.214106
C75   C     C_R   0.959397 0.952769 0.703372 -0.220885
C76   C     C_R   0.232135 0.547090 0.749318 -0.105921
C77   C     C_R   0.753432 0.546400 0.302234 -0.095240
C78   C     C_R   0.732170 0.047105 0.749402 -0.107996
C79   C     C_R   0.117221 0.184750 0.003106 -0.173168
C80   C     C_R   0.253386 0.046400 0.302253 -0.087884
C81   C     C_R   0.545532 0.544478 0.301792 0.340538
C82   C     C_R   0.479464 0.545752 0.714500 0.332044
C83   C     C_R   0.034327 0.045808 0.294572 0.315803
C84   C     C_R   0.959747 0.044529 0.701056 0.349602
C85   C     C_R   0.228546 0.455505 0.735834 -0.115425
C86   C     C_R   0.755548 0.454919 0.304015 -0.127739
C87   C     C_R   0.728555 0.955507 0.736044 -0.115430
C88   C     C_R   0.255536 0.954918 0.304021 -0.130113
C89   C     C_R   0.353470 0.652696 0.908907 0.669463
C90   C     C_R   0.557181 0.497534 0.359337 -0.040265
C91   C     C_R   0.648169 0.651829 0.092286 0.705969
C92   C     C_R   0.853921 0.152823 0.909090 0.672385
C93   C     C_R   0.148599 0.151681 0.092415 0.704202
C94   C     C_R   0.404658 0.372990 0.091475 -0.113301
C95   C     C_R   0.598025 0.373190 0.910976 -0.110662
C96   C     C_R   0.905361 0.871692 0.091157 -0.112345
C97   C     C_R   0.098839 0.875165 0.910357 -0.112378
C98   C     C_R   0.317532 0.356430 0.000221 0.044213
C99   C     C_R   0.688359 0.361061 0.003310 0.039268
C100  C     C_R   0.818319 0.855163 0.999786 0.043466
F1    F     F_    0.315966 0.671089 0.806911 -0.737164
F2    F     F_    0.691426 0.668589 0.196455 -0.743347
F3    F     F_    0.816090 0.171192 0.806996 -0.734164
F4    F     F_    0.191192 0.168542 0.196405 -0.744607
H1    H     H_    0.264567 0.354176 0.827875 0.093141
H2    H     H_    0.089730 0.595810 0.551978 0.219557
H3    H     H_    0.398679 0.139850 0.478943 0.222264
H4    H     H_    0.590006 0.095554 0.551661 0.218981
H5    H     H_    0.272165 0.756484 0.825114 0.198076
H6    H     H_    0.728622 0.755214 0.177425 0.199767
H7    H     H_    0.775169 0.257413 0.826339 0.198909
H8    H     H_    0.231482 0.254211 0.178406 0.199470
H9    H     H_    0.691478 0.334730 0.829540 0.121741
H10   H     H_    0.319953 0.327954 0.176441 0.118050
H11   H     H_    0.190383 0.834743 0.828140 0.116699
H12   H     H_    0.748510 0.370875 0.178252 0.099548
H13   H     H_    0.819117 0.827871 0.175475 0.121951
H14   H     H_    0.860964 0.325517 0.180967 0.119398
H15   H     H_    0.141412 0.325162 0.824158 0.112716
H16   H     H_    0.362396 0.827373 0.179860 0.119374
H17   H     H_    0.642873 0.823411 0.823276 0.113129
H18   H     H_    0.446440 0.749894 0.177827 0.142622
H19   H     H_    0.552231 0.750149 0.824599 0.143397
H20   H     H_    0.946767 0.249234 0.178809 0.142496
H21   H     H_    0.052301 0.250778 0.825395 0.142438
H22   H     H_    0.628582 0.551014 0.686920 0.136845
H23   H     H_    0.765268 0.853754 0.827416 0.092770
H24   H     H_    0.666344 0.547261 0.554872 0.157792
H25   H     H_    0.848390 0.047352 0.450765 0.159480
H26   H     H_    0.892362 0.052099 0.325032 0.135090
H27   H     H_    0.424662 0.440140 0.350719 0.127323
H28   H     H_    0.389587 0.442555 0.483670 0.128627
H29   H     H_    0.131253 0.943515 0.533292 0.127395
H30   H     H_    0.089739 0.940364 0.661314 0.125917
H31   H     H_    0.490908 0.667497 0.170794 0.205669
H32   H     H_    0.503971 0.669085 0.831532 0.210477
H33   H     H_    0.992628 0.167591 0.170838 0.206442
H34   H     H_    0.248837 0.871139 0.177750 0.099567
H35   H     H_    0.007156 0.168561 0.831011 0.209109
H36   H     H_    0.558421 0.410206 0.324392 0.126593
H37   H     H_    0.467832 0.411461 0.685463 0.121259
H38   H     H_    0.043772 0.911570 0.320937 0.122235
H39   H     H_    0.948198 0.910152 0.677765 0.127877
H40   H     H_    0.213845 0.589637 0.747498 0.157107
H41   H     H_    0.758792 0.588210 0.329495 0.190623
H42   H     H_    0.713918 0.089663 0.747581 0.158137
H43   H     H_    0.258743 0.088210 0.329528 0.189320
H44   H     H_    0.203051 0.414394 0.707549 0.093908
H45   H     H_    0.928619 0.595611 0.402219 0.208483
H46   H     H_    0.765945 0.413017 0.332972 0.096425
H47   H     H_    0.703022 0.914391 0.707912 0.093904
H48   H     H_    0.266005 0.913003 0.332943 0.096885
H49   H     H_    0.431892 0.368278 0.175621 0.093804
H50   H     H_    0.570497 0.364207 0.828061 0.094560
H51   H     H_    0.933094 0.865548 0.175034 0.095579
H52   H     H_    0.072048 0.868861 0.826704 0.093334
H53   H     H_    0.052563 0.416353 0.668626 0.126831
H54   H     H_    0.886438 0.415798 0.513535 0.132707
H55   H     H_    0.552517 0.916445 0.668935 0.127217
H56   H     H_    0.060823 0.640152 0.630613 0.208549
H57   H     H_    0.386420 0.915870 0.513697 0.132076
H58   H     H_    0.428892 0.095333 0.401786 0.207304
H59   H     H_    0.561072 0.140157 0.629968 0.209758
H60   H     H_    0.898386 0.639867 0.479661 0.220987
N1    N     N_R   0.394180 0.396910 0.943210 -0.042347
N2    N     N_R   0.474350 0.471570 0.793850 -0.055562
N3    N     N_R   0.025650 0.971570 0.206150 -0.053986
N4    N     N_R   0.974350 0.971570 0.793850 -0.057032
N5    N     N_R   0.319480 0.528420 0.793810 -0.035154
N6    N     N_R   0.680520 0.528420 0.206190 -0.046430
N7    N     N_R   0.819480 0.028420 0.793810 -0.036410
N8    N     N_R   0.180520 0.028420 0.206190 -0.046214
N9    N     N_R   0.525640 0.528390 0.206120 -0.067957
N10   N     N_R   0.474360 0.528390 0.793880 -0.067574
N11   N     N_R   0.025640 0.028390 0.206120 -0.068254
N12   N     N_R   0.605820 0.396910 0.056790 -0.043298
N13   N     N_R   0.974360 0.028390 0.793880 -0.068582
N14   N     N_R   0.319490 0.471590 0.793840 -0.045601
N15   N     N_R   0.680510 0.471590 0.206160 -0.047077
N16   N     N_R   0.819490 0.971590 0.793840 -0.045525
N17   N     N_R   0.180510 0.971590 0.206160 -0.047199
N18   N     N_R   0.394130 0.603080 0.943110 -0.107965
N19   N     N_R   0.605870 0.603080 0.056890 -0.108124
N20   N     N_R   0.894130 0.103080 0.943110 -0.108176
N21   N     N_R   0.105870 0.103080 0.056890 -0.107585
N22   N     N_R   0.450990 0.396900 0.056840 -0.041050
N23   N     N_R   0.894180 0.896910 0.943210 -0.042156
N24   N     N_R   0.549010 0.396900 0.943160 -0.042198
N25   N     N_R   0.950990 0.896900 0.056840 -0.041487
N26   N     N_R   0.049010 0.896900 0.943160 -0.041713
N27   N     N_R   0.105820 0.896910 0.056790 -0.043340
N28   N     N_R   0.450950 0.603070 0.056740 -0.077955
N29   N     N_R   0.549050 0.603070 0.943260 -0.081489
N30   N     N_R   0.950950 0.103070 0.056740 -0.079502
N31   N     N_R   0.049050 0.103070 0.943260 -0.078828
N32   N     N_R   0.525650 0.471570 0.206150 -0.054609
Ni1   Ni    Ni4+2 0.434860 0.434850 0.869700 0.216600
Ni2   Ni    Ni4+2 0.565140 0.434850 0.130300 0.208270
Ni3   Ni    Ni4+2 0.934860 0.934850 0.869700 0.214690
Ni4   Ni    Ni4+2 0.065140 0.934850 0.130300 0.210102
Ni5   Ni    Ni4+2 0.565130 0.565140 0.130240 0.269093
Ni6   Ni    Ni4+2 0.434870 0.565140 0.869760 0.284583
Ni7   Ni    Ni4+2 0.065130 0.065140 0.130240 0.269477
Ni8   Ni    Ni4+2 0.934870 0.065140 0.869760 0.284522

loop_
_geom_bond_atom_site_label_1
_geom_bond_atom_site_label_2
_ccdc_geom_bond_type
C23   H45   S    
C95   C99   A    
C58   C79   S    
C4    C74   A    
C22   H57   S    
C12   C17   A    
C51   C55   A    
C23   C25   S    
N14   Ni1   S    
C47   H15   S    
C92   N20   A    
C8    C87   A    
C96   H51   S    
C28   C54   A    
C94   N22   A    
C32   C37   A    
C91   N19   A    
N8    N17   A    
C96   N25   A    
C7    C77   A    
C12   C27   S    
C36   H13   S    
C50   H18   S    
C9    C80   A    
C4    C65   S    
N25   Ni4   S    
N2    N10   A    
N1    N22   A    
N8    Ni7   S    
N18   N28   A    
C31   C33   A    
C21   H55   S    
C76   N5    A    
N12   Ni2   S    
C5    C84   A    
C67   H27   S    
C95   N24   A    
C39   C48   A    
C62   C65   A    
C56   C68   S    
C61   C66   A    
C82   N10   A    
C5    C75   A    
C59   H22   S    
N28   Ni5   S    
C74   N3    A    
N2    Ni1   S    
C18   C22   A    
C13   H12   S    
C89   F1    S    
C62   H26   S    
C93   F4    S    
C40   C49   A    
C41   H31   S    
C33   H10   S    
C60   H24   S    
C6    C85   A    
C73   N2    A    
N9    N32   A    
N6    Ni5   S    
C19   C20   A    
C69   H28   S    
C43   N30   A    
N5    Ni6   S    
C14   C26   S    
C28   C34   A    
C28   H5    S    
C86   H46   S    
C43   H33   S    
C63   C67   A    
C23   H60   S    
C72   C90   A    
C89   N18   A    
N21   N31   A    
C41   N28   A    
C2    C64   S    
N26   N27   A    
C29   C55   A    
N16   Ni3   S    
C76   H40   S    
C87   N16   A    
C30   C56   A    
C25   H56   S    
N3    N11   A    
N29   Ni6   S    
N23   Ni3   S    
N7    Ni8   S    
C38   C98   S    
C37   C45   A    
C48   C50   A    
C33   C38   A    
C85   H44   S    
Br1   C81   S    
C11   C16   A    
C70   H29   S    
N11   Ni7   S    
C7    C16   S    
C55   C57   S    
C29   C36   A    
C70   C71   A    
N18   Ni6   S    
C42   C57   A    
Br3   C83   S    
C46   C54   S    
C60   C63   A    
C16   C20   A    
C25   H2    S    
C53   C58   A    
N13   Ni8   S    
C5    C66   S    
C97   H52   S    
C72   N32   A    
C67   C69   A    
C6    C76   A    
C88   N17   A    
N22   Ni2   S    
C42   N29   A    
C75   H39   S    
N27   Ni4   S    
C44   N31   A    
C96   C100  A    
C30   H7    S    
C94   C98   A    
C35   N27   A    
C8    C17   S    
C52   C56   A    
C44   H35   S    
C75   N4    A    
N4    Ni3   S    
C15   C19   A    
N23   N25   A    
C87   H47   S    
C91   F2    S    
C63   C90   S    
C81   C90   A    
C24   C100  A    
C11   C23   S    
C40   C100  S    
C94   H49   S    
N20   N30   A    
C6    C15   S    
N24   Ni1   S    
N19   Ni5   S    
C10   C11   A    
C29   H6    S    
C8    C78   A    
C31   H8    S    
C88   H48   S    
C78   N7    A    
C32   H9    S    
C26   H58   S    
C78   H42   S    
C49   H17   S    
C47   C53   A    
C34   H11   S    
C72   H36   S    
C13   N12   A    
C12   C14   A    
C92   F3    S    
N19   N29   A    
N5    N14   A    
C3    C39   S    
C9    C88   A    
N12   N24   A    
C49   C51   A    
N26   Ni3   S    
C24   N23   A    
C73   H37   S    
C65   C70   A    
C97   N26   A    
N17   Ni4   S    
C42   H32   S    
C50   C54   A    
C53   H21   S    
C17   C21   A    
C1    C98   A    
N20   Ni8   S    
C1    N1    A    
N30   Ni7   S    
C14   C18   A    
N15   Ni2   S    
C10   C15   A    
C20   H54   S    
C51   H19   S    
C2    C73   A    
C71   H30   S    
N6    N15   A    
C27   H4    S    
C57   C91   A    
C46   C89   A    
Br4   C84   S    
C38   C47   A    
C74   H38   S    
C45   C52   A    
C59   C64   A    
C2    C82   A    
C44   C79   A    
C26   H3    S    
C24   H23   S    
C77   N6    A    
C4    C83   A    
C21   C22   A    
C34   C39   A    
C80   N8    A    
C85   N14   A    
C83   N11   A    
C48   H16   S    
C7    C86   A    
C84   N13   A    
C26   C27   S    
C1    H1    S    
C41   C46   A    
N21   Ni7   S    
C77   H41   S    
C45   H14   S    
N10   Ni6   S    
C93   N21   A    
N31   Ni8   S    
N9    Ni5   S    
C9    C18   S    
Br2   C82   S    
C31   C58   A    
C30   C32   A    
C52   H20   S    
C13   C99   A    
C43   C68   A    
C35   H34   S    
N3    Ni4   S    
N1    Ni1   S    
C59   C60   A    
C68   C92   A    
C80   H43   S    
C37   C99   S    
C36   C40   A    
C86   N15   A    
C81   N9    A    
C61   C62   A    
C79   C93   A    
C95   H50   S    
C66   C71   A    
C3    C35   A    
C64   C69   A    
C10   C25   S    
N4    N13   A    
N32   Ni2   S    
C61   H25   S    
N7    N16   A    
C19   H53   S    
C3    C97   A    
C27   H59   S    
