data_mof_unit_229.cif
_audit_creation_date              2012-12-10T18:48:43-0500
_audit_creation_method            fapswitch 2.2
_symmetry_space_group_name_H-M    P1
_symmetry_Int_Tables_number       1
_space_group_crystal_system       triclinic
_cell_length_a                    15.779816
_cell_length_b                    14.805152
_cell_length_c                    9.916205
_cell_angle_alpha                 90.357746
_cell_angle_beta                  89.391929
_cell_angle_gamma                 90.185084
_cell_volume                      2316.46212435

loop_
_atom_site_label
_atom_site_type_symbol
_atom_type_description
_atom_site_fract_x
_atom_site_fract_y
_atom_site_fract_z
_atom_type_partial_charge
C1    C     C_R   0.118735 0.378120 0.499772 0.893677
C2    C     C_R   0.878045 0.617784 0.501634 0.938377
C3    C     C_R   0.877952 0.382140 0.499105 0.927485
C4    C     C_R   0.121626 0.618090 0.498546 0.903276
C5    C     C_R   0.619325 0.879454 0.499722 0.931936
C6    C     C_R   0.381729 0.121318 0.501240 0.925361
C7    C     C_R   0.380850 0.879345 0.500471 0.929238
C8    C     C_R   0.619136 0.120471 0.499837 0.931403
C9    C     C_R   0.001525 0.579438 0.072948 0.091531
C10   C     C_R   0.991366 0.421093 0.926325 0.101895
C11   C     C_R   0.993691 0.420651 0.071156 0.084358
C12   C     C_R   0.005622 0.579218 0.928298 0.073740
C13   C     C_R   0.505310 0.079649 0.071041 0.066655
C14   C     C_R   0.501544 0.920372 0.929162 0.070272
C15   C     C_R   0.496878 0.921123 0.072964 0.155793
C16   C     C_R   0.501457 0.079067 0.927048 0.155101
C17   C     C_R   0.799758 0.259162 0.385186 0.119637
C18   C     C_R   0.253678 0.676052 0.594444 0.145755
C19   C     C_R   0.200689 0.740506 0.385000 0.136971
C20   C     C_R   0.742349 0.326610 0.592183 0.109481
C21   C     C_R   0.205856 0.266894 0.623916 0.125740
C22   C     C_R   0.745595 0.674769 0.406109 0.109739
C23   C     C_R   0.797817 0.739026 0.617678 0.111689
C24   C     C_R   0.230820 0.290910 0.381815 0.150749
C25   C     C_R   0.257289 0.811864 0.395045 0.119178
C26   C     C_R   0.676046 0.263770 0.588008 0.133321
C27   C     C_R   0.744652 0.186707 0.396370 0.112028
C28   C     C_R   0.316873 0.741638 0.596356 0.143677
C29   C     C_R   0.740013 0.809177 0.610342 0.119150
C30   C     C_R   0.305414 0.243195 0.392301 0.147644
C31   C     C_R   0.265213 0.197948 0.620967 0.120272
C32   C     C_R   0.681255 0.739406 0.405999 0.127244
C33   C     C_R   0.192756 0.679198 0.492941 -0.228819
C34   C     C_R   0.806877 0.320470 0.494284 -0.183625
C35   C     C_R   0.806948 0.679030 0.507284 -0.189922
C36   C     C_R   0.184736 0.310285 0.501159 -0.213348
C37   C     C_R   0.682549 0.189669 0.498163 -0.178987
C38   C     C_R   0.315798 0.811596 0.500444 -0.206495
C39   C     C_R   0.316897 0.188561 0.505228 -0.192719
C40   C     C_R   0.683079 0.810253 0.501897 -0.174863
N1    N     N_R   0.000000 0.500000 0.857200 -0.087042
N2    N     N_R   0.000000 0.500000 0.142800 -0.093299
N3    N     N_R   0.500000 0.000000 0.857200 -0.104304
N4    N     N_R   0.500000 0.000000 0.142800 -0.105140
O1    O     O_R   0.091610 0.408380 0.614620 -0.578950
O2    O     O_R   0.908390 0.591620 0.385380 -0.588728
O3    O     O_R   0.908390 0.591620 0.614620 -0.580090
O4    O     O_R   0.091610 0.408380 0.385380 -0.624068
O5    O     O_R   0.908390 0.408380 0.385380 -0.585892
O6    O     O_R   0.091610 0.591620 0.614620 -0.598840
O7    O     O_R   0.091610 0.591620 0.385380 -0.574029
O8    O     O_R   0.908390 0.408380 0.614620 -0.586483
O9    O     O_R   0.591610 0.908380 0.614620 -0.614297
O10   O     O_R   0.408390 0.091620 0.385380 -0.638015
O11   O     O_R   0.408390 0.091620 0.614620 -0.573869
O12   O     O_R   0.591610 0.908380 0.385380 -0.578545
O13   O     O_R   0.408390 0.908380 0.385380 -0.574887
O14   O     O_R   0.591610 0.091620 0.614620 -0.584792
O15   O     O_R   0.591610 0.091620 0.385380 -0.618985
O16   O     O_R   0.408390 0.908380 0.614620 -0.646659
Zn1   Zn    Zn3+2 0.000000 0.500000 0.653120 0.985128
Zn2   Zn    Zn3+2 0.000000 0.500000 0.346880 0.978412
Zn3   Zn    Zn3+2 0.500000 0.000000 0.653120 0.970780
Zn4   Zn    Zn3+2 0.500000 0.000000 0.346880 0.973299
N5    N     N_3   0.992036 0.662298 0.146507 -0.373743
H1    H     H_    0.930850 0.685815 0.129944 0.158560
H2    H     H_    0.032178 0.710800 0.104994 0.153284
N6    N     N_3   0.977286 0.339991 0.850608 -0.380343
H3    H     H_    0.918990 0.312635 0.880010 0.160973
H4    H     H_    0.023986 0.293502 0.874219 0.161556
N7    N     N_3   0.983804 0.338436 0.144594 -0.408939
H5    H     H_    0.035654 0.331184 0.205935 0.255418
H6    H     H_    0.982815 0.281294 0.082959 0.130243
N8    N     N_3   0.016704 0.661624 0.855387 -0.376489
H7    H     H_    0.076449 0.687656 0.877733 0.156366
H8    H     H_    0.972962 0.708770 0.890982 0.159102
N9    N     N_3   0.524245 0.163238 0.138347 -0.461406
H9    H     H_    0.502188 0.160309 0.236503 0.271120
H10   H     H_    0.488535 0.214779 0.096098 0.147293
N10   N     N_3   0.518169 0.836152 0.862402 -0.456606
H11   H     H_    0.500363 0.840842 0.763105 0.275298
H12   H     H_    0.478285 0.786755 0.902693 0.144649
N11   N     N_3   0.491266 0.838980 0.146819 -0.375008
H13   H     H_    0.539811 0.796864 0.112525 0.182883
H14   H     H_    0.433311 0.808152 0.124708 0.149029
N12   N     N_3   0.503030 0.161270 0.852891 -0.370023
H15   H     H_    0.555553 0.198340 0.884822 0.179829
H16   H     H_    0.448109 0.197641 0.876403 0.153242
N13   N     N_2   0.837306 0.277976 0.257658 -0.260838
H17   H     H_    0.860530 0.222615 0.206162 0.223132
C41   C     C_3   0.784983 0.334576 0.173810 -0.746012
H18   H     H_    0.819659 0.351370 0.079610 0.234046
H19   H     H_    0.769217 0.398742 0.226905 0.262130
H20   H     H_    0.725340 0.298984 0.146967 0.213982
N14   N     N_2   0.260292 0.599227 0.679818 -0.276596
H21   H     H_    0.243856 0.537779 0.638251 0.215079
C42   C     C_3   0.239621 0.611165 0.821271 -0.774640
H22   H     H_    0.183128 0.569926 0.847818 0.248703
H23   H     H_    0.226745 0.683069 0.846643 0.223262
H24   H     H_    0.293340 0.587562 0.882918 0.229087
N15   N     N_2   0.158068 0.725500 0.261498 -0.263777
H25   H     H_    0.134207 0.783036 0.218268 0.212575
C43   C     C_3   0.206399 0.670057 0.167444 -0.774328
H26   H     H_    0.168739 0.656672 0.076131 0.225012
H27   H     H_    0.222178 0.604024 0.213412 0.257808
H28   H     H_    0.266036 0.704703 0.136711 0.206473
N16   N     N_2   0.737163 0.404624 0.677025 -0.291130
H29   H     H_    0.685151 0.444884 0.660200 0.217062
C44   C     C_3   0.755914 0.391715 0.818280 -0.798992
H30   H     H_    0.809780 0.435957 0.846578 0.263686
H31   H     H_    0.772184 0.320319 0.840177 0.235175
H32   H     H_    0.700407 0.410961 0.881954 0.211896
N17   N     N_2   0.166441 0.290370 0.749091 -0.270101
H33   H     H_    0.146130 0.235889 0.805002 0.211875
C45   C     C_3   0.213437 0.355479 0.828728 -0.769434
H34   H     H_    0.171851 0.383607 0.909340 0.234997
H35   H     H_    0.235936 0.411947 0.765111 0.252778
H36   H     H_    0.269131 0.323517 0.876072 0.207493
N18   N     N_2   0.740942 0.596871 0.320770 -0.288859
H37   H     H_    0.686952 0.558379 0.334121 0.217694
C46   C     C_3   0.765926 0.608349 0.180903 -0.795185
H38   H     H_    0.819514 0.562539 0.156854 0.267596
H39   H     H_    0.784959 0.679206 0.159478 0.231467
H40   H     H_    0.712611 0.589999 0.113624 0.212682
N19   N     N_2   0.842112 0.724805 0.739835 -0.270915
H41   H     H_    0.865765 0.782641 0.784127 0.213430
C47   C     C_3   0.796710 0.666809 0.833591 -0.765194
H42   H     H_    0.836559 0.653078 0.922174 0.223199
H43   H     H_    0.780822 0.601168 0.785127 0.267935
H44   H     H_    0.737127 0.699216 0.869187 0.215706
N20   N     N_2   0.202192 0.316539 0.251783 -0.271099
H45   H     H_    0.243440 0.358214 0.200106 0.236506
C48   C     C_3   0.173057 0.240990 0.170199 -0.871726
H46   H     H_    0.146980 0.266157 0.074225 0.235054
H47   H     H_    0.122608 0.202918 0.224727 0.247021
H48   H     H_    0.225230 0.193732 0.145027 0.233991
N21   N     N_2   0.258899 0.881340 0.295421 -0.274094
H49   H     H_    0.256291 0.860014 0.196476 0.221382
C49   C     C_3   0.205103 0.957938 0.324867 -0.787742
H50   H     H_    0.213230 0.009436 0.244760 0.237431
H51   H     H_    0.223040 0.989353 0.422155 0.236999
H52   H     H_    0.137546 0.936687 0.329178 0.221717
N22   N     N_2   0.601108 0.277501 0.666982 -0.285269
H53   H     H_    0.609643 0.312486 0.755749 0.234979
C50   C     C_3   0.529651 0.311412 0.592714 -0.795923
H54   H     H_    0.473587 0.316985 0.660878 0.238115
H55   H     H_    0.513199 0.264587 0.509331 0.251192
H56   H     H_    0.544474 0.379255 0.551122 0.222888
N23   N     N_2   0.744530 0.116710 0.296367 -0.266561
H57   H     H_    0.736932 0.138850 0.198907 0.239334
C51   C     C_3   0.810411 0.049658 0.308806 -0.810890
H58   H     H_    0.802256 0.996863 0.229939 0.242027
H59   H     H_    0.806338 0.016621 0.408250 0.242159
H60   H     H_    0.874128 0.080689 0.296562 0.221187
N24   N     N_2   0.382543 0.736240 0.692898 -0.292314
H61   H     H_    0.361412 0.748434 0.789918 0.226552
C52   C     C_3   0.439797 0.659880 0.681058 -0.808956
H62   H     H_    0.506240 0.684515 0.680306 0.237287
H63   H     H_    0.428947 0.620181 0.587234 0.250910
H64   H     H_    0.431490 0.614275 0.768718 0.241474
N25   N     N_2   0.734561 0.874437 0.717285 -0.263911
H65   H     H_    0.739719 0.850285 0.813964 0.233163
C53   C     C_3   0.780594 0.957583 0.695028 -0.777029
H66   H     H_    0.777099 0.000439 0.787243 0.234580
H67   H     H_    0.751125 0.995718 0.612350 0.243795
H68   H     H_    0.848220 0.943499 0.670869 0.217863
N26   N     N_2   0.370503 0.253919 0.293184 -0.298364
H69   H     H_    0.355188 0.232679 0.197518 0.229603
C54   C     C_3   0.414383 0.340207 0.295937 -0.886228
H70   H     H_    0.483460 0.328997 0.283148 0.251120
H71   H     H_    0.403763 0.376857 0.392929 0.255360
H72   H     H_    0.392658 0.383433 0.212043 0.231825
N27   N     N_2   0.276001 0.141584 0.736170 -0.271149
H73   H     H_    0.276603 0.173667 0.828518 0.219664
C55   C     C_3   0.226197 0.059449 0.735832 -0.770987
H74   H     H_    0.239486 0.020247 0.828320 0.230389
H75   H     H_    0.243530 0.016883 0.647571 0.242373
H76   H     H_    0.157469 0.075333 0.733483 0.216183
N28   N     N_2   0.612422 0.730347 0.315097 -0.280966
H77   H     H_    0.627764 0.701805 0.223311 0.236456
C56   C     C_3   0.536531 0.691250 0.373553 -0.799443
H78   H     H_    0.488185 0.680882 0.294389 0.233006
H79   H     H_    0.509499 0.737697 0.450502 0.256882
H80   H     H_    0.550703 0.624784 0.419475 0.221638

loop_
_geom_bond_atom_site_label_1
_geom_bond_atom_site_label_2
_ccdc_geom_bond_type
C2    C35   S    
N15   H25   S    
C12   N8    S    
N24   C52   S    
C49   H51   S    
C54   H70   S    
C5    O12   A    
N14   H21   S    
N1    Zn1   S    
C6    O11   A    
C42   H24   S    
N25   H65   S    
C3    O5    A    
N3    Zn3   S    
C55   H75   S    
C21   C36   A    
C56   H78   S    
C2    O2    A    
C22   C35   A    
C21   C31   A    
C9    N2    A    
C52   H62   S    
N8    H8    S    
O2    Zn2   S    
O16   Zn3   S    
C23   C29   A    
C5    O9    A    
C53   H67   S    
C15   N4    A    
O8    Zn1   S    
N23   C51   S    
C8    O15   A    
C50   H54   S    
C49   H52   S    
C11   N7    S    
C45   H34   S    
C11   N2    A    
C51   H60   S    
O9    Zn3   S    
C46   H40   S    
C8    O14   A    
C53   H66   S    
N6    H3    S    
N5    H2    S    
O11   Zn3   S    
C48   H48   S    
N16   H29   S    
O12   Zn4   S    
C32   N28   S    
C14   N10   S    
N13   C41   S    
N2    Zn2   S    
N9    H9    S    
C23   N19   S    
C20   N16   S    
C20   C34   A    
N27   C55   S    
C27   N23   S    
C10   N1    A    
C16   N12   S    
C18   N14   S    
C54   H71   S    
C51   H59   S    
O7    Zn2   S    
C6    O10   A    
N25   C53   S    
C42   H22   S    
C55   H76   S    
N16   C44   S    
N18   C46   S    
C22   N18   S    
C13   N9    S    
N24   H61   S    
N8    H7    S    
C50   H55   S    
C4    O7    A    
C17   C27   A    
C29   N25   S    
C30   N26   S    
C53   H68   S    
C17   N13   S    
N10   H12   S    
C19   C33   A    
C44   H32   S    
C41   H18   S    
N7    H6    S    
N12   H15   S    
C15   N11   S    
C3    C34   S    
C45   H35   S    
N27   H73   S    
N4    Zn4   S    
N26   C54   S    
C4    O6    A    
C25   N21   S    
C47   H43   S    
C12   N1    A    
C55   H74   S    
C25   C38   A    
C41   H19   S    
N21   C49   S    
C18   C33   A    
O4    Zn2   S    
N11   H13   S    
C28   C38   A    
C51   H58   S    
C45   H36   S    
O15   Zn4   S    
N9    H10   S    
C18   C28   A    
C43   H27   S    
C24   C36   A    
N18   H37   S    
C16   N3    A    
C46   H38   S    
C22   C32   A    
C21   N17   S    
N11   H14   S    
C52   H64   S    
C23   C35   A    
C1    O4    A    
C48   H46   S    
C54   H72   S    
C13   C16   A    
C24   C30   A    
C8    C37   S    
C26   N22   S    
C7    O16   A    
N26   H69   S    
C50   H56   S    
O13   Zn4   S    
N19   C47   S    
N17   H33   S    
C31   N27   S    
C56   H80   S    
O14   Zn3   S    
N22   C50   S    
C4    C33   S    
C42   H23   S    
O5    Zn2   S    
C14   C15   A    
O6    Zn1   S    
N10   H11   S    
N20   C48   S    
O3    Zn1   S    
C49   H50   S    
N14   C42   S    
C26   C37   A    
C10   N6    S    
C2    O3    A    
N21   H49   S    
N15   C43   S    
C44   H31   S    
N22   H53   S    
C47   H44   S    
N7    H5    S    
C28   N24   S    
C44   H30   S    
C3    O8    A    
C41   H20   S    
C19   N15   S    
C24   N20   S    
C1    O1    A    
N19   H41   S    
C20   C26   A    
C27   C37   A    
C29   C40   A    
O1    Zn1   S    
C7    C38   S    
C31   C39   A    
C30   C39   A    
C43   H28   S    
N12   H16   S    
C32   C40   A    
N20   H45   S    
C19   C25   A    
C9    C12   A    
C9    N5    S    
C46   H39   S    
C10   C11   A    
N28   H77   S    
C56   H79   S    
O10   Zn4   S    
C52   H63   S    
N5    H1    S    
C17   C34   A    
C5    C40   S    
C43   H26   S    
C48   H47   S    
N6    H4    S    
C6    C39   S    
N28   C56   S    
N13   H17   S    
N23   H57   S    
C7    O13   A    
C13   N4    A    
C47   H42   S    
C1    C36   S    
C14   N3    A    
N17   C45   S    
