data_mof_unit_1974.cif
_audit_creation_date              2012-10-26T19:46:28-0400
_audit_creation_method            fapswitch 2.2
_symmetry_space_group_name_H-M    P1
_symmetry_Int_Tables_number       1
_space_group_crystal_system       triclinic
_cell_length_a                    10.828801
_cell_length_b                    9.521426
_cell_length_c                    15.088159
_cell_angle_alpha                 89.999927
_cell_angle_beta                  90.182416
_cell_angle_gamma                 90.0
_cell_volume                      1555.66621545

loop_
_atom_site_label
_atom_site_type_symbol
_atom_type_description
_atom_site_fract_x
_atom_site_fract_y
_atom_site_fract_z
_atom_type_partial_charge
C1    C     C_R   0.262073 0.500000 0.499926 0.539929
C2    C     C_R   0.936131 0.627634 0.500024 -0.145652
C3    C     C_R   0.936131 0.372367 0.500081 -0.144831
C4    C     C_R   0.063869 0.627634 0.499976 -0.145652
C5    C     C_R   0.602494 0.551536 0.095167 -0.103388
C6    C     C_R   0.602600 0.449211 0.905385 -0.103481
C7    C     C_R   0.397508 0.551542 0.904833 -0.103389
C8    C     C_R   0.397398 0.449217 0.094615 -0.103481
C9    C     C_R   0.603620 0.552158 0.187701 -0.021906
C10   C     C_R   0.603767 0.448314 0.812858 -0.021812
C11   C     C_R   0.396382 0.552164 0.812299 -0.021906
C12   C     C_R   0.737927 0.500000 0.500074 0.539929
C13   C     C_R   0.396230 0.448320 0.187142 -0.021812
C14   C     C_R   0.499942 0.500092 0.233796 0.053241
C15   C     C_R   0.500058 0.500092 0.766204 0.053241
C16   C     C_R   0.499967 0.500413 0.048597 0.001365
C17   C     C_R   0.500032 0.500413 0.951403 0.001365
C18   C     C_R   0.871767 0.500001 0.500082 0.014138
C19   C     C_R   0.128233 0.500001 0.499918 0.014138
C20   C     C_3   0.716321 0.605822 0.236101 -0.392497
C21   C     C_3   0.716552 0.394695 0.765074 -0.395874
C22   C     C_3   0.283683 0.605834 0.763899 -0.392496
C23   C     C_R   0.499916 0.500011 0.330254 0.550192
C24   C     C_3   0.283444 0.394708 0.234926 -0.395875
C25   C     C_R   0.500084 0.500011 0.669746 0.550192
C26   C     C_R   0.419847 0.074395 0.447401 0.013422
C27   C     C_R   0.580110 0.925588 0.552636 0.010828
C28   C     C_R   0.580153 0.074395 0.552599 0.013421
C29   C     C_R   0.419890 0.925588 0.447364 0.010828
C30   C     C_R   0.063869 0.372367 0.499918 -0.144831
Cu1   Cu    Cu3+1 0.500000 0.640660 0.500000 0.918596
Cu2   Cu    Cu3+1 0.500000 0.359340 0.500000 0.924984
H1    H     H_    0.355581 0.130420 0.405302 0.099894
H2    H     H_    0.888076 0.727420 0.500027 0.125371
H3    H     H_    0.888078 0.272582 0.500176 0.125877
H4    H     H_    0.111923 0.727420 0.499973 0.125371
H5    H     H_    0.691832 0.699489 0.276147 0.157715
H6    H     H_    0.753221 0.522697 0.280524 0.135311
H7    H     H_    0.790850 0.636593 0.189562 0.113993
H8    H     H_    0.753209 0.477605 0.720556 0.131855
H9    H     H_    0.791199 0.364478 0.811999 0.115400
H10   H     H_    0.692225 0.300688 0.725234 0.143043
H11   H     H_    0.308176 0.699500 0.723854 0.157716
H12   H     H_    0.644266 0.869522 0.594834 0.108042
H13   H     H_    0.246780 0.522711 0.719476 0.135311
H14   H     H_    0.209156 0.636608 0.810438 0.113993
H15   H     H_    0.246789 0.477620 0.279444 0.131855
H16   H     H_    0.208795 0.364494 0.188001 0.115400
H17   H     H_    0.307766 0.300700 0.274767 0.143042
H18   H     H_    0.644419 0.130419 0.594698 0.099893
H19   H     H_    0.355734 0.869522 0.405166 0.108042
H20   H     H_    0.681159 0.592185 0.059079 0.108291
H21   H     H_    0.681254 0.408675 0.941895 0.108487
H22   H     H_    0.318845 0.592196 0.940921 0.108291
H23   H     H_    0.318742 0.408686 0.058106 0.108487
H24   H     H_    0.111922 0.272582 0.499824 0.125876
N1    N     N_R   0.500000 0.852070 0.500000 -0.225287
N2    N     N_R   0.500000 0.147930 0.500000 -0.221787
O1    O     O_R   0.319640 0.618740 0.499990 -0.511493
O2    O     O_R   0.680360 0.381260 0.500010 -0.510145
O3    O     O_R   0.680360 0.618740 0.500010 -0.511493
O4    O     O_R   0.319640 0.381260 0.499990 -0.510145
O5    O     O_R   0.499990 0.618780 0.371460 -0.503494
O6    O     O_R   0.500010 0.381220 0.628540 -0.500071
O7    O     O_R   0.500010 0.618780 0.628540 -0.503495
O8    O     O_R   0.499990 0.381220 0.371460 -0.500071

loop_
_geom_bond_atom_site_label_1
_geom_bond_atom_site_label_2
_ccdc_geom_bond_type
C14   C23   S    
C6    C10   A    
C3    C30   A    
C2    C4    A    
C9    C14   A    
C4    H4    S    
C5    H20   S    
C5    C9    A    
C8    C13   A    
C20   H5    S    
C28   N2    A    
C2    C18   A    
C20   H6    S    
Cu1   O3    S    
C11   C22   S    
C22   H11   S    
C3    H3    S    
Cu2   N2    S    
C1    O4    A    
Cu1   N1    S    
C23   O5    A    
Cu2   O4    S    
C6    C17   A    
C8    C16   A    
C13   C14   A    
C7    C11   A    
C12   O3    A    
C24   H15   S    
C2    H2    S    
C19   C30   A    
C21   H8    S    
C30   H24   S    
C26   C29   A    
C21   H9    S    
C8    H23   S    
C23   O8    A    
C22   H14   S    
C29   N1    A    
C10   C15   A    
C1    O1    A    
C10   C21   S    
C29   H19   S    
C9    C20   S    
C15   C25   S    
C1    C19   S    
Cu2   O2    S    
C6    H21   S    
Cu1   O1    S    
C21   H10   S    
C24   H16   S    
Cu1   O5    S    
C27   C28   A    
C22   H13   S    
C25   O7    A    
Cu2   O6    S    
C3    C18   A    
Cu2   O8    S    
C27   N1    A    
C12   C18   S    
C24   H17   S    
Cu1   O7    S    
C20   H7    S    
C28   H18   S    
C5    C16   A    
C26   H1    S    
C7    H22   S    
C4    C19   A    
C11   C15   A    
C27   H12   S    
C26   N2    A    
Cu1   Cu2   S    
C13   C24   S    
C16   C17   S    
C7    C17   A    
C25   O6    A    
C12   O2    A    
