data_mof_unit_2239.cif
_audit_creation_date              2012-12-11T20:26:35-0500
_audit_creation_method            fapswitch 2.2
_symmetry_space_group_name_H-M    P1
_symmetry_Int_Tables_number       1
_space_group_crystal_system       triclinic
_cell_length_a                    8.299073
_cell_length_b                    17.34516
_cell_length_c                    18.880346
_cell_angle_alpha                 103.762308
_cell_angle_beta                  91.913402
_cell_angle_gamma                 98.729933
_cell_volume                      2602.34901439

loop_
_atom_site_label
_atom_site_type_symbol
_atom_type_description
_atom_site_fract_x
_atom_site_fract_y
_atom_site_fract_z
_atom_type_partial_charge
Ba1   Ba    Ba6+2 0.853800 0.535410 0.467450 1.780892
Ba2   Ba    Ba6+2 0.336030 0.464660 0.532560 1.793485
C1    C     C_3   0.672923 0.810683 0.252657 0.694024
C2    C     C_R   0.892081 0.430305 0.092658 0.404885
C3    C     C_R   0.814755 0.391378 0.929710 0.375580
C4    C     C_3   0.123298 0.700118 0.281336 0.411746
C5    C     C_R   0.950618 0.448440 0.966941 -0.014795
C6    C     C_R   0.746704 0.398586 0.863795 -0.009492
C7    C     C_R   0.830438 0.447761 0.823337 -0.103201
C8    C     C_R   0.983228 0.494224 0.852753 0.039081
C9    C     C_R   0.041800 0.496227 0.925753 0.042657
C10   C     C_R   0.770847 0.447696 0.752305 0.022614
C11   C     C_R   0.874256 0.482816 0.707238 -0.280412
C12   C     C_3   0.601888 0.732212 0.272900 0.227786
C13   C     C_R   0.026856 0.529112 0.734119 0.008648
C14   C     C_R   0.076199 0.539573 0.809760 -0.009203
C15   C     C_R   0.156987 0.500705 0.070894 -0.043824
C16   C     C_3   0.081306 0.718108 0.208411 -0.227279
C17   C     C_R   0.212389 0.502950 0.144472 -0.002480
C18   C     C_R   0.108813 0.466365 0.190598 -0.104175
C19   C     C_R   0.953212 0.426951 0.161259 -0.029775
C20   C     C_R   0.211214 0.595606 0.845022 -0.034597
C21   C     C_R   0.259822 0.601790 0.918138 0.008500
C22   C     C_R   0.191024 0.545801 0.956692 0.074314
C23   C     C_3   0.507197 0.327390 0.304422 0.357906
C24   C     C_R   0.260172 0.540315 0.026046 -0.047009
C25   C     C_R   0.427809 0.570074 0.052837 0.423405
C26   C     C_R   0.372918 0.540127 0.171321 -0.076435
C27   C     C_R   0.477915 0.570123 0.124205 -0.090578
C28   C     C_3   0.232750 0.718982 0.641828 0.272914
C29   C     C_R   0.426939 0.544890 0.244402 0.005844
C30   C     C_R   0.320199 0.513063 0.290341 -0.258370
C31   C     C_R   0.162276 0.472378 0.265212 -0.009844
C32   C     C_2   0.441052 0.723287 0.488660 -0.277832
C33   C     C_3   0.369650 0.766873 0.437834 -0.059437
C34   C     C_3   0.515496 0.296357 0.222195 0.179371
C35   C     C_2   0.422666 0.856444 0.461096 -0.051856
C36   C     C_2   0.551662 0.888316 0.510091 0.028675
C37   C     C_2   0.638394 0.834994 0.543851 0.324312
C38   C     C_1   0.578711 0.756128 0.529874 0.014953
C39   C     C_R   0.762630 0.147984 0.568341 -0.107718
C40   C     C_3   0.200751 0.806106 0.664979 0.619627
C41   C     C_R   0.851343 0.213405 0.548172 0.001919
C42   C     C_R   0.606824 0.232004 0.483268 -0.033237
C43   C     C_R   0.519069 0.163461 0.499399 -0.152215
C44   C     C_R   0.601171 0.117018 0.536496 0.006233
C45   C     C_3   0.052431 0.298447 0.727814 0.699932
C46   C     C_2   0.618467 0.975169 0.527694 0.036177
C47   C     C_2   0.525728 0.033028 0.532048 -0.086332
C48   C     C_R   0.776151 0.242861 0.495627 0.169330
C49   C     C_3   0.093012 0.282626 0.255075 0.422480
C50   C     C_3   0.994028 0.216144 0.195197 -0.288455
C51   C     C_3   0.734909 0.647728 0.690302 0.285855
C52   C     C_3   0.762099 0.674576 0.773182 -0.339960
C53   C     C_3   0.010559 0.249906 0.784092 -0.172074
C54   C     C_3   0.497079 0.254623 0.690812 0.603652
C55   C     C_3   0.430841 0.178253 0.716963 0.222839
C56   C     C_R   0.997926 0.459176 0.042910 -0.038526
H1    H     H_    0.552681 0.745858 0.327383 0.021809
H2    H     H_    0.866095 0.725211 0.789150 0.146655
H3    H     H_    0.790193 0.624305 0.795590 0.040034
H4    H     H_    0.650199 0.694331 0.797064 0.140962
H5    H     H_    0.500819 0.700470 0.231812 -0.031712
H6    H     H_    0.403324 0.360821 0.316054 -0.112255
H7    H     H_    0.621299 0.368999 0.325254 0.104610
H8    H     H_    0.406886 0.250038 0.198571 0.042237
H9    H     H_    0.625690 0.267279 0.211997 0.117463
H10   H     H_    0.754969 0.796128 0.207793 0.015601
H11   H     H_    0.149713 0.684222 0.165349 0.077905
H12   H     H_    0.066455 0.804058 0.665546 0.100250
H13   H     H_    0.941547 0.317358 0.708369 -0.065716
H14   H     H_    0.123170 0.233550 0.805900 0.147371
H15   H     H_    0.953834 0.285409 0.830249 0.041431
H16   H     H_    0.924706 0.193699 0.758509 0.069423
H17   H     H_    0.447547 0.248298 0.634111 0.076457
H18   H     H_    0.521858 0.136386 0.710144 0.042924
H19   H     H_    0.065066 0.637420 0.279116 0.031869
H20   H     H_    0.411948 0.195217 0.776268 0.103439
H21   H     H_    0.830821 0.478365 0.651519 0.063682
H22   H     H_    0.635615 0.358287 0.841751 0.122856
H23   H     H_    0.175700 0.254885 0.285128 0.081682
H24   H     H_    0.870794 0.397222 0.192987 0.146745
H25   H     H_    0.277041 0.637270 0.817497 0.102727
H26   H     H_    0.603909 0.594034 0.142708 0.137281
H27   H     H_    0.363381 0.517052 0.346001 0.048579
H28   H     H_    0.349509 0.652594 0.944305 0.155591
H29   H     H_    0.257915 0.704648 0.287792 -0.108384
H30   H     H_    0.393727 0.016764 0.522921 0.093392
H31   H     H_    0.821687 0.118908 0.604304 0.091996
H32   H     H_    0.750553 0.991012 0.535053 0.130408
H33   H     H_    0.364665 0.893959 0.432988 0.129687
H34   H     H_    0.166978 0.324137 0.227968 -0.235589
H35   H     H_    0.394014 0.142245 0.477363 0.139263
H36   H     H_    0.383663 0.662023 0.485978 0.062308
H37   H     H_    0.949342 0.698940 0.191917 0.131802
H38   H     H_    0.114106 0.783379 0.211940 0.191293
H39   H     H_    0.364568 0.718540 0.634841 -0.056203
H40   H     H_    0.161071 0.689095 0.589145 0.020815
H41   H     H_    0.387722 0.840770 0.737390 0.298762
H42   H     H_    0.376676 0.866854 0.625684 0.280044
H43   H     H_    0.880043 0.883216 0.437221 0.371883
H44   H     H_    0.340879 0.817754 0.123130 0.370421
H45   H     H_    0.923138 0.170309 0.219269 0.166051
H46   H     H_    0.414968 0.368728 0.177665 0.307809
H47   H     H_    0.178886 0.399453 0.724721 0.314277
H48   H     H_    0.705163 0.264752 0.742288 0.252682
H49   H     H_    0.309092 0.112859 0.628308 0.303156
H50   H     H_    0.844451 0.308273 0.978951 0.311035
H51   H     H_    0.687809 0.443761 0.048604 0.352558
H52   H     H_    0.636989 0.574250 0.885761 0.352141
H53   H     H_    0.803420 0.837207 0.622264 0.322720
H54   H     H_    0.752750 0.161292 0.342232 0.348620
H55   H     H_    0.077415 0.186483 0.156800 0.086764
H56   H     H_    0.908571 0.241856 0.164347 0.094634
H57   H     H_    0.847762 0.629196 0.667400 -0.002800
H58   H     H_    0.632868 0.596071 0.675791 0.075001
O1    O     O_2   0.871520 0.445720 0.321500 -0.463784
O2    O     O_2   0.189658 0.221465 0.537330 -0.448876
O3    O     O_3   0.125275 0.250234 0.671571 -0.575181
O4    O     O_3   0.121030 0.451930 0.411150 -0.425211
O5    O     O_3   0.581210 0.598010 0.542960 -0.498530
O6    O     O_2   0.335820 0.303580 0.452320 -0.399203
O7    O     O_3   0.490530 0.262099 0.336960 -0.615237
O8    O     O_2   0.456803 0.478689 0.756058 -0.445048
O9    O     O_3   0.451631 0.323598 0.737102 -0.566228
O10   O     O_3   0.662190 0.593100 0.375060 -0.460394
O11   O     O_2   0.759359 0.534318 0.246733 -0.454537
O12   O     O_3   0.697357 0.712469 0.664392 -0.652217
O13   O     O_3   0.986395 0.318336 0.304266 -0.511841
O14   O     O_3   0.724583 0.684520 0.272634 -0.601017
O15   O     O_2   0.853880 0.696450 0.547730 -0.466598
O16   O     O_3   0.085100 0.636210 0.413950 -0.509690
O17   O     O_2   0.048320 0.783432 0.482501 -0.401460
O18   O     O_3   0.269656 0.844905 0.736098 -0.684026
O19   O     O_3   0.257207 0.850051 0.614727 -0.734085
O20   O     O_2   0.955296 0.910412 0.304391 -0.250506
O21   O     O_2   0.706864 0.953879 0.354978 -0.261701
O22   O     O_3   0.816305 0.839619 0.398250 -0.519178
O23   O     O_3   0.067283 0.754898 0.339270 -0.502753
O24   O     O_2   0.392869 0.871799 0.274213 -0.299072
O25   O     O_2   0.587686 0.930554 0.198702 -0.217568
O26   O     O_3   0.420141 0.788705 0.141827 -0.552738
O27   O     O_3   0.527935 0.360332 0.188220 -0.698067
O28   O     O_3   0.163061 0.367386 0.761587 -0.694583
O29   O     O_3   0.666582 0.261617 0.691319 -0.853766
O30   O     O_3   0.283398 0.136780 0.678920 -0.680891
O31   O     O_3   0.754344 0.322841 0.951629 -0.695625
O32   O     O_3   0.724768 0.410165 0.079445 -0.641873
O33   O     O_2   0.609929 0.686803 0.004527 -0.275478
O34   O     O_2   0.318180 0.554310 0.678550 -0.469384
O35   O     O_2   0.750164 0.582720 0.030267 -0.341750
O36   O     O_3   0.558582 0.545131 0.912579 -0.529698
O37   O     O_3   0.774307 0.872119 0.591314 -0.718374
O38   O     O_2   0.913733 0.350715 0.442562 -0.286035
O39   O     O_2   0.042601 0.228945 0.418957 -0.278821
O40   O     O_3   0.773153 0.219824 0.345371 -0.535859
O41   O     O_3   0.068680 0.548140 0.588860 -0.488819
O42   O     O_3   0.527520 0.406960 0.624950 -0.499199
O43   O     O_3   0.187371 0.682270 0.698246 -0.649428
O44   O     O_3   0.608500 0.402060 0.457050 -0.470153
O45   O     O_3   0.104610 0.363860 0.586060 -0.467885
P1    P     P_3+3 0.038810 0.422920 0.331160 1.115559
P2    P     P_3+3 0.678260 0.686080 0.568600 0.978767
P3    P     P_3+3 0.142874 0.738074 0.421079 1.053449
P4    P     P_3+3 0.150900 0.577150 0.668860 0.969927
P5    P     P_3+3 0.064108 0.261370 0.585755 1.053406
P6    P     P_3+3 0.639571 0.589122 0.282795 0.991789
P7    P     P_3+3 0.515940 0.298477 0.432217 1.091075
P8    P     P_3+3 0.553339 0.412784 0.718113 1.014457
S1    S     S_3+6 0.790644 0.882345 0.328603 -0.019523
S2    S     S_3+6 0.514271 0.853960 0.217683 -0.040668
S3    S     S_3+6 0.591667 0.598154 0.000077 -0.117672
S4    S     S_3+6 0.885296 0.261301 0.424824 -0.075166

loop_
_geom_bond_atom_site_label_1
_geom_bond_atom_site_label_2
_ccdc_geom_bond_type
C39   C44   A    
Ba2   O34   S    
C39   H31   S    
C11   H21   S    
C50   H45   S    
C3    O31   S    
C25   C27   A    
O33   S3    D    
C16   H38   S    
C1    H10   S    
O25   S2    D    
Ba1   O16   S    
C43   H35   S    
H47   O28   S    
C49   O13   S    
C34   H9    S    
C52   H2    S    
C51   C52   S    
C5    C9    A    
C12   H1    S    
C44   C47   S    
C24   C25   A    
H48   O29   S    
C37   O37   S    
C48   S4    S    
C32   C38   D    
C15   C24   A    
C55   H18   S    
C26   C27   A    
C33   C35   S    
C34   O27   S    
C22   C24   A    
C32   C33   S    
H52   O36   S    
C36   C37   S    
O36   S3    S    
C34   H8    S    
Ba2   O5    S    
O22   S1    S    
C12   H5    S    
C13   C14   A    
C2    O32   S    
C9    C22   A    
C40   H12   S    
C54   C55   S    
Ba1   Ba2   S    
C42   P7    S    
C4    O23   S    
C53   H16   S    
O14   P6    S    
O8    P8    D    
C17   C18   A    
C6    C7    A    
C21   H28   S    
C21   C22   A    
O9    P8    S    
C7    C8    A    
C49   H23   S    
C5    C56   A    
C36   C46   S    
C53   H14   S    
C51   H58   S    
O4    P1    S    
C15   C56   A    
H50   O31   S    
O39   S4    D    
C16   H11   S    
C45   O3    S    
C54   H17   S    
C46   H32   S    
C55   O30   S    
C16   H37   S    
C39   C41   A    
C47   H30   S    
Ba2   O45   S    
Ba2   O6    S    
C28   O43   S    
C4    C16   S    
O40   S4    S    
O6    P7    D    
C35   H33   S    
C49   C50   S    
C23   H7    S    
Ba1   O10   S    
C27   H26   S    
O10   P6    S    
O41   P4    S    
C37   C38   D    
C3    C5    A    
H49   O30   S    
Ba2   O4    S    
C4    H19   S    
C52   H4    S    
C50   H55   S    
O34   P4    D    
C45   O28   S    
O2    P5    D    
O12   P2    S    
O35   S3    D    
O43   P4    S    
H41   O18   S    
C40   O19   S    
Ba1   O4    S    
O16   P3    S    
C35   C36   D    
C51   O12   S    
C49   H34   S    
C23   O7    S    
C29   C30   A    
Ba2   P4    S    
O15   P2    D    
Ba2   O42   S    
H46   O27   S    
C41   C48   A    
Ba1   O1    S    
C54   O9    S    
C19   H24   S    
C17   C26   A    
H53   O37   S    
O3    P5    S    
C45   H13   S    
O21   S1    D    
C1    C12   S    
C38   P2    S    
C18   C31   A    
Ba2   O44   S    
C46   C47   D    
O20   S1    D    
Ba1   P1    S    
O24   S2    D    
C54   O29   S    
C11   C13   A    
C1    S1    S    
H51   O32   S    
O7    P7    S    
O17   P3    D    
C42   C43   A    
C45   C53   S    
C12   O14   S    
C41   P5    S    
C42   C48   A    
O23   P3    S    
C14   C20   A    
O38   S4    D    
C23   C34   S    
C55   H20   S    
C26   C29   A    
C13   P4    S    
C32   H36   S    
C29   P6    S    
Ba1   O15   S    
C3    C6    A    
H43   O22   S    
H42   O19   S    
O42   P8    S    
C10   P8    S    
C52   H3    S    
C50   H56   S    
O1    P1    D    
C28   H40   S    
C33   P3    S    
C40   O18   S    
C20   H25   S    
Ba1   O41   S    
C31   P1    S    
C8    C14   A    
C30   C31   A    
C2    C19   A    
C1    S2    S    
Ba1   O44   S    
Ba2   O41   S    
C30   H27   S    
C15   C17   A    
O13   P1    S    
O44   P7    S    
C7    C10   A    
Ba1   O5    S    
C8    C9    A    
C4    H29   S    
O45   P5    S    
C53   H15   S    
C43   C44   A    
C18   C19   A    
Ba1   P2    S    
O11   P6    D    
H54   O40   S    
C2    C56   A    
C6    H22   S    
C20   C21   A    
C28   C40   S    
C28   H39   S    
H44   O26   S    
C10   C11   A    
C25   S3    S    
C23   H6    S    
C51   H57   S    
O26   S2    S    
O5    P2    S    
