data_mof_unit_3437.cif
_audit_creation_date              2012-12-10T18:28:23-0500
_audit_creation_method            fapswitch 2.2
_symmetry_space_group_name_H-M    P1
_symmetry_Int_Tables_number       1
_space_group_crystal_system       triclinic
_cell_length_a                    23.173775
_cell_length_b                    20.588841
_cell_length_c                    14.972741
_cell_angle_alpha                 89.536685
_cell_angle_beta                  99.377696
_cell_angle_gamma                 90.305338
_cell_volume                      7048.05069858

loop_
_atom_site_label
_atom_site_type_symbol
_atom_type_description
_atom_site_fract_x
_atom_site_fract_y
_atom_site_fract_z
_atom_type_partial_charge
C1    C     C_R   0.570246 0.092215 0.549390 0.918155
C2    C     C_R   0.426786 0.909866 0.448498 0.879780
C3    C     C_R   0.428513 0.091156 0.448887 0.919475
C4    C     C_R   0.572055 0.909097 0.551343 0.873300
C5    C     C_R   0.070247 0.592213 0.549393 0.918125
C6    C     C_R   0.926773 0.409875 0.448491 0.879965
C7    C     C_R   0.928505 0.591149 0.448881 0.919440
C8    C     C_R   0.072069 0.409107 0.551353 0.873416
C9    C     C_R   0.239878 0.214301 0.658625 -0.185263
C10   C     C_R   0.780048 0.806171 0.358558 -0.206976
C11   C     C_R   0.750595 0.224936 0.329576 -0.184402
C12   C     C_R   0.199453 0.824953 0.615631 -0.202177
C13   C     C_R   0.739742 0.714157 0.658486 -0.185269
C14   C     C_R   0.280196 0.306315 0.358707 -0.206934
C15   C     C_R   0.250684 0.724823 0.329709 -0.184416
C16   C     C_R   0.699327 0.325065 0.615470 -0.202144
C17   C     C_R   0.628312 0.024306 0.207424 0.377272
C18   C     C_R   0.371130 0.020860 0.792123 0.378674
C19   C     C_R   0.128311 0.524315 0.207425 0.377308
C20   C     C_R   0.871130 0.520854 0.792125 0.378693
C21   C     C_R   0.606124 0.014667 0.287143 -0.107515
C22   C     C_R   0.393556 0.012511 0.712566 -0.102631
C23   C     C_R   0.106122 0.514678 0.287144 -0.107521
C24   C     C_R   0.893555 0.512505 0.712567 -0.102617
C25   C     C_R   0.510789 0.997085 0.206777 0.033730
C26   C     C_R   0.489273 0.998279 0.793282 0.037902
C27   C     C_R   0.010792 0.497067 0.206775 0.033641
C28   C     C_R   0.989275 0.498286 0.793280 0.037866
C29   C     C_R   0.528694 0.011015 0.123685 -0.112609
C30   C     C_R   0.470958 0.010948 0.876147 -0.115206
C31   C     C_R   0.028695 0.511007 0.123685 -0.112557
C32   C     C_R   0.970959 0.510949 0.876147 -0.115156
C33   C     C_R   0.589732 0.017704 0.124169 -0.075842
C34   C     C_R   0.409783 0.015072 0.875511 -0.079162
C35   C     C_R   0.089732 0.517707 0.124170 -0.075851
C36   C     C_R   0.909784 0.515065 0.875513 -0.079210
C37   C     C_R   0.488305 0.015045 0.041490 -0.111566
C38   C     C_R   0.511165 0.016047 0.958338 -0.106624
C39   C     C_R   0.988306 0.515035 0.041490 -0.111601
C40   C     C_R   0.011166 0.516048 0.958338 -0.106615
C41   C     C_R   0.573110 0.023811 0.959055 0.327593
C42   C     C_R   0.426140 0.019786 0.040632 0.325063
C43   C     C_R   0.073111 0.523817 0.959057 0.327618
C44   C     C_R   0.926141 0.519765 0.040634 0.325122
C45   C     C_R   0.611712 0.017405 0.042477 0.389274
C46   C     C_R   0.387784 0.012971 0.957195 0.394608
C47   C     C_R   0.111712 0.517411 0.042480 0.389258
C48   C     C_R   0.887784 0.512957 0.957197 0.394646
C49   C     C_R   0.609618 0.852482 0.578741 -0.280013
C50   C     C_R   0.395847 0.151475 0.424272 -0.200082
C51   C     C_R   0.385222 0.856793 0.419041 -0.270585
C52   C     C_R   0.598178 0.156193 0.567957 -0.198681
C53   C     C_R   0.109680 0.352531 0.578782 -0.279971
C54   C     C_R   0.895802 0.651438 0.424235 -0.200209
C55   C     C_R   0.885171 0.356841 0.419007 -0.270442
C56   C     C_R   0.098195 0.656175 0.567990 -0.198740
C57   C     C_R   0.655801 0.773977 0.688697 -0.319242
C58   C     C_R   0.353346 0.234162 0.317264 -0.340313
C59   C     C_R   0.339957 0.779034 0.308339 -0.322961
C60   C     C_R   0.632312 0.247179 0.664939 -0.341977
C61   C     C_R   0.155898 0.274070 0.688779 -0.319265
C62   C     C_R   0.853255 0.734069 0.317174 -0.340170
C63   C     C_R   0.839903 0.279101 0.308279 -0.323016
C64   C     C_R   0.132366 0.747120 0.665026 -0.341900
C65   C     C_R   0.613337 0.822182 0.664549 0.440808
C66   C     C_R   0.391217 0.181107 0.337816 0.391149
C67   C     C_R   0.385160 0.823657 0.336737 0.437550
C68   C     C_R   0.599812 0.189180 0.650854 0.393823
C69   C     C_R   0.113401 0.322235 0.664594 0.440790
C70   C     C_R   0.891163 0.681054 0.337768 0.391051
C71   C     C_R   0.885135 0.323680 0.336731 0.437508
C72   C     C_R   0.099829 0.689150 0.650895 0.393720
C73   C     C_R   0.644042 0.829038 0.516876 0.310082
C74   C     C_R   0.371844 0.182941 0.492019 0.305181
C75   C     C_R   0.343278 0.840522 0.473920 0.301669
C76   C     C_R   0.618347 0.188588 0.496278 0.307792
C77   C     C_R   0.144158 0.329134 0.516958 0.310054
C78   C     C_R   0.871752 0.682882 0.491950 0.305161
C79   C     C_R   0.843173 0.340633 0.473826 0.301593
C80   C     C_R   0.118396 0.688564 0.496341 0.307734
C81   C     C_R   0.694731 0.793972 0.549189 0.036452
C82   C     C_R   0.325111 0.225781 0.466871 -0.039733
C83   C     C_R   0.292326 0.807157 0.436519 0.031128
C84   C     C_R   0.660927 0.237209 0.515939 -0.041545
C85   C     C_R   0.194862 0.294101 0.549310 0.036411
C86   C     C_R   0.824989 0.725674 0.466759 -0.039697
C87   C     C_R   0.792221 0.307274 0.436391 0.031078
C88   C     C_R   0.161008 0.737144 0.516047 -0.041513
C89   C     C_R   0.697801 0.761873 0.633642 0.035746
C90   C     C_R   0.319265 0.255338 0.380315 0.078293
C91   C     C_R   0.293176 0.771953 0.356089 0.039118
C92   C     C_R   0.664293 0.269939 0.599304 0.077587
C93   C     C_R   0.197923 0.261999 0.633759 0.035758
C94   C     C_R   0.819143 0.755222 0.380196 0.078240
C95   C     C_R   0.793092 0.272058 0.355977 0.039165
C96   C     C_R   0.164380 0.769861 0.599423 0.077553
C97   C     C_R   0.739542 0.785204 0.496426 0.112823
C98   C     C_R   0.282924 0.237698 0.523462 0.057863
C99   C     C_R   0.244118 0.800791 0.483385 0.113692
C100  C     C_R   0.702630 0.250793 0.458503 0.057814
C101  C     C_R   0.239689 0.285345 0.496571 0.112845
C102  C     C_R   0.782784 0.737565 0.523323 0.057860
C103  C     C_R   0.743998 0.300909 0.483230 0.113697
C104  C     C_R   0.202732 0.750696 0.458641 0.057818
C105  C     C_R   0.279795 0.199984 0.602084 -0.227989
C106  C     C_R   0.742797 0.823178 0.418169 -0.148046
C107  C     C_R   0.708220 0.211811 0.382849 -0.230212
C108  C     C_R   0.236939 0.842021 0.555838 -0.142580
C109  C     C_R   0.779653 0.699841 0.601936 -0.227943
C110  C     C_R   0.242956 0.323330 0.418329 -0.148015
C111  C     C_R   0.208316 0.711705 0.382994 -0.230184
C112  C     C_R   0.736796 0.342151 0.555659 -0.142551
H1    H     H_    0.240325 0.186034 0.720145 0.169831
H2    H     H_    0.778279 0.832983 0.295558 0.146349
H3    H     H_    0.752578 0.194838 0.271064 0.170110
H4    H     H_    0.198847 0.854085 0.675453 0.148195
H5    H     H_    0.740191 0.685889 0.720005 0.169834
H6    H     H_    0.278431 0.333133 0.295713 0.146357
H7    H     H_    0.252658 0.694727 0.271193 0.170123
H8    H     H_    0.698709 0.354207 0.675279 0.148194
H9    H     H_    0.655801 0.745614 0.749981 0.163063
H10   H     H_    0.348176 0.256510 0.250710 0.156811
H11   H     H_    0.342245 0.747965 0.251009 0.159845
H12   H     H_    0.635473 0.272259 0.728868 0.155042
H13   H     H_    0.155898 0.245706 0.750062 0.163059
H14   H     H_    0.848089 0.756407 0.250613 0.156892
H15   H     H_    0.842201 0.248016 0.250970 0.159783
H16   H     H_    0.135524 0.772188 0.728965 0.155117
H17   H     H_    0.307098 0.158133 0.620592 0.200068
H18   H     H_    0.716187 0.865810 0.401111 0.197499
H19   H     H_    0.681816 0.169168 0.364910 0.201874
H20   H     H_    0.261661 0.886571 0.569017 0.193372
H21   H     H_    0.806958 0.657990 0.620432 0.200036
H22   H     H_    0.216354 0.365972 0.401288 0.197459
H23   H     H_    0.181905 0.669065 0.365066 0.201857
H24   H     H_    0.761492 0.386719 0.568809 0.193364
H25   H     H_    0.533192 0.985460 0.787699 0.187589
H26   H     H_    0.467313 0.982338 0.212639 0.186078
H27   H     H_    0.033194 0.485476 0.787694 0.187599
H28   H     H_    0.967320 0.482297 0.212631 0.186045
H29   H     H_    0.365724 0.016807 0.647389 0.154833
H30   H     H_    0.633840 0.019828 0.352211 0.150577
H31   H     H_    0.865722 0.516799 0.647390 0.154910
H32   H     H_    0.133836 0.519847 0.352212 0.150612
N1    N     N_R   0.549130 0.000000 0.284090 -0.129834
N2    N     N_R   0.450870 1.000000 0.715910 -0.131669
N3    N     N_R   0.049130 0.500000 0.284090 -0.129882
N4    N     N_R   0.950870 0.500000 0.715910 -0.131719
O1    O     O_R   0.541320 0.066090 0.608930 -0.571704
O2    O     O_R   0.458680 0.933910 0.391070 -0.601101
O3    O     O_R   0.458680 0.066090 0.391070 -0.568631
O4    O     O_R   0.541320 0.933910 0.608930 -0.594306
O5    O     O_R   0.041320 0.566090 0.608930 -0.571768
O6    O     O_R   0.958680 0.433910 0.391070 -0.601139
O7    O     O_R   0.958680 0.566090 0.391070 -0.568665
O8    O     O_R   0.041320 0.433910 0.608930 -0.594298
O9    O     O_R   0.572880 0.066110 0.470280 -0.572219
O10   O     O_R   0.427120 0.933890 0.529720 -0.590136
O11   O     O_R   0.427120 0.066110 0.529720 -0.572525
O12   O     O_R   0.572880 0.933890 0.470280 -0.593105
O13   O     O_R   0.072880 0.566110 0.470280 -0.572217
O14   O     O_R   0.927120 0.433890 0.529720 -0.590112
O15   O     O_R   0.927120 0.566110 0.529720 -0.572488
O16   O     O_R   0.072880 0.433890 0.470280 -0.593072
Zn1   Zn    Zn3+2 0.478910 1.000000 0.592580 0.991417
Zn2   Zn    Zn3+2 0.521090 1.000000 0.407420 0.989205
Zn3   Zn    Zn3+2 0.978910 0.500000 0.592580 0.991398
Zn4   Zn    Zn3+2 0.021090 0.500000 0.407420 0.989155
O17   O     O_3   0.592028 0.050896 0.882102 -0.598958
C113  C     C_3   0.647748 0.029479 0.867258 0.178214
H33   H     H_    0.654825 0.977501 0.884868 0.117335
H34   H     H_    0.682527 0.060274 0.905889 0.212911
C114  C     C_3   0.654071 0.036151 0.768190 -0.860123
H35   H     H_    0.655716 0.087988 0.749024 0.288160
H36   H     H_    0.695722 0.013485 0.757284 0.189219
H37   H     H_    0.617707 0.011121 0.724599 0.269071
O18   O     O_3   0.406132 0.044892 0.117184 -0.594784
C115  C     C_3   0.352325 0.017978 0.133766 0.179102
H38   H     H_    0.348565 0.965713 0.116844 0.109782
H39   H     H_    0.315250 0.045842 0.095587 0.214471
C116  C     C_3   0.346408 0.023044 0.233086 -0.855853
H40   H     H_    0.340400 0.074272 0.250968 0.283246
H41   H     H_    0.307194 0.995400 0.245654 0.188580
H42   H     H_    0.385066 0.002329 0.276730 0.272439
O19   O     O_3   0.092029 0.550905 0.882105 -0.598910
C117  C     C_3   0.147753 0.529494 0.867267 0.178221
H43   H     H_    0.154834 0.477518 0.884878 0.117335
H44   H     H_    0.182527 0.560293 0.905902 0.212915
C118  C     C_3   0.154080 0.536167 0.768202 -0.860114
H45   H     H_    0.155734 0.588005 0.749042 0.288137
H46   H     H_    0.195729 0.513495 0.757298 0.189224
H47   H     H_    0.117714 0.511145 0.724605 0.269067
O20   O     O_3   0.906127 0.544855 0.117190 -0.594674
C119  C     C_3   0.852343 0.517890 0.133793 0.179064
H48   H     H_    0.848618 0.465623 0.116871 0.109680
H49   H     H_    0.815244 0.545724 0.095629 0.214506
C120  C     C_3   0.846435 0.522945 0.233116 -0.855797
H50   H     H_    0.840410 0.574170 0.251003 0.283238
H51   H     H_    0.807234 0.495281 0.245694 0.188578
H52   H     H_    0.885104 0.502249 0.276751 0.272452
O21   O     O_3   0.399040 0.176347 0.580908 -0.777165
H53   H     H_    0.392999 0.216884 0.613492 0.326621
O22   O     O_3   0.624560 0.831694 0.424573 -0.760644
H54   H     H_    0.581343 0.827029 0.413973 0.366890
O23   O     O_3   0.590720 0.177177 0.408800 -0.774529
H55   H     H_    0.593318 0.217252 0.372388 0.324126
O24   O     O_3   0.355510 0.847653 0.566753 -0.763402
H56   H     H_    0.396598 0.833962 0.586937 0.362042
O25   O     O_3   0.898923 0.676310 0.580856 -0.777205
H57   H     H_    0.892843 0.716842 0.613426 0.326644
O26   O     O_3   0.124715 0.331795 0.424646 -0.760693
H58   H     H_    0.081504 0.327057 0.413998 0.366858
O27   O     O_3   0.090783 0.677181 0.408847 -0.774597
H59   H     H_    0.093420 0.717254 0.372448 0.324144
O28   O     O_3   0.855355 0.347811 0.566653 -0.763465
H60   H     H_    0.896413 0.334039 0.586912 0.362007
O29   O     O_3   0.422185 0.156862 0.273608 -0.555480
C121  C     C_3   0.460814 0.204892 0.249520 0.152246
H61   H     H_    0.484949 0.229896 0.310287 0.135002
H62   H     H_    0.436531 0.241435 0.203044 0.119643
C122  C     C_3   0.505510 0.173141 0.200114 -0.715743
H63   H     H_    0.483175 0.149873 0.137142 0.271440
H64   H     H_    0.536585 0.210345 0.182045 0.178488
H65   H     H_    0.530417 0.135913 0.244266 0.284442
O30   O     O_3   0.568477 0.829412 0.714548 -0.576962
C123  C     C_3   0.590623 0.852885 0.801804 0.110505
H66   H     H_    0.601868 0.904779 0.796355 0.134019
H67   H     H_    0.630121 0.826637 0.835714 0.120636
C124  C     C_3   0.543859 0.845638 0.861800 -0.834605
H68   H     H_    0.536678 0.793390 0.875570 0.256137
H69   H     H_    0.557971 0.870822 0.927079 0.187964
H70   H     H_    0.501946 0.866787 0.827924 0.263219
O31   O     O_3   0.570883 0.163717 0.717531 -0.561060
C125  C     C_3   0.529742 0.208866 0.739660 0.147047
H71   H     H_    0.504733 0.232500 0.678052 0.138712
H72   H     H_    0.552026 0.246717 0.785569 0.121450
C126  C     C_3   0.486241 0.173793 0.789057 -0.711896
H73   H     H_    0.509343 0.151133 0.852340 0.271436
H74   H     H_    0.453617 0.208797 0.806537 0.179726
H75   H     H_    0.462983 0.135652 0.745053 0.284239
O32   O     O_3   0.435238 0.824060 0.296995 -0.581334
C127  C     C_3   0.421990 0.842810 0.205072 0.113879
H76   H     H_    0.406767 0.893690 0.200189 0.126947
H77   H     H_    0.388046 0.811586 0.165368 0.123872
C128  C     C_3   0.476951 0.837667 0.162124 -0.823034
H78   H     H_    0.488998 0.785839 0.157206 0.256904
H79   H     H_    0.469056 0.859444 0.093099 0.191732
H80   H     H_    0.513946 0.863412 0.203782 0.267659
O33   O     O_3   0.922160 0.656836 0.273583 -0.555444
C129  C     C_3   0.960843 0.704865 0.249655 0.152121
H81   H     H_    0.984986 0.729765 0.310506 0.135149
H82   H     H_    0.936605 0.741494 0.203272 0.119599
C130  C     C_3   0.005524 0.673144 0.200191 -0.715565
H83   H     H_    0.983180 0.649938 0.137178 0.271391
H84   H     H_    0.036617 0.710354 0.182192 0.178490
H85   H     H_    0.030414 0.635871 0.244280 0.284392
O34   O     O_3   0.068520 0.329425 0.714562 -0.576952
C131  C     C_3   0.090631 0.352916 0.801822 0.110552
H86   H     H_    0.101858 0.404814 0.796368 0.134010
H87   H     H_    0.130132 0.326689 0.835765 0.120625
C132  C     C_3   0.043848 0.345654 0.861782 -0.834669
H88   H     H_    0.036682 0.293404 0.875560 0.256129
H89   H     H_    0.057933 0.370849 0.927059 0.187956
H90   H     H_    0.001934 0.366782 0.827874 0.263221
O35   O     O_3   0.070866 0.663708 0.717544 -0.561010
C133  C     C_3   0.029675 0.708851 0.739526 0.146942
H91   H     H_    0.004664 0.732389 0.677843 0.138815
H92   H     H_    0.051911 0.746777 0.785350 0.121418
C134  C     C_3   0.986186 0.673802 0.788970 -0.711780
H93   H     H_    0.009292 0.651200 0.852293 0.271391
H94   H     H_    0.953542 0.708808 0.806381 0.179749
H95   H     H_    0.962949 0.635618 0.745023 0.284190
O36   O     O_3   0.935260 0.324003 0.297107 -0.581374
C135  C     C_3   0.922113 0.342684 0.205148 0.113922
H96   H     H_    0.906838 0.393546 0.200132 0.126844
H97   H     H_    0.888251 0.311388 0.165400 0.123932
C136  C     C_3   0.977160 0.337577 0.162409 -0.823002
H98   H     H_    0.989278 0.285759 0.157621 0.256906
H99   H     H_    0.969338 0.359295 0.093348 0.191762
H100  H     H_    0.014082 0.363394 0.204137 0.267671
O37   O     O_3   0.671368 0.010592 0.044697 -0.578665
C137  C     C_3   0.686394 0.944231 0.059693 0.114776
H101  H     H_    0.658702 0.912008 0.010571 0.084501
H102  H     H_    0.681544 0.928413 0.129278 0.170283
C138  C     C_3   0.749931 0.934851 0.048936 -0.823927
H103  H     H_    0.778765 0.965300 0.098600 0.275710
H104  H     H_    0.762258 0.883086 0.060973 0.201503
H105  H     H_    0.756225 0.948890 0.979387 0.235778
O38   O     O_3   0.328304 0.003978 0.955096 -0.577308
C139  C     C_3   0.314598 0.937267 0.940359 0.115811
H106  H     H_    0.343707 0.905272 0.988306 0.080983
H107  H     H_    0.318618 0.922892 0.870230 0.174992
C140  C     C_3   0.251748 0.925085 0.953566 -0.823246
H108  H     H_    0.221563 0.955215 0.905048 0.274503
H109  H     H_    0.240421 0.873056 0.941612 0.204743
H110  H     H_    0.246311 0.937608 0.023712 0.235222
O39   O     O_3   0.171368 0.510595 0.044702 -0.578667
C141  C     C_3   0.186391 0.444233 0.059696 0.114764
H111  H     H_    0.158695 0.412012 0.010576 0.084500
H112  H     H_    0.181543 0.428417 0.129282 0.170298
C142  C     C_3   0.249927 0.434848 0.048932 -0.823947
H113  H     H_    0.278764 0.465294 0.098595 0.275705
H114  H     H_    0.262250 0.383082 0.060967 0.201506
H115  H     H_    0.256218 0.448887 0.979383 0.235782
O40   O     O_3   0.828304 0.503967 0.955100 -0.577273
C143  C     C_3   0.814593 0.437258 0.940348 0.115823
H116  H     H_    0.843708 0.405254 0.988273 0.080937
H117  H     H_    0.818600 0.422894 0.870211 0.175016
C144  C     C_3   0.751748 0.425075 0.953580 -0.823251
H118  H     H_    0.721557 0.455212 0.905081 0.274496
H119  H     H_    0.740417 0.373048 0.941617 0.204744
H120  H     H_    0.746324 0.437589 0.023735 0.235220
O41   O     O_3   0.685978 0.043001 0.209731 -0.724678
H121  H     H_    0.705806 0.045685 0.273525 0.311720
O42   O     O_3   0.313073 0.037379 0.789494 -0.724290
H122  H     H_    0.293219 0.039726 0.725644 0.311583
O43   O     O_3   0.185975 0.543016 0.209732 -0.724669
H123  H     H_    0.205803 0.545703 0.273526 0.311703
O44   O     O_3   0.813072 0.537371 0.789497 -0.724284
H124  H     H_    0.793218 0.539717 0.725647 0.311576

loop_
_geom_bond_atom_site_label_1
_geom_bond_atom_site_label_2
_ccdc_geom_bond_type
C119  H49   S    
C139  C140  S    
C33   C45   A    
C64   C72   A    
C53   C69   A    
C79   C87   A    
O4    Zn1   S    
C142  H113  S    
C137  H101  S    
C7    O15   A    
C119  C120  S    
C10   C94   A    
C129  H82   S    
C29   C33   A    
C30   C38   A    
C135  H96   S    
C37   C42   A    
C120  H51   S    
C14   C90   A    
C75   O24   S    
C40   C43   A    
C56   C72   A    
C127  H77   S    
O12   Zn2   S    
C11   H3    S    
C129  C130  S    
C114  H36   S    
C35   C47   A    
C128  H78   S    
C82   C98   A    
C125  H72   S    
C73   C81   A    
N1    Zn2   S    
C116  H41   S    
C25   C29   A    
C58   H10   S    
C127  C128  S    
C109  H21   S    
C84   C100  A    
C28   C32   A    
C62   H14   S    
C101  C110  A    
O27   H59   S    
C41   O17   S    
C17   C21   A    
C17   O41   S    
C103  C112  A    
C125  C126  S    
C5    O13   A    
C19   C23   A    
O28   H60   S    
C37   C38   A    
C15   C111  A    
C13   H5    S    
C54   C70   A    
C143  H116  S    
C65   O30   S    
C59   C91   A    
C70   O33   S    
O18   C115  S    
C87   C103  A    
C63   C71   A    
C134  H94   S    
C49   C73   A    
C141  H111  S    
C130  H84   S    
C142  H115  S    
C106  H18   S    
C144  H118  S    
C74   O21   S    
C140  H110  S    
C83   C91   A    
N3    Zn4   S    
C4    C49   S    
C138  H104  S    
C19   C35   A    
C71   O36   S    
C68   O31   S    
C15   C91   A    
O39   C141  S    
C80   C88   A    
O20   C119  S    
C128  H80   S    
N4    Zn3   S    
C41   C45   A    
C102  C109  A    
C117  H43   S    
C43   C47   A    
C55   C71   A    
C44   C48   A    
O10   Zn1   S    
C2    O2    A    
C128  H79   S    
C131  H87   S    
C26   H25   S    
C75   C83   A    
C115  H38   S    
O41   H121  S    
C99   C108  A    
C73   O22   S    
C62   C70   A    
O33   C129  S    
C122  H63   S    
C32   C36   A    
C48   O40   S    
C21   H30   S    
C66   O29   S    
C16   H8    S    
C132  H88   S    
C113  H33   S    
C43   O19   S    
C24   H31   S    
C9    C105  A    
O2    Zn2   S    
O32   C127  S    
C26   N2    A    
C13   C109  A    
C59   C67   A    
C85   C93   A    
C22   N2    A    
C87   C95   A    
C34   C46   A    
O31   C125  S    
C77   C85   A    
C136  H98   S    
C3    O11   A    
C28   H27   S    
C112  H24   S    
C88   C104  A    
C3    C50   S    
O38   C139  S    
C144  H119  S    
C4    O4    A    
C30   C34   A    
O1    Zn1   S    
C64   C96   A    
C38   C41   A    
C8    O16   A    
C39   C40   A    
O29   C121  S    
O11   Zn1   S    
C46   O38   S    
C140  H108  S    
C50   C66   A    
C121  H62   S    
O25   H57   S    
C51   C67   A    
C133  H92   S    
N2    Zn1   S    
C26   C30   A    
C110  H22   S    
C86   C102  A    
C121  C122  S    
C69   O34   S    
C14   C110  A    
C18   C22   A    
C52   C76   A    
C133  C134  S    
C8    C53   S    
C130  H85   S    
C39   C44   A    
C137  H102  S    
C56   C80   A    
C9    H1    S    
C126  H74   S    
C131  H86   S    
C141  H112  S    
C20   O44   S    
C15   H7    S    
C119  H48   S    
C135  H97   S    
C120  H50   S    
C108  H20   S    
C10   C106  A    
C137  C138  S    
C123  H66   S    
C136  H100  S    
C84   C92   A    
C12   H4    S    
C88   C96   A    
C135  C136  S    
C5    C56   S    
C6    C55   S    
C76   C84   A    
C116  H40   S    
C44   O20   S    
C57   C89   A    
C74   C82   A    
C122  H65   S    
C61   C93   A    
C144  H120  S    
C11   C95   A    
C63   C95   A    
C139  H106  S    
C42   C46   A    
C143  H117  S    
C1    O1    A    
C97   C102  A    
C10   H2    S    
C81   C89   A    
C99   C104  A    
O42   H122  S    
C83   C99   A    
C134  H93   S    
O5    Zn3   S    
O6    Zn4   S    
C17   C33   A    
C19   O43   S    
C142  H114  S    
C59   H11   S    
C28   N4    A    
C143  C144  S    
O24   H56   S    
O17   C113  S    
C129  H81   S    
C114  H35   S    
C27   C31   A    
C100  C103  A    
C141  C142  S    
C21   N1    A    
C120  H52   S    
C53   C77   A    
C138  H103  S    
C132  H90   S    
C55   C79   A    
O26   H58   S    
O16   Zn4   S    
O7    Zn4   S    
C2    O10   A    
C127  H76   S    
C58   C90   A    
C6    O6    A    
C97   C106  A    
C16   C92   A    
C62   C94   A    
C31   C35   A    
C23   H32   S    
C125  H71   S    
C117  H44   S    
O3    Zn2   S    
C76   O23   S    
C16   C112  A    
C12   C108  A    
C116  H42   S    
C57   C65   A    
C115  H39   S    
C124  H70   S    
C98   C101  A    
C82   C90   A    
C117  C118  S    
C50   C74   A    
C124  H69   S    
C111  H23   S    
O19   C117  S    
C130  H83   S    
C113  H34   S    
C72   O35   S    
C118  H45   S    
C1    C52   S    
C115  C116  S    
C2    C51   S    
O44   H124  S    
C20   C36   A    
C7    O7    A    
C60   C68   A    
C122  H64   S    
O40   C143  S    
C134  H95   S    
C29   C37   A    
C12   C96   A    
C7    C54   S    
C60   C92   A    
C54   C78   A    
C113  C114  S    
O22   H54   S    
O21   H53   S    
C67   O32   S    
O23   H55   S    
C124  H68   S    
C98   C105  A    
C49   C65   A    
C47   O39   S    
C51   C75   A    
O34   C131  S    
C138  H105  S    
C42   O18   S    
C118  H46   S    
C60   H12   S    
C86   C94   A    
C58   C66   A    
C20   C24   A    
C64   H16   S    
C36   C48   A    
O35   C133  S    
C52   C68   A    
C78   C86   A    
C79   O28   S    
C45   O37   S    
C6    O14   A    
C18   O42   S    
C107  H19   S    
C24   N4    A    
C132  H89   S    
C105  H17   S    
O8    Zn3   S    
C14   H6    S    
O37   C137  S    
C118  H47   S    
O15   Zn3   S    
O30   C123  S    
C18   C34   A    
C78   O25   S    
C123  H67   S    
C136  H99   S    
C11   C107  A    
C126  H75   S    
C131  C132  S    
C9    C93   A    
C85   C101  A    
C114  H37   S    
C61   C69   A    
C100  C107  A    
C13   C89   A    
O9    Zn2   S    
C104  C111  A    
C25   N1    A    
C123  C124  S    
C80   O27   S    
C3    O3    A    
C27   H28   S    
C1    O9    A    
C25   H26   S    
C140  H109  S    
C23   N3    A    
C121  H61   S    
C4    O12   A    
C81   C97   A    
C5    O5    A    
C22   H29   S    
C31   C39   A    
C139  H107  S    
C32   C40   A    
O43   H123  S    
C8    O8    A    
O13   Zn4   S    
C133  H91   S    
C77   O26   S    
C57   H9    S    
O14   Zn3   S    
C27   N3    A    
C61   H13   S    
C126  H73   S    
C63   H15   S    
O36   C135  S    
