data_mof_unit_305.cif
_audit_creation_date              2012-10-26T19:40:00-0400
_audit_creation_method            fapswitch 2.2
_symmetry_space_group_name_H-M    P1
_symmetry_Int_Tables_number       1
_space_group_crystal_system       triclinic
_cell_length_a                    14.996193
_cell_length_b                    8.688322
_cell_length_c                    7.607086
_cell_angle_alpha                 103.820169
_cell_angle_beta                  94.706464
_cell_angle_gamma                 95.469756
_cell_volume                      952.415300224

loop_
_atom_site_label
_atom_site_type_symbol
_atom_type_description
_atom_site_fract_x
_atom_site_fract_y
_atom_site_fract_z
_atom_type_partial_charge
C1    C     C_R   0.497012 0.199801 0.452604 0.552320
C2    C     C_R   0.176236 0.345726 0.442309 -0.038736
C3    C     C_R   0.767179 0.508929 0.497918 -0.012549
C4    C     C_R   0.232821 0.491071 0.502082 -0.012549
C5    C     C_R   0.801635 0.365532 0.437692 -0.122961
C6    C     C_R   0.198365 0.634468 0.562308 -0.122961
C7    C     C_R   0.893753 0.361936 0.437345 0.012546
C8    C     C_R   0.106247 0.638064 0.562654 0.012546
C9    C     C_R   0.953189 0.504164 0.500278 0.039046
C10   C     C_R   0.046811 0.495836 0.499722 0.039046
C11   C     C_R   0.918980 0.653804 0.563474 -0.000478
C12   C     C_R   0.502988 0.800199 0.547396 0.552320
C13   C     C_R   0.081020 0.346196 0.436525 -0.000478
C14   C     C_R   0.926235 0.216131 0.373998 -0.102056
C15   C     C_R   0.073764 0.783869 0.626002 -0.102056
C16   C     C_1   0.781192 0.799764 0.603441 0.174773
C17   C     C_1   0.218808 0.200236 0.396556 0.174773
C18   C     C_1   0.042166 0.048639 0.292950 0.207882
C19   C     C_1   0.957834 0.951361 0.707049 0.207882
C20   C     C_3   0.391197 0.366642 0.938785 -0.050075
C21   C     C_3   0.366391 0.209590 0.991869 -0.292938
C22   C     C_3   0.287481 0.106674 0.864326 -0.490427
C23   C     C_R   0.018084 0.205944 0.370793 -0.003927
C24   C     C_3   0.608803 0.633358 0.061214 -0.050075
C25   C     C_3   0.633609 0.790410 0.008132 -0.292938
C26   C     C_3   0.712518 0.893329 0.135677 -0.490425
C27   C     C_R   0.981916 0.794056 0.629206 -0.003927
C28   C     C_2   0.495471 0.030680 0.427436 -0.134776
C29   C     C_2   0.504529 0.969320 0.572564 -0.134776
C30   C     C_R   0.329525 0.496927 0.500661 0.546640
C31   C     C_R   0.670475 0.503073 0.499338 0.546640
C32   C     C_R   0.823764 0.654274 0.557690 -0.038736
Cu1   Cu    Cu3+1 0.510010 0.517380 0.684380 0.927727
Cu2   Cu    Cu3+1 0.489990 0.482620 0.315620 0.927728
H1    H     H_    0.755893 0.255730 0.391512 0.116117
H2    H     H_    0.425100 0.140168 0.984445 0.172266
H3    H     H_    0.345567 0.232683 0.130464 0.227761
H4    H     H_    0.335405 0.442301 0.960538 0.144990
H5    H     H_    0.397025 0.325817 0.795258 0.200334
H6    H     H_    0.693319 0.930915 0.276150 0.164846
H7    H     H_    0.771937 0.826202 0.136999 0.165903
H8    H     H_    0.731301 0.002126 0.088069 0.171210
H9    H     H_    0.654433 0.767317 0.869537 0.227760
H10   H     H_    0.574898 0.859831 0.015554 0.172267
H11   H     H_    0.602975 0.674182 0.204742 0.200334
H12   H     H_    0.244107 0.744270 0.608489 0.116117
H13   H     H_    0.664595 0.557700 0.039460 0.144989
H14   H     H_    0.879091 0.108349 0.325078 0.120314
H15   H     H_    0.120909 0.891651 0.674922 0.120313
H16   H     H_    0.486720 0.956514 0.288808 0.127319
H17   H     H_    0.513281 0.043486 0.711192 0.127319
H18   H     H_    0.228063 0.173803 0.863006 0.165903
H19   H     H_    0.306678 0.069089 0.723852 0.164846
H20   H     H_    0.268695 0.997876 0.911932 0.171211
N1    N     N_2   0.474890 0.456420 0.038520 -0.148328
N2    N     N_2   0.525110 0.543580 0.961480 -0.148328
N3    N     N_1   0.746297 0.914861 0.638881 -0.323036
N4    N     N_1   0.253703 0.085139 0.361115 -0.323036
N5    N     N_1   0.060169 0.921951 0.229812 -0.278240
N6    N     N_1   0.939830 0.078049 0.770188 -0.278240
O1    O     O_R   0.506510 0.286130 0.619770 -0.518245
O2    O     O_R   0.493490 0.713870 0.380230 -0.518245
O3    O     O_R   0.489600 0.256770 0.308360 -0.516023
O4    O     O_R   0.510400 0.743230 0.691640 -0.516023
O5    O     O_R   0.378710 0.514640 0.655720 -0.533293
O6    O     O_R   0.621290 0.485360 0.344280 -0.533293
O7    O     O_R   0.361800 0.485290 0.344300 -0.505909
O8    O     O_R   0.638200 0.514710 0.655700 -0.505909

loop_
_geom_bond_atom_site_label_1
_geom_bond_atom_site_label_2
_ccdc_geom_bond_type
Cu2   O7    S    
C14   C23   A    
C1    C28   S    
C2    C4    A    
N1    N2    D    
C12   C29   S    
C16   C32   S    
C19   C27   S    
C9    C10   A    
C15   C27   A    
C30   O7    A    
C11   C27   A    
C17   N4    T    
C26   H6    S    
C25   H9    S    
Cu1   N2    S    
Cu1   Cu2   S    
C20   H5    S    
Cu1   O5    S    
Cu2   N1    S    
C22   H20   S    
C21   H2    S    
C21   C22   S    
C24   C25   S    
C2    C17   S    
C3    C31   S    
C9    C11   A    
Cu2   O6    S    
C31   O8    A    
C20   N1    S    
C6    C8    A    
C24   H11   S    
C5    H1    S    
C25   H10   S    
C8    C10   A    
Cu2   O3    S    
C11   C32   A    
C22   H19   S    
C5    C7    A    
C16   N3    T    
C15   H15   S    
C26   H8    S    
C3    C32   A    
C12   O4    A    
C30   O5    A    
C24   N2    S    
C12   O2    A    
C24   H13   S    
C18   C23   S    
C1    O3    A    
C18   N5    T    
Cu2   O2    S    
C20   H4    S    
C20   C21   S    
C13   C23   A    
C21   H3    S    
Cu1   O1    S    
C4    C6    A    
C29   H17   S    
C7    C9    A    
C2    C13   A    
C28   C29   D    
C19   N6    T    
C14   H14   S    
C8    C15   A    
C6    H12   S    
C22   H18   S    
C25   C26   S    
C31   O6    A    
C28   H16   S    
C7    C14   A    
C4    C30   S    
C26   H7    S    
C1    O1    A    
Cu1   O8    S    
C3    C5    A    
C10   C13   A    
Cu1   O4    S    
