data_mof_unit_190.cif
_audit_creation_date              2012-12-10T16:56:28-0500
_audit_creation_method            fapswitch 2.2
_symmetry_space_group_name_H-M    P1
_symmetry_Int_Tables_number       1
_space_group_crystal_system       triclinic
_cell_length_a                    7.837728
_cell_length_b                    8.625474
_cell_length_c                    15.694881
_cell_angle_alpha                 91.784738
_cell_angle_beta                  85.325665
_cell_angle_gamma                 93.395779
_cell_volume                      1055.28341509

loop_
_atom_site_label
_atom_site_type_symbol
_atom_type_description
_atom_site_fract_x
_atom_site_fract_y
_atom_site_fract_z
_atom_type_partial_charge
Br1   Br    Br    0.754234 0.779556 0.917025 -0.245945
Br2   Br    Br    0.245758 0.220187 0.082833 -0.260009
Br3   Br    Br    0.040029 0.310459 0.398065 -0.317666
Br4   Br    Br    0.959971 0.689539 0.601936 -0.320251
C1    C     C_R   0.545323 0.794427 0.497873 0.952021
C2    C     C_3   0.400396 0.380579 0.031862 0.275882
C3    C     C_1   0.503225 0.494105 0.750399 -0.072395
C4    C     C_1   0.496766 0.505828 0.249597 -0.070148
C5    C     C_3   0.338979 0.508164 0.976322 -0.385078
C6    C     C_3   0.661002 0.491638 0.023666 -0.367926
C7    C     C_3   0.503537 0.493574 0.916509 -0.120510
C8    C     C_3   0.496429 0.506259 0.083484 -0.096426
C9    C     C_1   0.504123 0.491607 0.825606 0.132939
C10   C     C_1   0.495859 0.508268 0.174388 0.141032
C11   C     C_R   0.454676 0.205573 0.502130 0.953209
C12   C     C_R   0.501060 0.498698 0.661735 0.886338
C13   C     C_R   0.498939 0.501296 0.338264 0.887792
C14   C     C_2   0.569090 0.957762 0.496661 -0.319526
C15   C     C_2   0.430909 0.042239 0.503346 -0.320424
C16   C     C_3   0.436779 0.632852 0.028937 0.327499
C17   C     C_3   0.563189 0.366972 0.971044 0.378109
C18   C     C_3   0.599584 0.619232 0.968117 0.253610
H1    H     H_    0.792349 0.485008 0.044526 0.212973
H2    H     H_    0.207644 0.515112 0.955489 0.224368
H3    H     H_    0.699915 0.008079 0.490271 0.210330
H4    H     H_    0.300085 0.991921 0.509736 0.210144
H5    H     H_    0.303099 0.843134 0.935834 0.362423
H6    H     H_    0.834951 0.179415 0.028154 0.372501
N1    N     N_2   0.950320 0.457950 0.477300 0.075722
N2    N     N_2   0.049680 0.542050 0.522700 0.075701
O1    O     O_R   0.389250 0.738570 0.505570 -0.606597
O2    O     O_2   0.477907 0.915612 0.102838 -0.174984
O3    O     O_3   0.250372 0.888448 0.989718 -0.416276
O4    O     O_2   0.522603 0.087775 0.893545 -0.212812
O5    O     O_2   0.797595 0.233313 0.862801 -0.263769
O6    O     O_3   0.738785 0.107947 0.011773 -0.419206
O7    O     O_R   0.610750 0.261430 0.494430 -0.606253
O8    O     O_R   0.678390 0.711630 0.491020 -0.594339
O9    O     O_R   0.321610 0.288370 0.508980 -0.594468
O10   O     O_R   0.355460 0.513480 0.630490 -0.597094
O11   O     O_R   0.644540 0.486520 0.369510 -0.595823
O12   O     O_R   0.644600 0.486540 0.615950 -0.583729
O13   O     O_R   0.355400 0.513460 0.384050 -0.584542
O14   O     O_2   0.207650 0.765703 0.139431 -0.235719
S1    S     S_3+6 0.342500 0.805672 0.068719 0.139880
S2    S     S_3+6 0.656985 0.194444 0.930990 0.122443
Zn1   Zn    Zn3+2 0.306940 0.517990 0.509710 1.092979
Zn2   Zn    Zn3+2 0.693060 0.482010 0.490290 1.094019

loop_
_geom_bond_atom_site_label_1
_geom_bond_atom_site_label_2
_ccdc_geom_bond_type
O10   Zn1   S    
C13   O13   A    
C5    H2    S    
O6    S2    S    
N1    N2    D    
O4    S2    D    
C6    H1    S    
O3    S1    S    
O2    S1    D    
C5    C16   S    
O8    Zn2   S    
C4    C13   S    
C3    C9    T    
C8    C16   S    
C2    C5    S    
Br4   N2    S    
Br1   C18   S    
O12   Zn2   S    
C1    O8    A    
C6    C18   S    
O7    Zn2   S    
C11   C15   S    
C5    C7    S    
C11   O9    A    
Br2   C2    S    
C14   H3    S    
C6    C8    S    
C12   O10   A    
C3    C12   S    
O1    Zn1   S    
O11   Zn2   S    
C8    C10   S    
C17   S2    S    
C2    C17   S    
C6    C17   S    
C2    C8    S    
C13   O11   A    
N1    Zn2   S    
C12   O12   A    
N2    Zn1   S    
C7    C9    S    
O14   S1    D    
H6    O6    S    
O9    Zn1   S    
C14   C15   D    
Br3   N1    S    
C15   H4    S    
C11   O7    A    
C4    C10   T    
C1    C14   S    
C7    C18   S    
O5    S2    D    
O13   Zn1   S    
C7    C17   S    
H5    O3    S    
C16   S1    S    
C16   C18   S    
C1    O1    A    
