data_mof_unit_2868.cif
_audit_creation_date              2012-12-11T15:57:45-0500
_audit_creation_method            fapswitch 2.2
_symmetry_space_group_name_H-M    P1
_symmetry_Int_Tables_number       1
_space_group_crystal_system       triclinic
_cell_length_a                    10.763943
_cell_length_b                    10.674583
_cell_length_c                    16.948231
_cell_angle_alpha                 98.858081
_cell_angle_beta                  99.878351
_cell_angle_gamma                 61.840098
_cell_volume                      1685.41813713

loop_
_atom_site_label
_atom_site_type_symbol
_atom_type_description
_atom_site_fract_x
_atom_site_fract_y
_atom_site_fract_z
_atom_type_partial_charge
C1    C     C_R   0.351610 0.780763 0.403342 0.522018
C2    C     C_2   0.847980 0.320878 0.163292 -0.019204
C3    C     C_2   0.753333 0.279933 0.175445 -0.106628
C4    C     C_2   0.709168 0.305281 0.256612 -0.162478
C5    C     C_2   0.312954 0.879544 0.341416 0.031505
C6    C     C_2   0.333363 0.847263 0.166427 -0.049112
C7    C     C_2   0.399139 0.905863 0.223293 -0.115303
C8    C     C_2   0.417684 0.878843 0.307731 -0.150261
C9    C     C_2   0.353618 0.330888 0.663022 -0.076885
C10   C     C_2   0.335337 0.367144 0.837274 0.010470
C11   C     C_2   0.459164 0.301096 0.804355 -0.003992
C12   C     C_R   0.369369 0.346732 0.357280 0.551217
C13   C     C_2   0.460956 0.318696 0.720805 -0.100482
C14   C     C_1   0.848176 0.327752 0.704786 -0.021499
C15   C     C_1   0.895736 0.293371 0.771663 -0.007848
C16   C     C_1   0.339092 0.812301 0.708881 -0.003734
C17   C     C_1   0.311890 0.840433 0.776764 0.028442
C18   C     C_R   0.895284 0.306414 0.086755 0.582550
C19   C     C_R   0.319381 0.299420 0.119493 0.555529
C20   C     C_R   0.291546 0.896201 0.086311 0.564432
C21   C     C_R   0.944939 0.273462 0.854186 0.565990
C22   C     C_R   0.307594 0.297428 0.895529 0.537994
C23   C     C_R   0.698683 0.421464 0.393644 0.554164
C24   C     C_R   0.277463 0.886070 0.856418 0.571677
C25   C     C_R   0.358555 0.770215 0.626968 0.549469
C26   C     C_R   0.371536 0.346398 0.583489 0.550175
C27   C     C_R   0.778465 0.378134 0.628689 0.556307
C28   C     C_1   0.342802 0.337202 0.273766 -0.015106
C29   C     C_1   0.332645 0.326287 0.202762 -0.022064
C30   C     C_2   0.700417 0.420007 0.307033 0.036286
Cr1   Cr    Cr6+3 0.608020 0.610770 0.522990 1.067682
Cr2   Cr    Cr6+3 0.289390 0.599570 0.488050 1.094985
Cr3   Cr    Cr6+3 0.602610 0.289690 0.489020 1.048401
Cr4   Cr    Cr6+3 0.053780 0.052210 0.965970 1.072190
Cr5   Cr    Cr6+3 0.060060 0.372530 0.992430 1.082019
Cr6   Cr    Cr6+3 0.372600 0.061970 0.991430 1.054945
H1    H     H_    0.712429 0.224702 0.127348 0.162754
H2    H     H_    0.557559 0.313610 0.705597 0.163068
H3    H     H_    0.255727 0.335002 0.674812 0.100475
H4    H     H_    0.697784 0.220415 0.277472 0.140941
H5    H     H_    0.898425 0.364596 0.212730 0.150158
H6    H     H_    0.441905 0.971999 0.208106 0.158426
H7    H     H_    0.525132 0.835010 0.337351 0.189148
H8    H     H_    0.292317 0.780120 0.182396 0.131459
O1    O     O_R   0.749250 0.499990 0.439200 -0.453810
O2    O     O_R   0.299400 0.468710 0.556310 -0.472931
O3    O     O_R   0.489240 0.256450 0.560730 -0.503171
O4    O     O_R   0.723350 0.306730 0.584410 -0.493412
O5    O     O_3   0.500010 0.500010 0.500020 -0.305932
O6    O     O_R   0.170650 0.915100 0.051290 -0.495524
O7    O     O_R   0.941960 0.184500 0.049060 -0.476246
O8    O     O_R   0.922640 0.402670 0.071640 -0.498861
O9    O     O_R   0.196880 0.368740 0.083740 -0.492502
O10   O     O_R   0.411120 0.181190 0.091480 -0.513255
O11   O     O_R   0.364220 0.944920 0.062310 -0.500707
O12   O     O_R   0.477870 0.725740 0.440280 -0.529130
O13   O     O_R   0.158740 0.906940 0.874970 -0.491706
O14   O     O_R   0.930920 0.176940 0.885610 -0.480755
O15   O     O_R   0.910730 0.394510 0.895320 -0.470876
O16   O     O_R   0.185840 0.361180 0.920280 -0.476223
O17   O     O_R   0.399210 0.173040 0.915160 -0.485281
O18   O     O_R   0.353170 0.937370 0.898860 -0.505872
O19   O     O_3   0.162150 0.162240 0.983280 -0.303112
O20   O     O_R   0.260770 0.742210 0.412610 -0.450551
O21   O     O_R   0.297990 0.466320 0.394220 -0.482508
O22   O     O_R   0.487720 0.253870 0.385870 -0.526915
O23   O     O_R   0.721940 0.304340 0.422320 -0.501878
O24   O     O_R   0.750770 0.502570 0.614050 -0.488549
O25   O     O_R   0.479280 0.728140 0.602370 -0.494368
O26   O     O_R   0.262290 0.744790 0.587460 -0.489999
C31   C     C_2   0.218492 0.505571 0.809114 0.548859
O27   O     O_2   0.247518 0.591673 0.787297 -0.519053
O28   O     O_R   0.076306 0.536945 0.807057 -0.675156
H9    H     H_    0.008288 0.633426 0.786606 0.349038
C32   C     C_2   0.688915 0.549613 0.276309 0.531433
O29   O     O_2   0.750310 0.615049 0.314675 -0.499834
O30   O     O_R   0.615920 0.590241 0.200651 -0.716035
H10   H     H_    0.633193 0.665427 0.181410 0.342431
C33   C     C_2   0.159820 0.969520 0.312439 0.573049
O31   O     O_2   0.124708 0.076813 0.278814 -0.533173
O32   O     O_R   0.055572 0.934329 0.325360 -0.656247
H11   H     H_    0.956746 0.004314 0.303395 0.337856
C34   C     C_2   0.596220 0.202125 0.847022 0.602884
O33   O     O_2   0.623276 0.223157 0.919476 -0.493681
O34   O     O_R   0.696168 0.087231 0.803426 -0.687639
H12   H     H_    0.784183 0.025953 0.838896 0.349058

loop_
_geom_bond_atom_site_label_1
_geom_bond_atom_site_label_2
_ccdc_geom_bond_type
C27   O4    A    
C23   O1    A    
C2    C18   S    
O28   H9    S    
C8    H7    S    
O32   H11   S    
C18   O8    A    
C7    C8    S    
O30   H10   S    
C10   C22   S    
Cr4   O7    S    
C12   C28   S    
C1    C5    S    
C28   C29   T    
C1    O12   A    
C21   O15   A    
C22   O16   A    
Cr5   O9    S    
C2    H5    S    
Cr3   O5    S    
C9    H3    S    
Cr5   O15   S    
C7    H6    S    
C23   O23   A    
C9    C13   D    
C20   O6    A    
C27   O24   A    
C4    H4    S    
C24   O13   A    
C18   O7    A    
Cr4   O13   S    
Cr1   O12   S    
C5    C33   S    
Cr6   O19   S    
C14   C27   S    
C10   C31   S    
C19   O9    A    
C6    H8    S    
Cr1   O5    S    
C20   O11   A    
Cr6   O18   S    
C9    C26   S    
Cr1   O24   S    
Cr4   O6    S    
C17   C24   S    
C23   C30   S    
Cr2   O20   S    
C33   O32   S    
C16   C17   T    
Cr2   O26   S    
C11   C34   S    
O34   H12   S    
C12   O22   A    
Cr5   O16   S    
C32   O29   D    
C34   O33   D    
C15   C21   S    
Cr3   O22   S    
C32   O30   S    
C13   H2    S    
C26   O3    A    
C19   O10   A    
C34   O34   S    
Cr3   O3    S    
C25   O25   A    
C3    C4    S    
C19   C29   S    
C1    O20   A    
Cr3   O23   S    
C31   O28   S    
C16   C25   S    
C24   O18   A    
Cr2   O2    S    
C5    C8    D    
C6    C7    D    
C6    C20   S    
C12   O21   A    
C2    C3    D    
C21   O14   A    
Cr6   O11   S    
C22   O17   A    
C30   C32   S    
C11   C13   S    
Cr4   O19   S    
Cr2   O5    S    
Cr6   O10   S    
C10   C11   D    
C26   O2    A    
C33   O31   D    
Cr1   O25   S    
C31   O27   D    
C3    H1    S    
Cr1   O1    S    
Cr5   O8    S    
Cr4   O14   S    
Cr3   O4    S    
C14   C15   T    
Cr5   O19   S    
C25   O26   A    
C4    C30   D    
Cr6   O17   S    
Cr2   O21   S    
