data_mof_unit_2331.cif
_audit_creation_date              2012-12-10T17:33:03-0500
_audit_creation_method            fapswitch 2.2
_symmetry_space_group_name_H-M    P1
_symmetry_Int_Tables_number       1
_space_group_crystal_system       triclinic
_cell_length_a                    12.499912
_cell_length_b                    13.19043
_cell_length_c                    14.326277
_cell_angle_alpha                 94.703196
_cell_angle_beta                  108.402194
_cell_angle_gamma                 117.541189
_cell_volume                      1912.98687545

loop_
_atom_site_label
_atom_site_type_symbol
_atom_type_description
_atom_site_fract_x
_atom_site_fract_y
_atom_site_fract_z
_atom_type_partial_charge
C1    C     C_R   0.651018 0.715353 0.508632 0.870968
C2    C     C_R   0.840228 0.485992 0.916185 0.017768
C3    C     C_R   0.773483 0.469013 0.983657 0.071136
C4    C     C_R   0.953835 0.475605 0.940971 0.053248
C5    C     C_R   0.018247 0.477436 0.041742 0.012755
C6    C     C_R   0.951857 0.458636 0.106993 -0.202107
C7    C     C_R   0.825816 0.442128 0.075875 0.187128
C8    C     C_R   0.999641 0.454891 0.866879 -0.193519
C9    C     C_R   0.100979 0.429528 0.891160 0.164175
C10   C     C_R   0.166645 0.435346 0.993658 0.060288
C11   C     C_R   0.136898 0.476417 0.070436 -0.055284
C12   C     C_R   0.616273 0.513854 0.686450 0.852033
C13   C     C_R   0.255375 0.394908 0.021217 -0.210883
C14   C     C_R   0.315873 0.398197 0.123274 0.108854
C15   C     C_R   0.222575 0.508416 0.174128 0.304868
C16   C     C_R   0.127381 0.960158 0.348460 0.429276
C17   C     C_R   0.250321 0.158211 0.464340 -0.113504
C18   C     C_R   0.728953 0.933275 0.560944 0.268866
C19   C     C_R   0.819588 0.053514 0.571887 0.234843
C20   C     C_R   0.916027 0.081102 0.531475 0.360788
C21   C     C_R   0.930658 0.989668 0.488957 -0.022660
C22   C     C_R   0.828137 0.871090 0.463939 -0.114414
C23   C     C_R   0.346494 0.284681 0.486561 0.821202
C24   C     C_R   0.039794 0.013730 0.463023 0.011561
C25   C     C_R   0.027387 0.926751 0.387178 0.039077
C26   C     C_R   0.914866 0.810553 0.352727 0.146884
C27   C     C_R   0.817274 0.785912 0.389934 -0.148441
C28   C     C_R   0.163244 0.120701 0.513199 0.190964
C29   C     C_R   0.233472 0.077700 0.383897 -0.346582
C30   C     C_R   0.735571 0.841294 0.509784 -0.176046
C31   C     C_R   0.253989 0.682031 0.668180 0.102982
C32   C     C_R   0.647027 0.326647 0.374392 0.069038
C33   C     C_R   0.717839 0.277516 0.354562 0.123737
C34   C     C_R   0.379267 0.480101 0.312259 0.825103
C35   C     C_R   0.855274 0.342903 0.400732 -0.178631
C36   C     C_R   0.924661 0.458754 0.466026 -0.096673
C37   C     C_R   0.846842 0.500885 0.491571 0.195673
C38   C     C_R   0.067579 0.528228 0.516659 -0.211784
C39   C     C_R   0.125293 0.632584 0.594760 0.002618
C40   C     C_R   0.051983 0.684071 0.600779 0.049698
C41   C     C_R   0.916689 0.611287 0.568118 0.409922
C42   C     C_R   0.158441 0.502114 0.495130 0.584568
C43   C     C_R   0.339107 0.654514 0.644467 0.274301
C44   C     C_R   0.672462 0.508071 0.791863 -0.148308
C45   C     C_R   0.306935 0.462950 0.201883 -0.096867
C46   C     C_R   0.657500 0.477720 0.954293 0.117334
C47   C     C_R   0.605875 0.492731 0.856780 0.370735
C48   C     C_R   0.791152 0.510781 0.824392 -0.320680
Cu1   Cu    Cu3+1 0.416420 0.526630 0.522910 1.037726
Cu2   Cu    Cu3+1 0.583580 0.473370 0.477090 0.953363
H1    H     H_    0.271198 0.353080 0.962901 0.171991
H2    H     H_    0.302463 0.106889 0.347433 0.151399
H3    H     H_    0.728058 0.699895 0.355203 0.167728
H4    H     H_    0.540630 0.276197 0.339183 0.126817
H5    H     H_    0.904590 0.297828 0.388175 0.220359
H6    H     H_    0.845340 0.533409 0.776398 0.186367
H7    H     H_    0.991462 0.441459 0.178555 0.178912
H8    H     H_    0.949379 0.445802 0.787323 0.158227
N1    N     N_R   0.290690 0.566960 0.557640 -0.205367
N2    N     N_R   0.709100 0.433710 0.442970 -0.207325
O1    O     O_R   0.545970 0.684450 0.528810 -0.540240
O2    O     O_R   0.687130 0.639470 0.490120 -0.540515
O3    O     O_R   0.519670 0.535100 0.660030 -0.563953
O4    O     O_R   0.660830 0.490120 0.621340 -0.525445
O5    O     O_R   0.312870 0.360530 0.509880 -0.518725
O6    O     O_R   0.454030 0.315550 0.471190 -0.603974
O7    O     O_R   0.339170 0.509880 0.378660 -0.474109
O8    O     O_R   0.480330 0.464900 0.339970 -0.619749
C49   C     C_3   0.747074 0.377951 0.135394 -0.871279
H9    H     H_    0.798423 0.343905 0.189800 0.228020
H10   H     H_    0.731873 0.436419 0.182364 0.235246
H11   H     H_    0.652488 0.298179 0.082797 0.236553
C50   C     C_3   0.896958 0.707890 0.281269 -0.746263
H12   H     H_    0.809616 0.623071 0.273247 0.179943
H13   H     H_    0.882835 0.722143 0.204048 0.262773
H14   H     H_    0.982805 0.696388 0.312523 0.265833
O9    O     O_3   0.116657 0.880998 0.271612 -0.748336
H15   H     H_    0.195446 0.918982 0.255297 0.323009
C51   C     C_3   0.214779 0.182652 0.625418 -0.731966
H16   H     H_    0.313202 0.194718 0.666967 0.199659
H17   H     H_    0.225288 0.271484 0.635968 0.289635
H18   H     H_    0.150839 0.129111 0.662657 0.209042
O10   O     O_3   0.630631 0.903764 0.596432 -0.734609
H19   H     H_    0.603156 0.963192 0.590513 0.337589
O11   O     O_3   0.991263 0.195317 0.526012 -0.722730
H20   H     H_    0.970989 0.249974 0.557708 0.367030
O12   O     O_3   0.818641 0.145869 0.623932 -0.756397
H21   H     H_    0.789130 0.121717 0.679173 0.338659
C52   C     C_3   0.483511 0.728110 0.715330 -0.673036
H22   H     H_    0.551116 0.721468 0.686308 0.279111
H23   H     H_    0.515473 0.823773 0.731033 0.214728
H24   H     H_    0.499993 0.704560 0.788801 0.179644
O13   O     O_3   0.229223 0.587658 0.248513 -0.720445
H25   H     H_    0.195793 0.636320 0.215536 0.334150
C53   C     C_3   0.114944 0.817836 0.636290 -0.841362
H26   H     H_    0.052906 0.845824 0.584874 0.246285
H27   H     H_    0.125878 0.846988 0.715280 0.218681
H28   H     H_    0.212981 0.865281 0.632603 0.248475
C54   C     C_3   0.295933 0.752256 0.775871 -0.857697
H29   H     H_    0.210412 0.738690 0.792908 0.242257
H30   H     H_    0.346532 0.720274 0.833360 0.228742
H31   H     H_    0.362775 0.848354 0.787308 0.236931
O14   O     O_3   0.120055 0.420397 0.407728 -0.685047
H32   H     H_    0.061209 0.432869 0.351183 0.303310
C55   C     C_3   0.647595 0.153196 0.287697 -0.875129
H33   H     H_    0.539017 0.112626 0.256389 0.221630
H34   H     H_    0.677927 0.153687 0.222746 0.236421
H35   H     H_    0.673194 0.097223 0.332959 0.257369
O15   O     O_3   0.858445 0.643326 0.621202 -0.696639
H36   H     H_    0.923733 0.700148 0.688832 0.302505
C56   C     C_3   0.382747 0.327266 0.144709 -0.841733
H37   H     H_    0.346462 0.270052 0.193476 0.227702
H38   H     H_    0.360048 0.266845 0.073438 0.218866
H39   H     H_    0.491095 0.387451 0.183109 0.247733
C57   C     C_3   0.137171 0.397256 0.806852 -0.820382
H40   H     H_    0.243672 0.458087 0.826748 0.241172
H41   H     H_    0.114640 0.304153 0.795858 0.243111
H42   H     H_    0.081898 0.405050 0.732796 0.240475
C58   C     C_3   0.588265 0.473965 0.024541 -0.854699
H43   H     H_    0.511867 0.497533 0.997583 0.241841
H44   H     H_    0.536239 0.382738 0.031113 0.243009
H45   H     H_    0.659497 0.539566 0.099226 0.227480
O16   O     O_3   0.486028 0.485617 0.821937 -0.732819
H46   H     H_    0.499996 0.558280 0.862786 0.306455

loop_
_geom_bond_atom_site_label_1
_geom_bond_atom_site_label_2
_ccdc_geom_bond_type
O12   H21   S    
O13   H25   S    
Cu1   O3    S    
C17   C29   A    
C50   H12   S    
C53   H26   S    
C4    C8    A    
C42   O14   S    
C53   H28   S    
O16   H46   S    
O9    H15   S    
C55   H34   S    
C26   C27   A    
C17   C23   S    
C31   C43   A    
O10   H19   S    
C23   O6    A    
C36   C37   A    
C38   C42   A    
C19   O12   S    
C38   C39   A    
C12   O4    A    
C57   H40   S    
C26   C50   S    
Cu2   O4    S    
C18   C19   A    
C49   H10   S    
C28   C51   S    
C8    H8    S    
C13   H1    S    
C11   C15   A    
C19   C20   A    
C8    C9    A    
C57   H41   S    
C18   C30   A    
C31   C54   S    
C52   H23   S    
Cu1   O7    S    
C9    C10   A    
C44   C47   A    
C43   N1    A    
C41   O15   S    
C21   C22   A    
C1    O2    A    
C50   H13   S    
C6    H7    S    
C32   H4    S    
C14   C45   A    
C58   H44   S    
C14   C56   S    
C55   H35   S    
Cu1   O1    S    
C35   H5    S    
C9    C57   S    
C33   C55   S    
C24   C25   A    
C34   O8    A    
C39   C40   A    
C51   H17   S    
C12   O3    A    
C2    C48   A    
C16   C29   A    
O11   H20   S    
C35   C36   A    
C42   N1    A    
C49   H11   S    
C2    C4    A    
C7    C49   S    
C47   O16   S    
C54   H29   S    
C57   H42   S    
C20   O11   S    
C27   H3    S    
C18   O10   S    
C56   H38   S    
C34   C45   S    
C43   C52   S    
C52   H24   S    
Cu2   O6    S    
Cu1   O5    S    
C40   C41   A    
C54   H30   S    
C22   C27   A    
Cu2   O2    S    
C50   H14   S    
C15   C45   A    
C40   C53   S    
C58   H45   S    
C16   C25   A    
C48   H6    S    
C46   C47   A    
C22   C30   A    
C56   H37   S    
C17   C28   A    
C24   C28   A    
C4    C5    A    
C10   C13   A    
C1    O1    A    
C34   O7    A    
C15   O13   S    
C51   H18   S    
C58   H43   S    
C53   H27   S    
C5    C11   A    
C6    C7    A    
C55   H33   S    
C3    C46   A    
C3    C7    A    
Cu1   N1    S    
Cu2   N2    S    
C32   C33   A    
C23   O5    A    
C36   C38   A    
C2    C3    A    
C25   C26   A    
C12   C44   S    
O15   H36   S    
C5    C6    A    
C1    C30   S    
C33   C35   A    
C31   C39   A    
C46   C58   S    
C56   H39   S    
C37   C41   A    
C49   H9    S    
C37   N2    A    
C10   C11   A    
C51   H16   S    
C54   H31   S    
C20   C21   A    
Cu1   Cu2   S    
C21   C24   A    
O14   H32   S    
C32   N2    A    
C16   O9    S    
C52   H22   S    
C13   C14   A    
Cu2   O8    S    
C44   C48   A    
C29   H2    S    
