data_mof_unit_450.cif
_audit_creation_date              2012-12-11T15:18:34-0500
_audit_creation_method            fapswitch 2.2
_symmetry_space_group_name_H-M    P1
_symmetry_Int_Tables_number       1
_space_group_crystal_system       triclinic
_cell_length_a                    6.945185
_cell_length_b                    19.918372
_cell_length_c                    23.783835
_cell_angle_alpha                 93.583186
_cell_angle_beta                  91.287267
_cell_angle_gamma                 88.511592
_cell_volume                      3281.92293207

loop_
_atom_site_label
_atom_site_type_symbol
_atom_type_description
_atom_site_fract_x
_atom_site_fract_y
_atom_site_fract_z
_atom_type_partial_charge
O1    O     O_R   0.620100 0.812200 0.810870 -0.543068
O2    O     O_R   0.379900 0.187800 0.189130 -0.543068
O3    O     O_R   0.296960 0.671650 0.794750 -0.536869
O4    O     O_R   0.703040 0.328350 0.205250 -0.536869
O5    O     O_R   0.120160 0.687800 0.689130 -0.539738
O6    O     O_R   0.879840 0.312200 0.310870 -0.539737
C1    C     C_R   0.468835 0.647061 0.804645 0.718668
C2    C     C_R   0.531165 0.352939 0.195355 0.718668
O7    O     O_R   0.290810 0.810670 0.817290 -0.545902
O8    O     O_R   0.709190 0.189330 0.182710 -0.545902
O9    O     O_R   0.113980 0.827820 0.711840 -0.537145
O10   O     O_R   0.886020 0.172180 0.288160 -0.537145
C3    C     C_R   0.459449 0.832024 0.834161 0.701402
C4    C     C_R   0.540551 0.167976 0.165839 0.701402
O11   O     O_R   0.626290 0.672180 0.788160 -0.538452
O12   O     O_R   0.373710 0.327820 0.211840 -0.538452
O13   O     O_3   0.451520 0.755460 0.715370 -0.362284
O14   O     O_3   0.548480 0.244540 0.284630 -0.362284
V1    V     V_3+5 0.179200 0.748980 0.756420 1.431647
V2    V     V_3+5 0.820800 0.251020 0.243580 1.431647
O15   O     O_R   0.783880 0.828350 0.705250 -0.537548
O16   O     O_R   0.216120 0.171650 0.294750 -0.537548
C5    C     C_R   0.949707 0.852661 0.694835 0.693036
C6    C     C_R   0.050293 0.147339 0.305165 0.693035
O17   O     O_R   0.790030 0.689320 0.682700 -0.530606
O18   O     O_R   0.209970 0.310680 0.317300 -0.530606
C7    C     C_R   0.959094 0.668250 0.665708 0.715682
C8    C     C_R   0.040906 0.331750 0.334292 0.715682
V3    V     V_3+5 0.678400 0.751010 0.743570 1.453579
V4    V     V_3+5 0.321600 0.248990 0.256430 1.453579
O19   O     O_3   0.955950 0.744540 0.784620 -0.372358
O20   O     O_3   0.044050 0.255460 0.215380 -0.372358
C9    C     C_R   0.168618 0.430363 0.392603 -0.098157
C10   C     C_R   0.831382 0.569637 0.607397 -0.098160
C11   C     C_R   0.029955 0.380884 0.383721 -0.106953
C12   C     C_R   0.970045 0.619116 0.616279 -0.106953
C13   C     C_R   0.877829 0.379071 0.421462 -0.184295
C14   C     C_R   0.122172 0.620928 0.578538 -0.184295
C15   C     C_R   0.859565 0.426909 0.467766 0.075569
C16   C     C_R   0.140437 0.573091 0.532234 0.075571
C17   C     C_R   0.003914 0.476166 0.476619 0.015298
C18   C     C_R   0.996087 0.523834 0.523381 0.015298
C19   C     C_R   0.157069 0.477681 0.438727 0.113092
C20   C     C_R   0.842932 0.522319 0.561273 0.113088
C21   C     C_R   0.705423 0.426564 0.506383 -0.018798
C22   C     C_R   0.294580 0.573435 0.493617 -0.018801
C23   C     C_R   0.701509 0.473818 0.552660 -0.244584
C24   C     C_R   0.298493 0.526181 0.447340 -0.244582
H1    H     H_    0.285806 0.432092 0.363376 0.125362
H2    H     H_    0.714194 0.567907 0.636624 0.125362
H3    H     H_    0.778915 0.338500 0.414533 0.181346
H4    H     H_    0.221085 0.661500 0.585468 0.181349
H5    H     H_    0.583915 0.473631 0.581946 0.131231
H6    H     H_    0.416088 0.526368 0.418054 0.131230
C25   C     C_R   0.947588 0.914119 0.663204 -0.045056
C26   C     C_R   0.052412 0.085881 0.336796 -0.045056
C27   C     C_R   0.862824 0.032263 0.659551 -0.148291
C28   C     C_R   0.137176 0.967737 0.340448 -0.148291
C29   C     C_R   0.881022 0.974587 0.689548 -0.165023
C30   C     C_R   0.118978 0.025413 0.310452 -0.165023
C31   C     C_R   0.995319 0.911605 0.605874 -0.206069
C32   C     C_R   0.004681 0.088395 0.394126 -0.206069
C33   C     C_R   0.974142 0.969671 0.573775 0.085726
C34   C     C_R   0.025858 0.030329 0.426225 0.085726
C35   C     C_R   0.907088 0.030314 0.602167 0.131289
C36   C     C_R   0.092912 0.969686 0.397833 0.131288
C37   C     C_R   0.013984 0.969681 0.514662 0.056542
C38   C     C_R   0.986016 0.030319 0.485338 0.056543
C39   C     C_R   0.919857 0.088909 0.516149 -0.179433
C40   C     C_R   0.080143 0.911091 0.483851 -0.179433
C41   C     C_R   0.881856 0.088721 0.573183 -0.188139
C42   C     C_R   0.118144 0.911279 0.426817 -0.188139
H7    H     H_    0.830590 0.135047 0.594864 0.136650
H8    H     H_    0.169410 0.864953 0.405136 0.136650
H9    H     H_    0.957012 0.136625 0.412450 0.100167
H10   H     H_    0.042988 0.863375 0.587550 0.100167
H11   H     H_    0.158437 0.023022 0.266531 0.107953
H12   H     H_    0.841563 0.976978 0.733469 0.107953
H13   H     H_    0.810800 0.078503 0.681162 0.128720
H14   H     H_    0.189200 0.921497 0.318838 0.128720
H15   H     H_    0.895020 0.136231 0.497379 0.130032
H16   H     H_    0.104980 0.863769 0.502621 0.130033
C43   C     C_R   0.490238 0.585465 0.835709 -0.111095
C44   C     C_R   0.509761 0.414535 0.164291 -0.111096
C45   C     C_R   0.606864 0.469973 0.837284 0.401242
C46   C     C_R   0.393136 0.530026 0.162716 0.401242
C47   C     C_R   0.566224 0.527302 0.808105 -0.189104
C48   C     C_R   0.433776 0.472698 0.191895 -0.189104
C49   C     C_R   0.455031 0.586508 0.893610 -0.213961
C50   C     C_R   0.544969 0.413492 0.106390 -0.213961
C51   C     C_R   0.499630 0.529522 0.925359 0.042558
C52   C     C_R   0.500369 0.470478 0.074641 0.042558
C53   C     C_R   0.576026 0.470660 0.895936 0.045346
C54   C     C_R   0.423973 0.529340 0.104064 0.045346
C55   C     C_R   0.474447 0.529403 0.985264 0.085374
C56   C     C_R   0.525553 0.470597 0.014736 0.085374
C57   C     C_R   0.599256 0.413701 0.983273 -0.201908
C58   C     C_R   0.400743 0.586298 0.016726 -0.201908
C59   C     C_R   0.623133 0.413802 0.925559 -0.133579
C60   C     C_R   0.376866 0.586197 0.074441 -0.133579
H17   H     H_    0.681172 0.368298 0.904393 0.189595
H18   H     H_    0.318827 0.631702 0.095607 0.189595
H19   H     H_    0.600499 0.366672 0.087414 0.108680
H20   H     H_    0.399501 0.633328 0.912586 0.108680
H21   H     H_    0.404149 0.473256 0.236491 0.141947
H22   H     H_    0.595851 0.526743 0.763509 0.141947
H23   H     H_    0.641350 0.367593 0.001934 0.126021
H24   H     H_    0.358649 0.632407 0.998066 0.126021
C61   C     C_R   0.367939 0.077203 0.108509 -0.211836
C62   C     C_R   0.632060 0.922797 0.891491 -0.211836
C63   C     C_R   0.529486 0.118370 0.116598 -0.081424
C64   C     C_R   0.470514 0.881630 0.883402 -0.081424
C65   C     C_R   0.679380 0.111633 0.077590 -0.223545
C66   C     C_R   0.320620 0.888367 0.922410 -0.223545
C67   C     C_R   0.667659 0.065119 0.030753 0.090962
C68   C     C_R   0.332341 0.934880 0.969247 0.090962
C69   C     C_R   0.505944 0.023700 0.023345 0.055315
C70   C     C_R   0.494056 0.976300 0.976655 0.055315
C71   C     C_R   0.356064 0.029599 0.062539 0.088264
C72   C     C_R   0.643936 0.970401 0.937461 0.088264
C73   C     C_R   0.814630 0.059337 0.991062 -0.176688
C74   C     C_R   0.185370 0.940663 0.008938 -0.176688
C75   C     C_R   0.802992 0.012368 0.944879 -0.185607
C76   C     C_R   0.197008 0.987632 0.055121 -0.185607
H25   H     H_    0.252219 0.081533 0.138477 0.122391
H26   H     H_    0.747781 0.918467 0.861523 0.122391
H27   H     H_    0.804044 0.143196 0.083246 0.127425
H28   H     H_    0.195956 0.856804 0.916754 0.127424
H29   H     H_    0.939451 0.090877 0.995919 0.137657
H30   H     H_    0.060549 0.909123 0.004081 0.137657
H31   H     H_    0.919207 0.008605 0.915106 0.134545
H32   H     H_    0.080793 0.991395 0.084893 0.134545
Cl1   Cl    Cl    0.702027 0.398961 0.798244 -0.646888
Cl2   Cl    Cl    0.297972 0.601039 0.201756 -0.646888
C77   C     C_2   0.543130 0.379060 0.501647 0.349194
H33   H     H_    0.466474 0.368484 0.539262 0.069036
O21   O     O_2   0.485082 0.354307 0.456441 -0.544140
C78   C     C_2   0.456876 0.620938 0.498354 0.349198
H34   H     H_    0.533542 0.631510 0.460740 0.069038
O22   O     O_2   0.514916 0.645695 0.543559 -0.544142

loop_
_geom_bond_atom_site_label_1
_geom_bond_atom_site_label_2
_ccdc_geom_bond_type
C43   C47   A    
C33   C35   A    
C67   C73   A    
C25   C29   A    
O13   V3    S    
C17   C18   A    
C27   H13   S    
C1    C43   S    
C55   C56   A    
C6    C26   S    
O4    C2    A    
V1    O19   S    
C70   C72   A    
C64   C66   A    
C55   C58   A    
C77   H33   S    
C15   C17   A    
C71   C76   A    
C24   H6    S    
O9    V1    S    
C68   C74   A    
C34   C38   A    
C11   C13   A    
C3    C64   S    
O3    C1    A    
C69   C71   A    
C13   H3    S    
C46   C48   A    
C27   C29   A    
C14   H4    S    
C28   C30   A    
C52   C56   A    
C58   H24   S    
C76   H32   S    
C31   C33   A    
C39   C41   A    
O7    C3    A    
C32   C34   A    
C46   C54   A    
C9    C11   A    
O5    C7    A    
C45   C53   A    
O7    V1    S    
C36   C42   A    
C8    C11   S    
O8    V2    S    
C38   C39   A    
C67   C69   A    
O3    V1    S    
O14   V4    S    
C49   C51   A    
C19   C24   A    
C53   C59   A    
O14   V2    S    
C20   C23   A    
C28   H14   S    
C15   C21   A    
C26   C32   A    
C73   H29   S    
C21   C23   A    
C2    O12   A    
C17   C19   A    
C44   C50   A    
C40   H16   S    
C29   H12   S    
O1    V3    S    
C57   C59   A    
C46   Cl2   S    
O11   V3    S    
C22   C24   A    
C45   C47   A    
C31   H10   S    
O17   V3    S    
C4    C63   S    
C43   C49   A    
C33   C37   A    
C30   H11   S    
C10   H2    S    
C21   C77   S    
C37   C38   A    
C9    C19   A    
C10   C20   A    
C42   H8    S    
O8    C4    A    
C62   C72   A    
C41   H7    S    
C1    O11   A    
C35   C41   A    
O15   V3    S    
C26   C30   A    
C34   C36   A    
C16   C22   A    
V4    O20   S    
C51   C53   A    
C66   H28   S    
C50   C52   A    
C54   C60   A    
C56   C57   A    
O10   V2    S    
C60   H18   S    
C63   C65   A    
C78   O22   D    
C62   H26   S    
C65   H27   S    
C61   H25   S    
C59   H17   S    
O18   V4    S    
C58   C60   A    
O15   C5    A    
C49   H20   S    
O16   C6    A    
C32   H9    S    
O1    C3    A    
O12   V4    S    
C74   C76   A    
C12   C14   A    
C61   C71   A    
C28   C36   A    
V2    O20   S    
C77   O21   D    
O16   V4    S    
C75   H31   S    
C2    C44   S    
C44   C48   A    
C27   C35   A    
C16   C18   A    
C66   C68   A    
C72   C75   A    
C5    C25   S    
O5    V1    S    
O4    V2    S    
C7    C12   S    
O17   C7    A    
O6    V2    S    
O10   C6    A    
O18   C8    A    
C23   H5    S    
O2    V4    S    
C37   C40   A    
C61   C63   A    
C18   C20   A    
C13   C15   A    
C69   C70   A    
C14   C16   A    
C48   H21   S    
C52   C54   A    
C47   H22   S    
C25   C31   A    
O9    C5    A    
O13   V1    S    
C68   C70   A    
C10   C12   A    
O2    C4    A    
C62   C64   A    
C50   H19   S    
C73   C75   A    
C39   H15   S    
C78   H34   S    
C51   C55   A    
C57   H23   S    
O6    C8    A    
V3    O19   S    
C22   C78   S    
C40   C42   A    
C9    H1    S    
C74   H30   S    
C45   Cl1   S    
C65   C67   A    
