data_mof_unit_1650.cif
_audit_creation_date              2012-12-11T16:08:52-0500
_audit_creation_method            fapswitch 2.2
_symmetry_space_group_name_H-M    P1
_symmetry_Int_Tables_number       1
_space_group_crystal_system       triclinic
_cell_length_a                    12.916624
_cell_length_b                    13.320908
_cell_length_c                    27.660144
_cell_angle_alpha                 95.180208
_cell_angle_beta                  90.014191
_cell_angle_gamma                 119.188027
_cell_volume                      4132.5878736

loop_
_atom_site_label
_atom_site_type_symbol
_atom_type_description
_atom_site_fract_x
_atom_site_fract_y
_atom_site_fract_z
_atom_type_partial_charge
C1    C     C_R   0.627516 0.896774 0.426790 0.546267
C2    C     C_R   0.209668 0.762757 0.295092 0.014751
C3    C     C_3   0.209500 0.066434 0.104629 0.030605
C4    C     C_3   0.296717 0.178396 0.135353 -0.296352
C5    C     C_3   0.388423 0.264650 0.104035 -0.461745
C6    C     C_R   0.196969 0.760128 0.194463 -0.000674
C7    C     C_R   0.601127 0.221742 0.440458 0.546455
C8    C     C_R   0.216511 0.678217 0.215047 -0.114242
C9    C     C_R   0.221309 0.678627 0.265188 -0.122938
C10   C     C_R   0.176296 0.750092 0.144723 -0.180383
C11   C     C_R   0.138100 0.819909 0.124648 -0.016891
C12   C     C_R   0.202747 0.940627 0.355658 -0.131734
C13   C     C_R   0.188598 0.936288 0.305245 0.016352
C14   C     C_R   0.195502 0.848855 0.274877 0.065670
C15   C     C_R   0.599473 0.363542 0.230885 -0.104788
C16   C     C_R   0.171949 0.019837 0.284568 -0.148058
C17   C     C_R   0.159887 0.015501 0.234170 -0.115104
C18   C     C_R   0.166649 0.928714 0.203575 0.028080
C19   C     C_R   0.270837 0.876611 0.425052 0.545698
C20   C     C_R   0.187606 0.846763 0.224268 0.017607
C21   C     C_R   0.146232 0.918014 0.153012 0.255129
C22   C     C_R   0.220753 0.856780 0.375503 -0.003869
C23   C     C_R   0.737039 0.955796 0.353052 -0.126067
C24   C     C_R   0.736305 0.946554 0.302857 0.012640
C25   C     C_R   0.730265 0.930342 0.201448 0.021598
C26   C     C_R   0.592110 0.349989 0.280493 -0.102859
C27   C     C_R   0.810215 0.034268 0.228748 -0.120569
C28   C     C_R   0.814690 0.041490 0.279131 -0.152700
C29   C     C_R   0.732475 0.918821 0.150775 0.269216
C30   C     C_R   0.673409 0.807089 0.125764 -0.004041
C31   C     C_R   0.627262 0.899067 0.565021 0.546004
C32   C     C_R   0.567881 0.761850 0.350809 -0.136976
C33   C     C_R   0.570822 0.748571 0.300187 0.021187
C34   C     C_R   0.652851 0.842891 0.276123 0.069211
C35   C     C_R   0.490950 0.644560 0.273050 -0.133168
C36   C     C_R   0.494279 0.633337 0.222476 -0.126024
C37   C     C_R   0.664644 0.315116 0.303093 0.040331
C38   C     C_R   0.575028 0.727203 0.198491 0.000631
C39   C     C_R   0.651917 0.833734 0.225315 0.021381
C40   C     C_R   0.587254 0.714054 0.148666 -0.190251
C41   C     C_R   0.648703 0.866905 0.377107 -0.003206
C42   C     C_R   0.738807 0.293726 0.651695 -0.136866
C43   C     C_R   0.603861 0.228140 0.578282 0.546424
C44   C     C_R   0.764507 0.338438 0.700364 0.008263
C45   C     C_R   0.794657 0.404591 0.800585 0.027240
C46   C     C_R   0.858440 0.354374 0.778573 -0.094550
C47   C     C_R   0.844022 0.322055 0.728657 -0.121766
C48   C     C_R   0.678807 0.341545 0.203443 0.037970
C49   C     C_R   0.801798 0.428814 0.850865 -0.116473
C50   C     C_R   0.731417 0.471598 0.873131 -0.014328
C51   C     C_R   0.595831 0.361567 0.645234 -0.134227
C52   C     C_R   0.622031 0.408585 0.693769 0.009478
C53   C     C_R   0.703464 0.393194 0.721883 0.059671
C54   C     C_R   0.563038 0.464436 0.715473 -0.133374
C55   C     C_R   0.271135 0.879411 0.563203 0.545772
C56   C     C_R   0.579181 0.498421 0.765365 -0.133744
C57   C     C_R   0.653420 0.476074 0.794111 0.004817
C58   C     C_R   0.718696 0.426436 0.772097 0.057246
C59   C     C_1   0.691571 0.364772 0.153347 -0.072091
C60   C     C_R   0.660232 0.498388 0.844642 -0.154577
C61   C     C_R   0.649915 0.299408 0.624864 -0.006188
C62   C     C_1   0.218359 0.861524 0.609371 -0.010120
C63   C     C_R   0.138595 0.735838 0.719956 -0.111145
C64   C     C_R   0.129109 0.728217 0.770089 0.228369
C65   C     C_R   0.164470 0.926301 0.782120 0.240661
C66   C     C_R   0.172587 0.932178 0.731630 -0.118177
C67   C     C_1   0.632775 0.267529 0.394430 -0.016293
C68   C     C_R   0.161145 0.837726 0.700780 -0.054973
C69   C     C_R   0.140302 0.823011 0.801178 0.040913
C70   C     C_1   0.650876 0.293691 0.353430 -0.059402
C71   C     C_1   0.122663 0.811794 0.852294 0.015598
C72   C     C_1   0.186622 0.849588 0.650389 -0.054132
C73   C     C_1   0.099584 0.795639 0.894029 -0.002551
C74   C     C_1   0.642419 0.865286 0.611124 -0.016421
C75   C     C_R   0.742361 0.812890 0.722561 -0.100741
C76   C     C_R   0.747137 0.802724 0.772274 -0.091185
C77   C     C_R   0.562209 0.806568 0.780994 -0.121482
C78   C     C_R   0.557338 0.816611 0.731241 -0.113910
C79   C     C_R   0.743731 0.292604 0.275649 -0.101136
C80   C     C_R   0.648014 0.820982 0.702010 0.032991
C81   C     C_1   0.702481 0.393280 0.112704 -0.037156
C82   C     C_R   0.657889 0.800985 0.801691 0.030420
C83   C     C_1   0.666981 0.794506 0.853021 -0.068975
C84   C     C_1   0.647416 0.842265 0.651927 -0.061254
C85   C     C_1   0.683388 0.787873 0.895218 -0.023582
C86   C     C_R   0.067396 0.774422 0.078504 0.550718
C87   C     C_R   0.716766 0.440944 0.067147 0.551465
C88   C     C_R   0.718476 0.783367 0.080181 0.563436
C89   C     C_R   0.056295 0.765725 0.941179 0.521900
C90   C     C_R   0.734323 0.491787 0.926058 0.566919
C91   C     C_R   0.751122 0.306153 0.225924 -0.109266
C92   C     C_R   0.216795 0.764497 0.345056 -0.126289
C93   C     C_R   0.715911 0.775853 0.942995 0.527994
C94   C     C_3   0.745620 0.076474 0.118393 -0.005607
C95   C     C_3   0.664058 0.025202 0.072123 -0.261667
C96   C     C_3   0.609314 0.099600 0.060415 -0.480486
C97   C     C_3   0.212429 0.626036 0.795923 0.005903
C98   C     C_3   0.186955 0.513778 0.816208 -0.247502
C99   C     C_3   0.300633 0.507684 0.823646 -0.488286
C100  C     C_3   0.289803 0.111100 0.816618 0.008307
C101  C     C_3   0.365987 0.091772 0.853248 -0.278338
C102  C     C_3   0.489599 0.196880 0.861383 -0.463878
Cr1   Cr    Cr6+3 0.416430 0.829200 0.492370 1.020137
Cr2   Cr    Cr6+3 0.674630 0.087020 0.504170 1.019717
Cr3   Cr    Cr6+3 0.408920 0.083740 0.503490 1.022437
Cr4   Cr    Cr6+3 0.914010 0.832750 0.013970 1.053130
Cr5   Cr    Cr6+3 0.922310 0.578600 0.003000 1.010900
Cr6   Cr    Cr6+3 0.656280 0.574630 0.003870 0.995446
H1    H     H_    0.799243 0.264331 0.292653 0.104707
H2    H     H_    0.499826 0.693074 0.369381 0.115913
H3    H     H_    0.859000 0.410202 0.872629 0.133859
H4    H     H_    0.781472 0.246594 0.635932 0.133612
H5    H     H_    0.916164 0.336401 0.800239 0.103893
H6    H     H_    0.891426 0.280137 0.712525 0.108930
H7    H     H_    0.608316 0.534148 0.861938 0.125814
H8    H     H_    0.531564 0.539562 0.781727 0.116539
H9    H     H_    0.501772 0.478613 0.694186 0.112771
H10   H     H_    0.528727 0.367785 0.624177 0.127494
H11   H     H_    0.544081 0.392258 0.214043 0.103242
H12   H     H_    0.143553 0.079313 0.219388 0.153336
H13   H     H_    0.821208 0.797664 0.787914 0.134508
H14   H     H_    0.492686 0.804955 0.803341 0.092267
H15   H     H_    0.529554 0.366201 0.301151 0.105996
H16   H     H_    0.176452 0.678776 0.122494 0.139355
H17   H     H_    0.229945 0.698669 0.359892 0.133165
H18   H     H_    0.234263 0.613329 0.280583 0.101094
H19   H     H_    0.814406 0.166485 0.113603 0.152736
H20   H     H_    0.694622 0.082661 0.150028 0.118548
H21   H     H_    0.715818 0.018786 0.041054 0.185422
H22   H     H_    0.591291 0.936995 0.077005 0.146115
H23   H     H_    0.166864 0.087703 0.307368 0.106073
H24   H     H_    0.557798 0.107860 0.091197 0.147240
H25   H     H_    0.548493 0.058785 0.027557 0.144642
H26   H     H_    0.679924 0.186885 0.053112 0.154738
H27   H     H_    0.537258 0.629051 0.128770 0.135023
H28   H     H_    0.813677 0.290095 0.205206 0.094887
H29   H     H_    0.130690 0.662848 0.696210 0.133557
H30   H     H_    0.272828 0.700096 0.822600 0.121704
H31   H     H_    0.257328 0.631587 0.761034 0.125340
H32   H     H_    0.143988 0.507743 0.851460 0.173777
H33   H     H_    0.125472 0.439205 0.790277 0.166427
H34   H     H_    0.205740 0.011895 0.379079 0.123502
H35   H     H_    0.340419 0.507893 0.788099 0.142232
H36   H     H_    0.279927 0.426525 0.839394 0.146997
H37   H     H_    0.365429 0.582401 0.848721 0.149881
H38   H     H_    0.286329 0.190517 0.830062 0.154567
H39   H     H_    0.332421 0.128066 0.781024 0.119981
H40   H     H_    0.322235 0.074939 0.888485 0.175058
H41   H     H_    0.374929 0.015464 0.839572 0.148042
H42   H     H_    0.535524 0.214361 0.826665 0.157064
H43   H     H_    0.542956 0.180673 0.887894 0.157376
H44   H     H_    0.483000 0.273774 0.876100 0.175599
H45   H     H_    0.800247 0.037294 0.372988 0.135562
H46   H     H_    0.189562 0.010911 0.716635 0.124569
H47   H     H_    0.813129 0.816632 0.700435 0.119486
H48   H     H_    0.484155 0.823347 0.715751 0.108604
H49   H     H_    0.223895 0.611459 0.192379 0.106316
H50   H     H_    0.168369 0.088486 0.075024 0.161835
H51   H     H_    0.258124 0.024659 0.086463 0.101018
H52   H     H_    0.247090 0.218265 0.153758 0.165609
H53   H     H_    0.343471 0.158692 0.163599 0.157540
H54   H     H_    0.441357 0.227860 0.086231 0.155847
H55   H     H_    0.449170 0.345258 0.127171 0.154809
H56   H     H_    0.872240 0.108988 0.211352 0.145102
H57   H     H_    0.343977 0.286633 0.075725 0.150450
H58   H     H_    0.878566 0.121809 0.299572 0.097673
H59   H     H_    0.434665 0.551083 0.202177 0.096999
H60   H     H_    0.427336 0.571547 0.290954 0.094655
O1    O     O_R   0.296680 0.802170 0.437540 -0.523227
O2    O     O_R   0.637200 0.461990 0.052510 -0.511625
O3    O     O_R   0.664790 0.681920 0.057970 -0.519060
O4    O     O_R   0.525380 0.838530 0.443500 -0.500664
O5    O     O_R   0.815840 0.852920 0.961840 -0.505635
O6    O     O_R   0.012100 0.822630 0.963670 -0.502116
O7    O     O_R   0.037010 0.668460 0.953040 -0.519738
O8    O     O_R   0.813390 0.478970 0.949660 -0.505501
O9    O     O_R   0.632250 0.456930 0.945520 -0.523104
O10   O     O_R   0.660200 0.677230 0.958780 -0.523048
O11   O     O_3   0.830870 0.661990 0.006950 -0.267170
O12   O     O_R   0.662610 0.183990 0.557860 -0.503978
O13   O     O_R   0.702130 0.995190 0.446810 -0.521940
O14   O     O_R   0.661770 0.181390 0.458760 -0.496314
O15   O     O_R   0.499820 0.198480 0.455280 -0.510684
O16   O     O_R   0.311660 0.976250 0.449080 -0.500280
O17   O     O_R   0.297580 0.804960 0.544440 -0.507872
O18   O     O_R   0.526220 0.841130 0.542590 -0.494115
O19   O     O_R   0.703030 0.997990 0.553710 -0.511289
O20   O     O_3   0.805073 0.013415 0.126406 -0.546580
O21   O     O_3   0.104367 0.626117 0.788418 -0.562025
O22   O     O_3   0.171716 0.018062 0.812694 -0.567032
O23   O     O_R   0.500730 0.201280 0.562180 -0.515532
O24   O     O_3   0.116780 0.993220 0.133121 -0.541649
O25   O     O_R   0.312500 0.978850 0.548170 -0.494031
O26   O     O_3   0.499990 0.999990 0.500010 -0.242609
O27   O     O_R   0.820790 0.857990 0.068830 -0.433986
O28   O     O_R   0.016700 0.827330 0.062850 -0.454052
O29   O     O_R   0.041970 0.673520 0.060040 -0.527029
O30   O     O_R   0.817980 0.483660 0.048840 -0.485492

loop_
_geom_bond_atom_site_label_1
_geom_bond_atom_site_label_2
_ccdc_geom_bond_type
C47   H6    S    
C66   C68   A    
C101  H40   S    
C101  C102  S    
Cr6   O2    S    
C18   C21   A    
Cr3   O23   S    
Cr2   O14   S    
C95   C96   S    
Cr1   O17   S    
C80   C84   S    
C92   H17   S    
C64   O21   S    
C4    H52   S    
C77   C78   A    
Cr3   O25   S    
C12   C13   A    
C37   C79   A    
C32   H2    S    
C76   H13   S    
C5    H55   S    
C99   H35   S    
C94   O20   S    
C10   H16   S    
C38   C39   A    
C78   C80   A    
Cr5   O8    S    
C11   C86   S    
C55   C62   S    
C90   O8    A    
C71   C73   T    
C51   H10   S    
C56   C57   A    
C93   O5    A    
C69   C71   S    
C16   H23   S    
C42   H4    S    
C77   H14   S    
C17   H12   S    
C86   O28   A    
C46   C47   A    
C85   C93   S    
C44   C53   A    
C50   C90   S    
C91   H28   S    
C35   C36   A    
C93   O10   A    
C100  H38   S    
C16   C17   A    
C48   C91   A    
C51   C61   A    
Cr6   O9    S    
C3    H50   S    
C32   C41   A    
Cr1   O26   S    
C5    H57   S    
C24   C28   A    
C75   C80   A    
C79   C91   A    
C7    O14   A    
C44   C47   A    
C28   H58   S    
C102  H43   S    
C96   H24   S    
Cr5   O11   S    
C97   O21   S    
Cr2   O13   S    
C99   H37   S    
C90   O9    A    
C43   O23   A    
C88   O3    A    
C37   C70   S    
C3    H51   S    
C63   H29   S    
C88   O27   A    
Cr1   O18   S    
C42   C44   A    
C89   O6    A    
C8    H49   S    
C52   C54   A    
C97   C98   S    
C25   C29   A    
Cr3   O26   S    
C43   O12   A    
C40   H27   S    
C54   C56   A    
C45   C58   A    
C79   H1    S    
C62   C72   T    
C34   C39   A    
C21   O24   S    
C14   C20   A    
C99   H36   S    
C30   C40   A    
C19   C22   S    
C33   C34   A    
C76   C82   A    
C66   H46   S    
C1    O13   A    
C8    C9    A    
C15   C26   A    
C96   H26   S    
C56   H8    S    
C45   C46   A    
C87   O2    A    
C11   C21   A    
C36   H59   S    
C24   C34   A    
C31   C74   S    
C51   C52   A    
Cr6   O11   S    
C98   H32   S    
C75   C76   A    
C29   C30   A    
C27   H56   S    
C95   H22   S    
C12   H34   S    
C45   C49   A    
C68   C72   S    
Cr1   O1    S    
C17   C18   A    
Cr4   O6    S    
Cr6   O10   S    
C81   C87   S    
C64   C69   A    
Cr3   O15   S    
C2    C92   A    
C42   C61   A    
C96   H25   S    
C102  H42   S    
C1    C41   S    
C55   O25   A    
C98   C99   S    
Cr5   O29   S    
C82   C83   S    
C23   H45   S    
C98   H33   S    
Cr1   O4    S    
C12   C22   A    
C54   H9    S    
C26   H15   S    
C89   O7    A    
C30   C88   S    
C3    C4    S    
C97   H30   S    
C52   C53   A    
C43   C61   S    
C48   C59   S    
C35   H60   S    
Cr2   O19   S    
C63   C68   A    
Cr2   O26   S    
C46   H5    S    
C83   C85   T    
Cr4   O28   S    
C15   C48   A    
C100  O22   S    
C59   C81   T    
C74   C84   T    
C4    C5    S    
C57   C60   A    
C19   O16   A    
C6    C10   A    
Cr5   O30   S    
C6    C8    A    
C53   C58   A    
C26   C37   A    
Cr4   O27   S    
C94   H20   S    
C25   C27   A    
C86   O29   A    
C6    C20   A    
C1    O4    A    
C9    H18   S    
C23   C41   A    
C29   O20   S    
C49   H3    S    
C67   C70   T    
C50   C60   A    
C32   C33   A    
C36   C38   A    
C13   C16   A    
C73   C89   S    
C65   C66   A    
C3    O24   S    
C5    H54   S    
C38   C40   A    
C78   H48   S    
C57   C58   A    
Cr2   O12   S    
Cr5   O7    S    
C77   C82   A    
C65   C69   A    
C31   O18   A    
C101  H41   S    
C100  C101  S    
C33   C35   A    
Cr4   O5    S    
C15   H11   S    
Cr4   O11   S    
C18   C20   A    
C7    O15   A    
C55   O17   A    
Cr3   O16   S    
C94   H19   S    
C94   C95   S    
C2    C14   A    
C10   C11   A    
C23   C24   A    
C7    C67   S    
C63   C64   A    
C75   H47   S    
C65   O22   S    
C49   C50   A    
Cr6   O3    S    
C31   O19   A    
C27   C28   A    
C95   H21   S    
C22   C92   A    
C4    H53   S    
C60   H7    S    
C100  H39   S    
C87   O30   A    
C19   O1    A    
C13   C14   A    
C2    C9    A    
C97   H31   S    
C25   C39   A    
C102  H44   S    
