data_mof_unit_3822.cif
_audit_creation_date              2012-12-11T17:23:12-0500
_audit_creation_method            fapswitch 2.2
_symmetry_space_group_name_H-M    P1
_symmetry_Int_Tables_number       1
_space_group_crystal_system       triclinic
_cell_length_a                    22.444252
_cell_length_b                    7.094419
_cell_length_c                    19.381933
_cell_angle_alpha                 89.895335
_cell_angle_beta                  99.533298
_cell_angle_gamma                 89.886606
_cell_volume                      3043.5297627

loop_
_atom_site_label
_atom_site_type_symbol
_atom_type_description
_atom_site_fract_x
_atom_site_fract_y
_atom_site_fract_z
_atom_type_partial_charge
O1    O     O_R   0.443980 0.494320 0.557430 -0.533685
O2    O     O_R   0.556020 0.994320 0.442570 -0.538154
O3    O     O_R   0.441210 0.822520 0.414610 -0.544408
O4    O     O_R   0.558790 0.322520 0.585390 -0.534151
C1    C     C_R   0.426717 0.655782 0.388726 0.775771
C2    C     C_R   0.573230 0.154946 0.611238 0.779127
O5    O     O_R   0.436920 0.823940 0.555180 -0.539592
O6    O     O_R   0.563080 0.323940 0.444820 -0.535939
O7    O     O_R   0.551700 0.995760 0.584140 -0.542223
O8    O     O_R   0.448300 0.495760 0.415860 -0.528002
C3    C     C_R   0.421606 0.655409 0.574855 0.737884
C4    C     C_R   0.578387 0.155365 0.425149 0.741500
O9    O     O_3   0.537660 0.661290 0.509340 -0.375042
O10   O     O_3   0.462340 0.161290 0.490660 -0.370767
V1    V     V_3+5 0.493010 0.935560 0.498270 1.486613
V2    V     V_3+5 0.506990 0.435560 0.501730 1.512959
H1    H     H_    0.737893 0.848882 0.328949 0.160242
H2    H     H_    0.262006 0.350035 0.670863 0.160867
C5    C     C_R   0.785724 0.955688 0.249709 0.650662
C6    C     C_R   0.214294 0.456241 0.750273 0.650550
C7    C     C_R   0.793098 0.105233 0.204026 -0.093615
C8    C     C_R   0.207026 0.605114 0.796130 -0.094633
C9    C     C_R   0.756342 0.269365 0.204115 -0.095635
C10   C     C_R   0.243873 0.768660 0.796200 -0.097615
C11   C     C_R   0.713236 0.276518 0.249762 -0.173272
C12   C     C_R   0.286915 0.775932 0.750471 -0.174851
H3    H     H_    0.684997 0.400253 0.250756 0.171590
H4    H     H_    0.315233 0.899175 0.749585 0.171662
C13   C     C_R   0.706232 0.126404 0.294866 0.019222
C14   C     C_R   0.293807 0.626489 0.705192 0.018751
C15   C     C_R   0.742695 0.966249 0.294460 -0.186128
C16   C     C_R   0.257283 0.466893 0.705480 -0.185483
C17   C     C_1   0.838291 0.085939 0.158059 0.161472
C18   C     C_1   0.161786 0.585806 0.842032 0.160210
C19   C     C_1   0.661492 0.137094 0.341405 0.022301
C20   C     C_1   0.338522 0.637234 0.658626 0.021331
C21   C     C_1   0.623862 0.145998 0.379855 -0.149978
C22   C     C_1   0.376139 0.646131 0.620160 -0.151792
C23   C     C_1   0.876160 0.072600 0.120058 -0.046813
C24   C     C_1   0.123881 0.572480 0.879985 -0.047250
C25   C     C_R   0.632754 0.129852 0.803895 -0.081615
C26   C     C_R   0.364427 0.705368 0.197388 -0.083230
H5    H     H_    0.545249 0.142174 0.740259 0.141137
H6    H     H_    0.450995 0.739078 0.261513 0.141478
H7    H     H_    0.613537 0.130157 0.851619 0.196584
H8    H     H_    0.382281 0.741062 0.150420 0.196281
C27   C     C_R   0.616109 0.144140 0.677710 -0.128686
C28   C     C_R   0.383725 0.651079 0.322161 -0.128567
C29   C     C_R   0.911893 0.047794 0.760079 0.593954
C30   C     C_R   0.088398 0.546949 0.239992 0.593758
C31   C     C_R   0.875425 0.037872 0.693954 -0.154885
C32   C     C_R   0.124117 0.558957 0.306530 -0.154803
C33   C     C_R   0.812542 0.056228 0.688692 -0.199010
C34   C     C_R   0.186550 0.588491 0.311910 -0.200055
C35   C     C_R   0.784651 0.091544 0.747734 0.082446
C36   C     C_R   0.215178 0.600381 0.252292 0.082420
C37   C     C_R   0.822441 0.091933 0.814895 -0.107925
C38   C     C_R   0.177395 0.598909 0.185119 -0.107823
C39   C     C_R   0.720269 0.116161 0.742856 -0.080589
C40   C     C_R   0.279574 0.623477 0.257043 -0.079565
C41   C     C_R   0.695598 0.120711 0.806057 -0.069578
C42   C     C_R   0.302793 0.665232 0.194598 -0.069205
C43   C     C_R   0.733684 0.117260 0.871146 0.640454
C44   C     C_R   0.264501 0.666470 0.129629 0.640761
C45   C     C_R   0.795934 0.107159 0.875336 -0.218240
C46   C     C_R   0.203259 0.629620 0.124941 -0.218383
C47   C     C_R   0.678970 0.138516 0.678457 0.574695
C48   C     C_R   0.322362 0.606152 0.320542 0.575223
C49   C     C_R   0.593534 0.137577 0.740424 -0.297442
C50   C     C_R   0.403977 0.703103 0.260667 -0.292651
C51   C     C_R   0.886098 0.071374 0.820490 -0.198017
C52   C     C_R   0.114082 0.570127 0.179461 -0.198137
H9    H     H_    0.786273 0.032419 0.638026 0.251582
H10   H     H_    0.211222 0.611115 0.363516 0.251004
H11   H     H_    0.823258 0.106876 0.926921 0.124005
H12   H     H_    0.175875 0.630110 0.073392 0.125824
O11   O     O_R   0.051730 0.724670 0.084120 -0.537750
O12   O     O_R   0.948270 0.224670 0.915880 -0.536421
O13   O     O_R   0.063080 0.393540 0.944820 -0.531391
O14   O     O_R   0.936920 0.893540 0.055180 -0.531661
C53   C     C_R   0.078196 0.562158 0.924923 0.700079
C54   C     C_R   0.921816 0.062194 0.075081 0.699957
O15   O     O_R   0.058800 0.395030 0.085390 -0.536280
O16   O     O_R   0.941200 0.895030 0.914610 -0.538160
O17   O     O_R   0.943980 0.223310 0.057440 -0.523410
O18   O     O_R   0.056020 0.723310 0.942560 -0.523699
C55   C     C_R   0.072925 0.563273 0.111286 0.772425
C56   C     C_R   0.927183 0.063789 0.888678 0.772725
O19   O     O_3   0.962360 0.556290 0.990650 -0.374404
O20   O     O_3   0.037640 0.056290 0.009350 -0.374035
V3    V     V_3+5 0.006980 0.281990 0.001730 1.574376
V4    V     V_3+5 0.993020 0.781990 0.998270 1.570766
C57   C     C_2   0.902139 0.004851 0.629521 0.891258
O21   O     O_2   0.956510 0.979871 0.633211 -0.473282
O22   O     O_R   0.864958 0.002481 0.564002 -0.654041
H13   H     H_    0.888302 0.978860 0.524306 0.324949
C58   C     C_2   0.096878 0.543206 0.371415 0.889817
O23   O     O_2   0.042237 0.526673 0.368004 -0.472120
O24   O     O_R   0.133887 0.547085 0.437029 -0.654931
H14   H     H_    0.110187 0.535193 0.477044 0.324585
F1    F     F_    0.820510 0.798464 0.251133 -0.643920
F2    F     F_    0.179446 0.299570 0.748727 -0.644267
C59   C     C_2   0.761287 0.435867 0.158123 0.910894
O25   O     O_2   0.803294 0.450532 0.125588 -0.536511
O26   O     O_R   0.717681 0.578800 0.152619 -0.658957
H15   H     H_    0.726069 0.685198 0.120578 0.312256
C60   C     C_2   0.239110 0.934398 0.842448 0.916099
O27   O     O_2   0.197742 0.947626 0.876022 -0.535299
O28   O     O_R   0.282189 0.078163 0.847073 -0.658976
H16   H     H_    0.273992 0.183866 0.879412 0.310469
F3    F     F_    0.710578 0.125603 0.931596 -0.681156
F4    F     F_    0.286548 0.701976 0.069714 -0.679273
F5    F     F_    0.697886 0.167991 0.616439 -0.708151
F6    F     F_    0.307032 0.537417 0.380491 -0.707116
F7    F     F_    0.972899 0.029342 0.766535 -0.630851
F8    F     F_    0.027878 0.517174 0.233471 -0.631478

loop_
_geom_bond_atom_site_label_1
_geom_bond_atom_site_label_2
_ccdc_geom_bond_type
O15   C55   A    
C43   C45   A    
O11   V4    S    
O4    V2    S    
C57   O21   D    
C35   C39   A    
O22   H13   S    
O1    C3    A    
C25   C41   A    
C5    C15   A    
C2    O7    A    
C58   O23   D    
O17   V3    S    
O5    C3    A    
C17   C23   T    
C18   C24   T    
C5    C7    A    
C10   C12   A    
C44   F4    S    
C7    C17   S    
C32   C58   S    
C26   C50   A    
C40   C42   A    
C26   H8    S    
C4    C21   S    
C41   C43   A    
C30   C52   A    
C27   C49   A    
C42   C44   A    
C39   C47   A    
C34   H10   S    
C38   C46   A    
C9    C59   S    
C29   C31   A    
C30   C32   A    
C60   O27   D    
H6    C50   S    
O19   V3    S    
C26   C42   A    
O13   V3    S    
C53   O18   A    
O5    V1    S    
O2    C4    A    
O6    V2    S    
C43   F3    S    
C60   O28   S    
C27   C47   A    
C58   O24   S    
C32   C34   A    
C33   C35   A    
C11   C13   A    
C8    C18   S    
C1    C28   S    
C34   C36   A    
C39   C41   A    
C2    C27   S    
O14   C54   A    
C37   C45   A    
O13   C53   A    
C37   C51   A    
C36   C40   A    
C31   C33   A    
C44   C46   A    
O14   V4    S    
C3    C22   S    
O20   V4    S    
O24   H14   S    
O6    C4    A    
C46   H12   S    
C59   O26   S    
C10   C60   S    
C28   C48   A    
O19   V4    S    
O2    V1    S    
C40   C48   A    
C31   C57   S    
O4    C2    A    
C29   F7    S    
C6    C8    A    
C12   C14   A    
C35   C37   A    
H1    C15   S    
C8    C10   A    
H2    C16   S    
C52   C55   S    
O3    V1    S    
C25   C49   A    
C6    C16   A    
O12   C56   A    
C19   C21   T    
C24   C53   S    
C33   H9    S    
O16   C56   A    
C23   C54   S    
C28   C50   A    
O3    C1    A    
O12   V3    S    
C11   H3    S    
C54   O17   A    
O15   V3    S    
O26   H15   S    
C13   C19   S    
C12   H4    S    
C45   H11   S    
C14   C20   S    
C7    C9    A    
O7    V1    S    
C1    O8    A    
C13   C15   A    
O8    V2    S    
O28   H16   S    
C14   C16   A    
C5    F1    S    
C38   C52   A    
O20   V3    S    
C20   C22   T    
C36   C38   A    
C30   F8    S    
C9    C11   A    
C47   F5    S    
C51   C56   S    
C6    F2    S    
O11   C55   A    
C57   O22   S    
C29   C51   A    
O9    V2    S    
C59   O25   D    
C25   H7    S    
O10   V1    S    
O1    V2    S    
O18   V4    S    
O16   V4    S    
H5    C49   S    
C48   F6    S    
