data_mof_unit_2481.cif
_audit_creation_date              2012-12-11T14:19:27-0500
_audit_creation_method            fapswitch 2.2
_symmetry_space_group_name_H-M    P1
_symmetry_Int_Tables_number       1
_space_group_crystal_system       triclinic
_cell_length_a                    19.45013
_cell_length_b                    7.245321
_cell_length_c                    17.662431
_cell_angle_alpha                 90.000053
_cell_angle_beta                  107.669296
_cell_angle_gamma                 90.000088
_cell_volume                      2371.61085538

loop_
_atom_site_label
_atom_site_type_symbol
_atom_type_description
_atom_site_fract_x
_atom_site_fract_y
_atom_site_fract_z
_atom_type_partial_charge
O1    O     O_R   0.414820 0.494320 0.416790 -0.544847
O2    O     O_R   0.585180 0.994320 0.583210 -0.544848
O3    O     O_R   0.560270 0.819500 0.430140 -0.546968
O4    O     O_R   0.439730 0.319500 0.569860 -0.546970
C1    C     C_R   0.581072 0.655429 0.414694 0.699171
C2    C     C_R   0.418927 0.155429 0.585305 0.699133
O5    O     O_R   0.413840 0.823740 0.407440 -0.502423
O6    O     O_R   0.586160 0.323740 0.592560 -0.502404
O7    O     O_R   0.437710 0.998590 0.560350 -0.539725
O8    O     O_R   0.562290 0.498590 0.439650 -0.539718
C3    C     C_R   0.387559 0.655515 0.384977 0.755023
C4    C     C_R   0.612440 0.155515 0.615025 0.755060
O9    O     O_3   0.508000 0.662290 0.550200 -0.375084
O10   O     O_3   0.492000 0.162290 0.449800 -0.375089
V1    V     V_3+5 0.498520 0.935380 0.490690 1.455429
V2    V     V_3+5 0.501480 0.435380 0.509310 1.455461
C5    C     C_2   0.783949 0.270786 0.791848 -0.218773
C6    C     C_2   0.216035 0.770799 0.208175 -0.218756
C7    C     C_2   0.821610 0.113840 0.815770 -0.382920
C8    C     C_2   0.178393 0.613835 0.184225 -0.382945
H1    H     H_    0.802535 0.396772 0.825092 0.158497
H2    H     H_    0.197425 0.896815 0.174965 0.158541
H3    H     H_    0.805130 0.985779 0.783733 0.131205
H4    H     H_    0.194895 0.485748 0.216234 0.131259
C9    C     C_2   0.718576 0.289877 0.720551 0.491691
C10   C     C_2   0.281415 0.789873 0.279462 0.491664
C11   C     C_2   0.679107 0.142531 0.683992 -0.389407
C12   C     C_2   0.320888 0.642528 0.316016 -0.389428
H5    H     H_    0.695710 0.004106 0.704778 0.105386
H6    H     H_    0.304284 0.504102 0.295235 0.105410
C13   C     C_R   0.316814 0.010614 0.622770 -0.224705
C14   C     C_R   0.683184 0.510613 0.377229 -0.224688
C15   C     C_R   0.370349 0.147483 0.635539 -0.078490
C16   C     C_R   0.629651 0.647482 0.364461 -0.078500
C17   C     C_R   0.376634 0.278903 0.695809 -0.185357
C18   C     C_R   0.623365 0.778902 0.304190 -0.185361
C19   C     C_R   0.330503 0.273638 0.743424 0.032746
C20   C     C_R   0.669496 0.773638 0.256575 0.032749
C21   C     C_R   0.275929 0.138766 0.729402 0.071992
C22   C     C_R   0.724070 0.638766 0.270597 0.071993
C23   C     C_R   0.268990 0.006947 0.668506 0.115130
C24   C     C_R   0.731009 0.506946 0.331492 0.115120
C25   C     C_R   0.338550 0.400630 0.805124 -0.272141
C26   C     C_R   0.661449 0.900629 0.194875 -0.272141
C27   C     C_R   0.292702 0.397016 0.853050 0.465332
C28   C     C_R   0.707297 0.897015 0.146949 0.465333
C29   C     C_R   0.237231 0.262109 0.839708 -0.108191
C30   C     C_R   0.762768 0.762108 0.160290 -0.108193
C31   C     C_R   0.228552 0.134716 0.776441 -0.073224
C32   C     C_R   0.771447 0.634715 0.223557 -0.073224
C33   C     C_R   0.173039 0.001232 0.760381 0.109198
C34   C     C_R   0.826960 0.501232 0.239618 0.109198
C35   C     C_R   0.166265 0.872232 0.699220 -0.183534
C36   C     C_R   0.833734 0.372231 0.300779 -0.183534
C37   C     C_R   0.214168 0.874057 0.654172 -0.196764
C38   C     C_R   0.785831 0.374056 0.345826 -0.196760
C39   C     C_R   0.190456 0.249972 0.887758 0.422412
C40   C     C_R   0.809543 0.749971 0.112241 0.422416
C41   C     C_R   0.132954 0.120976 0.868849 -0.171248
C42   C     C_R   0.867046 0.620975 0.131150 -0.171247
C43   C     C_R   0.125489 0.996726 0.806030 -0.304031
C44   C     C_R   0.874510 0.496725 0.193968 -0.304031
H7    H     H_    0.311340 0.909622 0.575986 0.117189
H8    H     H_    0.688659 0.409621 0.424012 0.117222
H9    H     H_    0.418245 0.383830 0.706404 0.129877
H10   H     H_    0.581755 0.883830 0.293595 0.129876
H11   H     H_    0.381223 0.502817 0.817047 0.147146
H12   H     H_    0.618777 0.002816 0.182952 0.147145
H13   H     H_    0.082283 0.895795 0.792586 0.145712
H14   H     H_    0.917716 0.395794 0.207413 0.145714
H15   H     H_    0.124242 0.768306 0.686757 0.122710
H16   H     H_    0.875756 0.268305 0.313241 0.122709
H17   H     H_    0.208087 0.771913 0.607783 0.122846
H18   H     H_    0.791911 0.271912 0.392215 0.122850
O11   O     O_R   0.937810 0.773680 0.060480 -0.511266
O12   O     O_R   0.062190 0.273680 0.939520 -0.511265
O13   O     O_R   0.086190 0.439740 0.092580 -0.542265
O14   O     O_R   0.913810 0.939740 0.907420 -0.542272
C45   C     C_R   0.112396 0.608159 0.114803 0.779007
C46   C     C_R   0.887604 0.108159 0.885197 0.779000
O15   O     O_R   0.939760 0.444210 0.069890 -0.547615
O16   O     O_R   0.060240 0.944210 0.930110 -0.547614
O17   O     O_R   0.914790 0.269640 0.916760 -0.540489
O18   O     O_R   0.085210 0.769640 0.083240 -0.540489
C47   C     C_R   0.918610 0.612495 0.084199 0.723831
C48   C     C_R   0.081390 0.112495 0.915800 0.723835
O19   O     O_3   0.992050 0.601530 0.949880 -0.381714
O20   O     O_3   0.007950 0.101530 0.050120 -0.381712
V3    V     V_3+5 0.001480 0.328340 0.009300 1.437519
V4    V     V_3+5 0.998520 0.828340 0.990700 1.437509
O21   O     O_3   0.694121 0.466855 0.696930 -0.536186
C49   C     C_3   0.742610 0.553556 0.662920 -0.231728
H19   H     H_    0.751602 0.469086 0.614055 0.115350
H20   H     H_    0.794806 0.584946 0.708593 0.119662
H21   H     H_    0.718745 0.686709 0.636630 0.154125
O22   O     O_3   0.305864 0.966855 0.303078 -0.536203
C50   C     C_3   0.257454 0.053363 0.337256 -0.231601
H22   H     H_    0.248668 0.968866 0.386220 0.115336
H23   H     H_    0.205156 0.084498 0.291709 0.119611
H24   H     H_    0.281278 0.186632 0.363449 0.154101
O23   O     O_3   0.305925 0.518995 0.916033 -0.536203
C51   C     C_3   0.274106 0.689929 0.887285 -0.143600
H25   H     H_    0.282357 0.786105 0.938144 0.152242
H26   H     H_    0.214893 0.675028 0.859024 0.150843
H27   H     H_    0.299712 0.752810 0.845023 0.120732
O24   O     O_3   0.694074 0.018993 0.083966 -0.536203
C52   C     C_3   0.725892 0.189928 0.112714 -0.143601
H28   H     H_    0.717642 0.286102 0.061855 0.152240
H29   H     H_    0.785106 0.175029 0.140977 0.150841
H30   H     H_    0.700284 0.252810 0.154974 0.120733
O25   O     O_3   0.199548 0.366725 0.952108 -0.534150
C53   C     C_3   0.241352 0.274902 0.021266 -0.129287
H31   H     H_    0.294851 0.232702 0.016261 0.139412
H32   H     H_    0.212558 0.152705 0.034887 0.083721
H33   H     H_    0.251199 0.371372 0.072228 0.157133
O26   O     O_3   0.800452 0.866724 0.047891 -0.534148
C54   C     C_3   0.758649 0.774900 0.978732 -0.129294
H34   H     H_    0.705149 0.732702 0.983735 0.139414
H35   H     H_    0.787442 0.652701 0.965113 0.083703
H36   H     H_    0.748804 0.871368 0.927771 0.157133

loop_
_geom_bond_atom_site_label_1
_geom_bond_atom_site_label_2
_ccdc_geom_bond_type
O4    V2    S    
O23   C51   S    
C11   H5    S    
C35   C37   A    
O25   C53   S    
O1    C3    A    
O2    C4    A    
C2    O7    A    
C53   H32   S    
C50   H22   S    
C21   C23   A    
O14   V4    S    
O5    C3    A    
O13   V3    S    
C17   C19   A    
C54   H35   S    
C45   O18   A    
C18   H10   S    
C39   C41   A    
O24   C52   S    
C17   H9    S    
C40   C42   A    
O26   C54   S    
C44   H14   S    
C51   H27   S    
C42   C44   A    
C27   C29   A    
C23   C37   A    
O11   V4    S    
C24   C38   A    
O19   V4    S    
C6    C10   S    
O11   C47   A    
C8    H4    S    
C34   C36   A    
C12   H6    S    
C31   C33   A    
C33   C43   A    
C32   C34   A    
C52   H28   S    
C13   C15   A    
C16   C18   A    
O12   V3    S    
O15   V3    S    
C30   C32   A    
O6    V2    S    
O22   C50   S    
C40   O26   S    
C52   H29   S    
C51   H25   S    
O18   V4    S    
C46   O17   A    
C53   H31   S    
C50   H23   S    
C26   C28   A    
C28   C30   A    
O13   C45   A    
C10   O22   S    
O17   V3    S    
C36   C38   A    
C9    O21   S    
C41   C43   A    
C4    C11   S    
C13   H7    S    
C38   H18   S    
C14   H8    S    
C29   C31   A    
C54   H36   S    
O21   C49   S    
C5    C7    D    
O16   C48   A    
C49   H21   S    
C5    H1    S    
C33   C35   A    
C14   C16   A    
C19   C25   A    
C7    H3    S    
C20   C26   A    
C29   C39   A    
O6    C4    A    
C1    C16   S    
C49   H20   S    
O14   C46   A    
O1    V2    S    
C51   H26   S    
O2    V1    S    
C25   C27   A    
C27   O23   S    
O4    C2    A    
C21   C31   A    
C52   H30   S    
C26   H12   S    
C35   H15   S    
O12   C48   A    
C50   H24   S    
O3    V1    S    
C43   H13   S    
C13   C23   A    
C8    C45   S    
C6    H2    S    
C22   C24   A    
O3    C1    A    
C42   C47   S    
C30   C40   A    
C9    C11   D    
C10   C12   D    
O16   V4    S    
C2    C15   S    
C5    C9    S    
C18   C20   A    
O7    V1    S    
C41   C48   S    
C1    O8    A    
C19   C21   A    
O8    V2    S    
C54   H34   S    
C20   C22   A    
C39   O25   S    
C3    C12   S    
C22   C32   A    
C28   O24   S    
O5    V1    S    
C49   H19   S    
C15   C17   A    
C6    C8    D    
C7    C46   S    
C37   H17   S    
C36   H16   S    
O20   V3    S    
C25   H11   S    
O9    V2    S    
C14   C24   A    
O10   V1    S    
C34   C44   A    
C53   H33   S    
O15   C47   A    
