data_mof_unit_3107.cif
_audit_creation_date              2012-12-10T20:37:32-0500
_audit_creation_method            fapswitch 2.2
_symmetry_space_group_name_H-M    P1
_symmetry_Int_Tables_number       1
_space_group_crystal_system       triclinic
_cell_length_a                    15.69995
_cell_length_b                    10.630866
_cell_length_c                    9.920492
_cell_angle_alpha                 89.566948
_cell_angle_beta                  90.399298
_cell_angle_gamma                 90.563928
_cell_volume                      1655.60359021

loop_
_atom_site_label
_atom_site_type_symbol
_atom_type_description
_atom_site_fract_x
_atom_site_fract_y
_atom_site_fract_z
_atom_type_partial_charge
C1    C     C_R   0.499477 0.260529 0.500396 0.901752
C2    C     C_R   0.493466 0.128768 0.502435 -0.181970
C3    C     C_R   0.436751 0.067123 0.415362 -0.234678
C4    C     C_R   0.338064 0.500000 0.499574 0.887846
C5    C     C_R   0.432831 0.936810 0.415792 0.424758
C6    C     C_R   0.489747 0.871256 0.501800 -0.213443
C7    C     C_R   0.538072 0.934996 0.597824 0.103726
C8    C     C_3   0.631500 0.926662 0.626559 -0.479531
C9    C     C_3   0.632919 0.069223 0.627971 -0.485435
C10   C     C_R   0.429706 0.459112 0.071064 0.126817
C11   C     C_R   0.563966 0.555501 0.073156 -0.121960
C12   C     C_3   0.082940 0.501698 0.497786 0.170824
C13   C     C_R   0.562912 0.560015 0.930154 0.444192
C14   C     C_R   0.434154 0.447594 0.930119 0.075580
C15   C     C_3   0.403427 0.312594 0.937788 -0.147433
C16   C     C_R   0.497463 0.739417 0.499664 0.866098
C17   C     C_3   0.385507 0.335039 0.087479 -0.144236
C18   C     C_R   0.662000 0.500030 0.500375 0.903188
C19   C     C_3   0.972617 0.469005 0.621757 -0.147269
C20   C     C_3   0.028173 0.385544 0.531029 -0.193861
C21   C     C_1   0.249157 0.500764 0.498689 -0.196871
C22   C     C_1   0.751043 0.499822 0.500760 -0.174741
C23   C     C_3   0.971929 0.616696 0.464906 -0.186307
C24   C     C_3   0.029040 0.585176 0.588384 -0.186298
C25   C     C_3   0.473910 0.212827 0.924202 -0.394030
C26   C     C_3   0.437810 0.079308 0.946472 -0.369995
C27   C     C_3   0.508339 0.984515 0.973559 -0.806001
C28   C     C_3   0.289955 0.348807 0.118835 -0.414516
C29   C     C_3   0.244476 0.220457 0.121884 -0.352475
C30   C     C_3   0.151152 0.233125 0.161074 -0.887519
C31   C     C_3   0.062153 0.569863 0.237364 -0.444570
C32   C     C_3   0.990812 0.580184 0.131874 -0.330487
C33   C     C_3   0.026453 0.614226 0.993430 -0.885851
C34   C     C_3   0.917386 0.500165 0.498245 0.183956
C35   C     C_3   0.027151 0.532524 0.375580 0.148810
C36   C     C_3   0.971091 0.416310 0.407359 -0.189897
C37   C     C_1   0.173840 0.501401 0.498212 -0.091402
C38   C     C_1   0.826442 0.499779 0.499811 -0.073335
C39   C     C_R   0.539458 0.063090 0.598871 0.112086
H1    H     H_    0.053374 0.291450 0.558298 0.140643
H2    H     H_    0.946870 0.710765 0.437168 0.132062
H3    H     H_    0.054841 0.653672 0.662468 0.145612
H4    H     H_    0.396327 0.119907 0.347073 0.157789
H5    H     H_    0.645177 0.883679 0.726699 0.216183
H6    H     H_    0.606735 0.654146 0.780378 0.376159
H7    H     H_    0.555689 0.987344 0.891470 0.258190
H8    H     H_    0.540965 0.005961 0.070554 0.260515
H9    H     H_    0.480580 0.888175 0.979988 0.261486
H10   H     H_    0.394309 0.076729 0.034219 0.239849
H11   H     H_    0.400803 0.050332 0.855732 0.221648
H12   H     H_    0.667635 0.886145 0.541438 0.198393
H13   H     H_    0.502908 0.217607 0.823873 0.242965
H14   H     H_    0.526228 0.231949 0.997880 0.205872
H15   H     H_    0.146025 0.274487 0.263193 0.262466
H16   H     H_    0.117085 0.293418 0.086800 0.259627
H17   H     H_    0.120215 0.138763 0.162431 0.254889
H18   H     H_    0.247574 0.176220 0.020945 0.222802
H19   H     H_    0.276287 0.157500 0.196115 0.232391
H20   H     H_    0.283029 0.393418 0.218626 0.237349
H21   H     H_    0.258686 0.410896 0.042778 0.204870
H22   H     H_    0.060863 0.705938 0.997318 0.264121
H23   H     H_    0.647045 0.109086 0.729027 0.202764
H24   H     H_    0.070732 0.540319 0.959084 0.258016
H25   H     H_    0.973398 0.621838 0.919301 0.252322
H26   H     H_    0.956000 0.488940 0.124328 0.221621
H27   H     H_    0.945041 0.653613 0.162530 0.225577
H28   H     H_    0.096158 0.661617 0.246413 0.210309
H29   H     H_    0.108732 0.498298 0.205627 0.211148
H30   H     H_    0.364078 0.792046 0.362635 0.336913
H31   H     H_    0.670003 0.111911 0.543831 0.200552
H32   H     H_    0.616098 0.598993 0.128077 0.174463
H33   H     H_    0.346268 0.295353 0.873394 0.171937
H34   H     H_    0.419215 0.272257 0.159861 0.192835
H35   H     H_    0.947987 0.442825 0.722890 0.141808
H36   H     H_    0.945457 0.347434 0.333550 0.132656
N1    N     N_R   0.499430 0.499140 0.142800 -0.148452
N2    N     N_R   0.499430 0.499180 0.857150 -0.164457
O1    O     O_R   0.500010 0.316790 0.614690 -0.630043
O2    O     O_3   0.375017 0.878956 0.330367 -0.771493
O3    O     O_R   0.500000 0.316760 0.385350 -0.628278
O4    O     O_R   0.376780 0.500010 0.614650 -0.608705
O5    O     O_R   0.376770 0.499970 0.385310 -0.628970
O6    O     O_R   0.500000 0.683240 0.614650 -0.638518
O7    O     O_R   0.499990 0.683210 0.385310 -0.601263
O8    O     O_R   0.623230 0.500030 0.614690 -0.605192
O9    O     O_R   0.623220 0.499990 0.385350 -0.620407
O10   O     O_3   0.627902 0.625375 0.868699 -0.781638
Zn1   Zn    Zn3+2 0.500010 0.500020 0.653130 0.943100
Zn2   Zn    Zn3+2 0.499990 0.499980 0.346870 0.939992

loop_
_geom_bond_atom_site_label_1
_geom_bond_atom_site_label_2
_ccdc_geom_bond_type
C27   H9    S    
C24   H3    S    
C35   C36   S    
C16   O7    A    
C7    C8    S    
C31   H28   S    
C15   H33   S    
C30   H15   S    
C3    H4    S    
C26   C27   S    
C18   O9    A    
O5    Zn2   S    
C28   C29   S    
H6    O10   S    
C25   H14   S    
C11   N1    A    
C26   H11   S    
C5    C6    A    
C20   H1    S    
C11   H32   S    
C15   C25   S    
C10   C17   S    
C27   H8    S    
C22   C38   T    
C9    C39   S    
C1    C2    S    
C14   N2    A    
O3    Zn2   S    
C10   N1    A    
C2    C39   A    
C4    O4    A    
C19   C20   S    
N2    Zn1   S    
C8    C9    S    
C23   C24   S    
C5    O2    S    
N1    Zn2   S    
O6    Zn1   S    
C18   C22   S    
C17   H34   S    
C1    O1    A    
C12   C20   S    
C28   H21   S    
C31   H29   S    
C13   N2    A    
C18   O8    A    
C9    H23   S    
C9    H31   S    
C10   C14   A    
C26   H10   S    
C25   C26   S    
C30   H17   S    
O9    Zn2   S    
C16   O6    A    
C29   C30   S    
C36   H36   S    
C31   C32   S    
C33   H24   S    
C23   C34   S    
C13   O10   S    
C21   C37   T    
C12   C35   S    
C8    H12   S    
C27   H7    S    
C29   H18   S    
C23   C35   S    
C31   C35   S    
H30   O2    S    
O7    Zn2   S    
O8    Zn1   S    
C32   H27   S    
C28   H20   S    
O1    Zn1   S    
C15   C17   S    
C34   C38   S    
C17   C28   S    
C19   H35   S    
C8    H5    S    
C3    C5    A    
C19   C34   S    
C6    C7    A    
C30   H16   S    
C12   C24   S    
C23   H2    S    
C32   C33   S    
C2    C3    A    
C25   H13   S    
C4    C21   S    
C11   C13   A    
C33   H25   S    
C19   C24   S    
C34   C36   S    
O4    Zn1   S    
C6    C16   S    
C20   C36   S    
C4    O5    A    
C29   H19   S    
C33   H22   S    
C12   C37   S    
C1    O3    A    
C7    C39   A    
C14   C15   S    
C32   H26   S    
