data_mof_unit_2311.cif
_audit_creation_date              2012-12-10T17:46:28-0500
_audit_creation_method            fapswitch 2.2
_symmetry_space_group_name_H-M    P1
_symmetry_Int_Tables_number       1
_space_group_crystal_system       triclinic
_cell_length_a                    20.767388
_cell_length_b                    21.24425
_cell_length_c                    14.757646
_cell_angle_alpha                 89.833798
_cell_angle_beta                  127.987114
_cell_angle_gamma                 90.247802
_cell_volume                      5131.50462979

loop_
_atom_site_label
_atom_site_type_symbol
_atom_type_description
_atom_site_fract_x
_atom_site_fract_y
_atom_site_fract_z
_atom_type_partial_charge
C1    C     C_R   0.602080 0.913341 0.630591 0.867043
C2    C     C_R   0.396654 0.085875 0.367737 0.857074
C3    C     C_R   0.397462 0.913606 0.369059 0.888777
C4    C     C_R   0.602561 0.086374 0.630984 0.848778
C5    C     C_R   0.102104 0.413137 0.630941 0.855372
C6    C     C_R   0.897823 0.586590 0.369284 0.863978
C7    C     C_R   0.897193 0.413797 0.368708 0.861722
C8    C     C_R   0.102921 0.586112 0.631447 0.870391
C9    C     C_R   0.357713 0.745447 0.968491 -0.197185
C10   C     C_R   0.644870 0.251326 0.035969 -0.202135
C11   C     C_R   0.655169 0.759769 0.053158 -0.195628
C12   C     C_R   0.350307 0.242725 0.951390 -0.205034
C13   C     C_R   0.851426 0.252608 0.958591 -0.188182
C14   C     C_R   0.149595 0.746268 0.042944 -0.191055
C15   C     C_R   0.214104 0.303835 0.123676 -0.199247
C16   C     C_R   0.843276 0.738774 0.944732 -0.194096
C17   C     C_R   0.322370 0.001819 0.665822 -0.261017
C18   C     C_R   0.678109 0.999154 0.335129 -0.268034
C19   C     C_R   0.822542 0.506420 0.665766 -0.269416
C20   C     C_R   0.177644 0.492673 0.334691 -0.277001
C21   C     C_R   0.351905 0.003749 0.603098 0.096687
C22   C     C_R   0.648277 0.997960 0.397498 0.089726
C23   C     C_R   0.852162 0.506337 0.603146 0.099362
C24   C     C_R   0.147855 0.493416 0.397097 0.100472
C25   C     C_R   0.487987 0.996784 0.775038 0.134830
C26   C     C_R   0.512253 0.000631 0.224860 0.118115
C27   C     C_R   0.987715 0.495601 0.774917 0.148756
C28   C     C_R   0.012425 0.504012 0.225022 0.131034
C29   C     C_R   0.462437 0.000942 0.845022 -0.010120
C30   C     C_R   0.538316 0.996633 0.155450 -0.009998
C31   C     C_R   0.962416 0.501557 0.845008 -0.006702
C32   C     C_R   0.037931 0.497433 0.155253 -0.005732
C33   C     C_R   0.377206 0.998800 0.786305 0.065147
C34   C     C_R   0.623521 0.000141 0.214510 0.074714
C35   C     C_R   0.877138 0.502678 0.786182 0.076888
C36   C     C_R   0.123202 0.496062 0.214245 0.078258
C37   C     C_R   0.516912 0.003337 0.969327 -0.059026
C38   C     C_R   0.484155 0.993418 0.031207 -0.064202
C39   C     C_R   0.016959 0.502834 0.969381 -0.048608
C40   C     C_R   0.983534 0.495792 0.030949 -0.054476
C41   C     C_R   0.398902 0.980222 0.965453 0.371316
C42   C     C_R   0.602243 0.016344 0.035034 0.334639
C43   C     C_R   0.897456 0.486488 0.964912 0.331886
C44   C     C_R   0.103153 0.511742 0.035587 0.329490
C45   C     C_R   0.346911 0.988458 0.846832 -0.172527
C46   C     C_R   0.653982 0.009576 0.153986 -0.189492
C47   C     C_R   0.846177 0.495143 0.846416 -0.188920
C48   C     C_R   0.154301 0.502996 0.154087 -0.205204
C49   C     C_R   0.664169 0.133433 0.708306 -0.092467
C50   C     C_R   0.336095 0.866315 0.292128 -0.084457
C51   C     C_R   0.342541 0.138849 0.299141 -0.118187
C52   C     C_R   0.662194 0.865209 0.706318 -0.092954
C53   C     C_R   0.166013 0.631842 0.710780 -0.087789
C54   C     C_R   0.834667 0.367529 0.290177 -0.088090
C55   C     C_R   0.837326 0.634409 0.293052 -0.092291
C56   C     C_R   0.163339 0.365687 0.709149 -0.102706
C57   C     C_R   0.799849 0.176507 0.807221 -0.158464
C58   C     C_R   0.200417 0.823191 0.192836 -0.156144
C59   C     C_R   0.269548 0.232185 0.283900 -0.170602
C60   C     C_R   0.792697 0.815370 0.793644 -0.165913
C61   C     C_R   0.303498 0.671791 0.812813 -0.161794
C62   C     C_R   0.698049 0.326035 0.189915 -0.171694
C63   C     C_R   0.706403 0.683672 0.205187 -0.168275
C64   C     C_R   0.289000 0.310157 0.784575 -0.174673
C65   C     C_R   0.738795 0.135262 0.726675 -0.245028
C66   C     C_R   0.261159 0.864782 0.272861 -0.220436
C67   C     C_R   0.314505 0.178542 0.344020 -0.203250
C68   C     C_R   0.733649 0.858796 0.716785 -0.224980
C69   C     C_R   0.240751 0.632546 0.729383 -0.234545
C70   C     C_R   0.760097 0.366180 0.272044 -0.238587
C71   C     C_R   0.765877 0.640654 0.282661 -0.228992
C72   C     C_R   0.228231 0.352331 0.706296 -0.228152
C73   C     C_R   0.650319 0.174084 0.769417 0.323900
C74   C     C_R   0.350642 0.824944 0.232638 0.323135
C75   C     C_R   0.324332 0.153188 0.192611 0.290520
C76   C     C_R   0.649924 0.827306 0.772520 0.292077
C77   C     C_R   0.153877 0.671545 0.774799 0.324680
C78   C     C_R   0.847342 0.327584 0.227005 0.323226
C79   C     C_R   0.849109 0.672023 0.226047 0.292998
C80   C     C_R   0.160113 0.336169 0.791980 0.301591
C81   C     C_R   0.717267 0.205940 0.867173 0.035371
C82   C     C_R   0.284082 0.792585 0.135185 0.034673
C83   C     C_R   0.292272 0.212688 0.142717 0.020576
C84   C     C_R   0.716570 0.793873 0.867005 0.018051
C85   C     C_R   0.222033 0.701282 0.874480 0.031013
C86   C     C_R   0.779619 0.296955 0.128224 0.032883
C87   C     C_R   0.782125 0.705007 0.131177 0.018260
C88   C     C_R   0.228727 0.302991 0.883250 0.017844
C89   C     C_R   0.790103 0.211252 0.878500 0.098039
C90   C     C_R   0.210808 0.787751 0.122858 0.102352
C91   C     C_R   0.258292 0.249696 0.183469 0.102313
C92   C     C_R   0.784985 0.783159 0.869424 0.108146
C93   C     C_R   0.295044 0.705654 0.886191 0.103795
C94   C     C_R   0.706881 0.291930 0.117129 0.107475
C95   C     C_R   0.713740 0.715636 0.128844 0.108986
C96   C     C_R   0.289624 0.285158 0.872976 0.110223
C97   C     C_R   0.715041 0.232591 0.953743 0.074840
C98   C     C_R   0.286909 0.765241 0.049548 0.076662
C99   C     C_R   0.291884 0.236299 0.052596 0.091274
C100  C     C_R   0.717607 0.770206 0.958126 0.076765
C101  C     C_R   0.220444 0.727263 0.961969 0.074683
C102  C     C_R   0.781268 0.270903 0.040830 0.071919
C103  C     C_R   0.780848 0.728464 0.039759 0.077033
C104  C     C_R   0.237943 0.285658 0.983354 0.085082
C105  C     C_R   0.351361 0.777597 0.044247 -0.076310
C106  C     C_R   0.651322 0.219303 0.960206 -0.074144
C107  C     C_R   0.660310 0.789655 0.974113 -0.128621
C108  C     C_R   0.349850 0.216953 0.037786 -0.133595
C109  C     C_R   0.844677 0.284672 0.033979 -0.076445
C110  C     C_R   0.156688 0.713838 0.968208 -0.076969
C111  C     C_R   0.201893 0.320558 0.022884 -0.128183
C112  C     C_R   0.838028 0.708873 0.023652 -0.128376
Cu1   Cu    Cu3+1 0.526640 0.000000 0.436960 1.006772
Cu2   Cu    Cu3+1 0.473360 0.000000 0.563040 1.015057
Cu3   Cu    Cu3+1 0.026640 0.500000 0.436960 1.014924
Cu4   Cu    Cu3+1 0.973360 0.500000 0.563040 1.017954
H1    H     H_    0.410959 0.753183 0.972250 0.150656
H2    H     H_    0.592009 0.243019 0.032913 0.146247
H3    H     H_    0.606485 0.772510 0.057175 0.150162
H4    H     H_    0.397473 0.228691 0.944916 0.148316
H5    H     H_    0.904190 0.261181 0.961530 0.163167
H6    H     H_    0.096508 0.738048 0.039378 0.152024
H7    H     H_    0.188067 0.332872 0.154004 0.154428
H8    H     H_    0.891930 0.725962 0.940693 0.150861
H9    H     H_    0.249866 0.895353 0.320327 0.168794
H10   H     H_    0.749604 0.105207 0.678110 0.168212
H11   H     H_    0.743196 0.886549 0.664256 0.170574
H12   H     H_    0.327046 0.168009 0.425366 0.195273
H13   H     H_    0.750066 0.395780 0.321938 0.165641
H14   H     H_    0.250427 0.603072 0.678977 0.168384
H15   H     H_    0.231427 0.373755 0.642459 0.173320
H16   H     H_    0.756653 0.613090 0.335702 0.167686
H17   H     H_    0.359740 0.673886 0.822843 0.157987
H18   H     H_    0.641994 0.323445 0.180323 0.147745
H19   H     H_    0.653420 0.690360 0.202207 0.156933
H20   H     H_    0.336672 0.298405 0.777884 0.157311
H21   H     H_    0.855962 0.179380 0.817006 0.164447
H22   H     H_    0.144002 0.820632 0.182297 0.159129
H23   H     H_    0.245924 0.261050 0.317854 0.159124
H24   H     H_    0.845696 0.808595 0.796693 0.159499
H25   H     H_    0.281832 0.981104 0.799900 0.192159
H26   H     H_    0.719013 0.017261 0.200990 0.188764
H27   H     H_    0.780694 0.490597 0.799274 0.186194
H28   H     H_    0.219831 0.507177 0.201328 0.186201
H29   H     H_    0.449622 0.007690 0.188167 0.224665
H30   H     H_    0.550205 0.987167 0.811143 0.182133
H31   H     H_    0.950703 0.515677 0.188832 0.181926
H32   H     H_    0.049340 0.483985 0.810670 0.188027
H33   H     H_    0.690320 0.997285 0.490470 0.119117
H34   H     H_    0.309706 0.006027 0.510227 0.123597
H35   H     H_    0.189759 0.490363 0.489906 0.114804
H36   H     H_    0.810149 0.509576 0.510362 0.113611
H37   H     H_    0.256916 0.001353 0.620259 0.155250
H38   H     H_    0.743583 0.000711 0.381033 0.153615
H39   H     H_    0.757132 0.508360 0.620152 0.148915
H40   H     H_    0.243063 0.490494 0.380485 0.148226
N1    N     N_R   0.433280 0.000000 0.657760 -0.190173
N2    N     N_R   0.566720 0.000000 0.342240 -0.198371
N3    N     N_R   0.933280 0.500000 0.657760 -0.189060
N4    N     N_R   0.066720 0.500000 0.342240 -0.187850
O1    O     O_R   0.600040 0.935040 0.546740 -0.587992
O2    O     O_R   0.399960 0.064960 0.453260 -0.594850
O3    O     O_R   0.399960 0.935040 0.453260 -0.589603
O4    O     O_R   0.600040 0.064960 0.546740 -0.610753
O5    O     O_R   0.100040 0.435040 0.546740 -0.596025
O6    O     O_R   0.899960 0.564960 0.453260 -0.592811
O7    O     O_R   0.899960 0.435040 0.453260 -0.592754
O8    O     O_R   0.100040 0.564960 0.546740 -0.588038
O9    O     O_R   0.555010 0.935070 0.653220 -0.558049
O10   O     O_R   0.444990 0.064930 0.346780 -0.556270
O11   O     O_R   0.444990 0.935070 0.346780 -0.527657
O12   O     O_R   0.555010 0.064930 0.653220 -0.531128
O13   O     O_R   0.055010 0.435070 0.653220 -0.548062
O14   O     O_R   0.944990 0.564930 0.346780 -0.557295
O15   O     O_R   0.944990 0.435070 0.346780 -0.534262
O16   O     O_R   0.055010 0.564930 0.653220 -0.537089
Cl1   Cl    Cl    0.352520 0.941624 0.018192 -0.629239
Cl2   Cl    Cl    0.649368 0.052550 0.981378 -0.688307
Cl3   Cl    Cl    0.848136 0.452608 0.017087 -0.692438
Cl4   Cl    Cl    0.153013 0.545188 0.983913 -0.700392
Cl5   Cl    Cl    0.453338 0.801341 0.303029 -0.600858
Cl6   Cl    Cl    0.547846 0.197587 0.701096 -0.642414
Cl7   Cl    Cl    0.547751 0.807927 0.714438 -0.602183
Cl8   Cl    Cl    0.320560 0.091405 0.108774 -0.605887
Cl9   Cl    Cl    0.949238 0.303265 0.293314 -0.604171
Cl10  Cl    Cl    0.052322 0.696639 0.708892 -0.594443
Cl11  Cl    Cl    0.064500 0.326429 0.765042 -0.603822
Cl12  Cl    Cl    0.951053 0.691669 0.283327 -0.600906
H41   H     H_    0.397435 0.812662 0.097001 0.226899
H42   H     H_    0.605848 0.183717 0.908075 0.230070
H43   H     H_    0.618953 0.828240 0.926463 0.191625
H44   H     H_    0.399000 0.185298 0.097947 0.181147
H45   H     H_    0.889820 0.320524 0.085939 0.228710
H46   H     H_    0.111463 0.678048 0.916057 0.226327
H47   H     H_    0.168897 0.363629 0.980857 0.190673
H48   H     H_    0.879290 0.670226 0.071283 0.191183

loop_
_geom_bond_atom_site_label_1
_geom_bond_atom_site_label_2
_ccdc_geom_bond_type
Cu2   O9    S    
C23   H36   S    
C88   C96   A    
C82   C90   A    
C20   H40   S    
C14   H6    S    
C29   C33   A    
C33   C45   A    
C5    C56   S    
C53   C77   A    
C6    C55   S    
C53   C69   A    
C6    O6    A    
C44   Cl4   S    
C64   H20   S    
C57   C89   A    
C61   H17   S    
C46   H26   S    
C74   Cl5   S    
Cu2   O12   S    
C99   C108  A    
C43   Cl3   S    
C98   C105  A    
C15   H7    S    
Cu4   O13   S    
C32   C36   A    
C41   Cl1   S    
C51   C75   A    
Cu3   O14   S    
C50   C74   A    
Cu3   O8    S    
C61   C93   A    
Cu2   O2    S    
C10   C94   A    
C27   N3    A    
Cu3   Cu4   S    
C63   C95   A    
C28   N4    A    
C13   H5    S    
C30   C38   A    
C42   C46   A    
C37   C42   A    
C112  H48   S    
C13   C109  A    
C86   C94   A    
C59   C67   A    
C71   H16   S    
C12   H4    S    
C85   C93   A    
C58   C66   A    
C40   C43   A    
C14   C90   A    
C20   C24   A    
C27   H32   S    
C56   C72   A    
C21   N1    A    
C7    O15   A    
C110  H46   S    
Cu3   O15   S    
C4    O4    A    
Cu4   O7    S    
C109  H45   S    
C25   H30   S    
C34   C46   A    
C5    O5    A    
Cu1   N2    S    
Cu3   O5    S    
C76   Cl7   S    
C8    O8    A    
C97   C102  A    
C18   H38   S    
C3    O3    A    
C81   C89   A    
C78   C86   A    
C32   C40   A    
C99   C104  A    
C22   H33   S    
C77   C85   A    
C83   C99   A    
C79   C87   A    
C45   H25   S    
C77   Cl10  S    
C82   C98   A    
C62   C70   A    
Cu4   O6    S    
C17   C33   A    
C74   C82   A    
C75   Cl8   S    
C73   C81   A    
C88   C104  A    
C3    C50   S    
C17   H37   S    
C36   C48   A    
C60   C92   A    
C25   C29   A    
C76   C84   A    
C79   Cl12  S    
C30   C34   A    
C27   C31   A    
C84   C100  A    
C15   C111  A    
C28   C32   A    
C64   C96   A    
C38   C41   A    
Cu1   O11   S    
C11   H3    S    
C39   C40   A    
C12   C108  A    
Cu4   O16   S    
C69   H14   S    
C51   C67   A    
C6    O14   A    
C48   H28   S    
C101  C110  A    
C15   C91   A    
C100  C103  A    
C17   C21   A    
C23   N3    A    
C103  C112  A    
C63   H19   S    
C26   H29   S    
C19   C23   A    
Cu2   N1    S    
C37   C38   A    
C10   H2    S    
C24   H35   S    
C105  H41   S    
C55   C79   A    
C54   C70   A    
C59   H23   S    
C50   C66   A    
C8    O16   A    
C57   H21   S    
C78   Cl9   S    
C59   C91   A    
C21   H34   S    
C18   C34   A    
C68   H11   S    
C63   C71   A    
C49   C65   A    
Cu4   N3    S    
C87   C103  A    
C97   C106  A    
C60   H24   S    
C58   H22   S    
C26   C30   A    
C62   C94   A    
C11   C107  A    
C19   H39   S    
C49   C73   A    
C10   C106  A    
Cu1   O1    S    
C106  H42   S    
C29   C37   A    
C83   C91   A    
C86   C102  A    
C9    C93   A    
C75   C83   A    
C85   C101  A    
C16   C112  A    
C72   H15   S    
Cu1   Cu2   S    
C11   C95   A    
C14   C110  A    
C7    O7    A    
C87   C95   A    
C100  C107  A    
C4    O12   A    
C13   C89   A    
C18   C22   A    
C5    O13   A    
C108  H44   S    
C47   H27   S    
C57   C65   A    
C43   C47   A    
C52   C76   A    
C52   C68   A    
C8    C53   S    
C104  C111  A    
C24   N4    A    
C16   C92   A    
C39   C44   A    
C98   C101  A    
C22   N2    A    
Cu3   N4    S    
C56   C80   A    
C66   H9    S    
C4    C49   S    
C58   C90   A    
C61   C69   A    
C65   H10   S    
C62   H18   S    
C16   H8    S    
C2    O10   A    
C19   C35   A    
C67   H12   S    
Cu1   O4    S    
C25   N1    A    
C73   Cl6   S    
C3    O11   A    
Cu2   O3    S    
C81   C97   A    
C42   Cl2   S    
C31   C35   A    
C1    O9    A    
C80   Cl11  S    
C31   C39   A    
C26   N2    A    
Cu1   O10   S    
C64   C72   A    
C1    C52   S    
C2    C51   S    
C1    O1    A    
C20   C36   A    
C60   C68   A    
C80   C88   A    
C70   H13   S    
C107  H43   S    
C41   C45   A    
C12   C96   A    
C102  C109  A    
C84   C92   A    
C7    C54   S    
C54   C78   A    
C35   C47   A    
C9    C105  A    
C55   C71   A    
C9    H1    S    
C44   C48   A    
C111  H47   S    
C2    O2    A    
C28   H31   S    
