data_mof_unit_1607.cif
_audit_creation_date              2012-12-10T17:32:57-0500
_audit_creation_method            fapswitch 2.2
_symmetry_space_group_name_H-M    P1
_symmetry_Int_Tables_number       1
_space_group_crystal_system       triclinic
_cell_length_a                    12.485284
_cell_length_b                    13.213517
_cell_length_c                    14.227618
_cell_angle_alpha                 96.226642
_cell_angle_beta                  107.855654
_cell_angle_gamma                 117.162248
_cell_volume                      1900.290135

loop_
_atom_site_label
_atom_site_type_symbol
_atom_type_description
_atom_site_fract_x
_atom_site_fract_y
_atom_site_fract_z
_atom_type_partial_charge
C1    C     C_R   0.646351 0.712705 0.503110 0.806845
C2    C     C_R   0.870874 0.533552 0.925435 0.019474
C3    C     C_R   0.838705 0.572536 0.004051 0.081020
C4    C     C_R   0.982198 0.519569 0.951738 0.097428
C5    C     C_R   0.052540 0.532975 0.056482 0.078682
C6    C     C_R   0.017328 0.571269 0.132757 -0.233026
C7    C     C_R   0.913795 0.591595 0.107006 -0.172881
C8    C     C_R   0.027718 0.495840 0.877071 -0.244138
C9    C     C_R   0.135519 0.481904 0.903532 -0.233040
C10   C     C_R   0.199542 0.486701 0.004308 0.148414
C11   C     C_R   0.157462 0.509859 0.081447 0.084592
C12   C     C_R   0.616246 0.514733 0.687051 0.850195
C13   C     C_R   0.305319 0.467993 0.028268 -0.227589
C14   C     C_R   0.368627 0.467801 0.127852 -0.043381
C15   C     C_R   0.219752 0.506099 0.180402 -0.221344
C16   C     C_R   0.176405 0.945512 0.424688 -0.117731
C17   C     C_R   0.251965 0.156869 0.469894 -0.155142
C18   C     C_R   0.703180 0.922890 0.533659 -0.178983
C19   C     C_R   0.786472 0.040606 0.541655 -0.144574
C20   C     C_R   0.895037 0.072175 0.517139 -0.179390
C21   C     C_R   0.919064 0.984568 0.478314 0.117262
C22   C     C_R   0.823689 0.863387 0.457488 0.083754
C23   C     C_R   0.345523 0.283667 0.485337 0.830127
C24   C     C_R   0.035547 0.012332 0.461787 0.069672
C25   C     C_R   0.054204 0.919312 0.426488 0.050370
C26   C     C_R   0.948826 0.801945 0.390878 -0.196551
C27   C     C_R   0.832975 0.775781 0.400448 -0.202599
C28   C     C_R   0.135706 0.129572 0.482621 -0.311822
C29   C     C_R   0.273235 0.064151 0.441005 0.396871
C30   C     C_R   0.722819 0.833508 0.494985 -0.109216
C31   C     C_R   0.270932 0.713951 0.645075 -0.249447
C32   C     C_R   0.650325 0.343807 0.355732 0.058187
C33   C     C_R   0.723195 0.314720 0.314398 -0.114434
C34   C     C_R   0.383496 0.485027 0.312656 0.777701
C35   C     C_R   0.861311 0.377008 0.364645 -0.041514
C36   C     C_R   0.927934 0.467948 0.461289 -0.087280
C37   C     C_R   0.848308 0.501421 0.497340 0.167066
C38   C     C_R   0.070533 0.532569 0.519188 -0.087504
C39   C     C_R   0.132940 0.640683 0.597496 0.065810
C40   C     C_R   0.059935 0.674942 0.632680 0.322010
C41   C     C_R   0.921798 0.607833 0.586816 -0.183286
C42   C     C_R   0.156808 0.494929 0.506122 0.057896
C43   C     C_R   0.347899 0.675164 0.623811 0.056810
C44   C     C_R   0.686617 0.530004 0.796435 -0.089320
C45   C     C_R   0.323889 0.484742 0.204991 -0.118406
C46   C     C_R   0.732962 0.593256 0.979106 0.458786
C47   C     C_R   0.656783 0.570461 0.874165 -0.310225
C48   C     C_R   0.789600 0.508221 0.822498 -0.257676
Cu1   Cu    Cu3+1 0.416420 0.526630 0.522910 0.945491
Cu2   Cu    Cu3+1 0.583580 0.473370 0.477090 0.953326
H1    H     H_    0.892723 0.622281 0.168984 0.188719
H2    H     H_    0.338494 0.453043 0.968830 0.141818
H3    H     H_    0.954191 0.729554 0.353453 0.153265
H4    H     H_    0.124299 0.202143 0.507868 0.173094
H5    H     H_    0.624914 0.902326 0.559995 0.164522
H6    H     H_    0.957583 0.165921 0.529969 0.122327
H7    H     H_    0.769994 0.108827 0.571296 0.154625
H8    H     H_    0.751320 0.685642 0.362018 0.188905
H9    H     H_    0.453926 0.730821 0.660499 0.126275
H10   H     H_    0.186198 0.516823 0.239645 0.185752
H11   H     H_    0.320579 0.800531 0.700550 0.185866
H12   H     H_    0.120420 0.407581 0.459158 0.132264
H13   H     H_    0.545182 0.299761 0.314165 0.131279
H14   H     H_    0.167868 0.465590 0.844012 0.141709
H15   H     H_    0.573865 0.583168 0.852611 0.144743
H16   H     H_    0.803143 0.469126 0.760177 0.162005
H17   H     H_    0.070643 0.590649 0.214182 0.166969
H18   H     H_    0.985777 0.491917 0.797462 0.128726
N1    N     N_R   0.290690 0.566960 0.557640 -0.180740
N2    N     N_R   0.709100 0.433710 0.442970 -0.197857
O1    O     O_R   0.545970 0.684450 0.528810 -0.580438
O2    O     O_R   0.687130 0.639470 0.490120 -0.592478
O3    O     O_R   0.519670 0.535100 0.660030 -0.583224
O4    O     O_R   0.660830 0.490120 0.621340 -0.591408
O5    O     O_R   0.312870 0.360530 0.509880 -0.597239
O6    O     O_R   0.454030 0.315550 0.471190 -0.542658
O7    O     O_R   0.339170 0.509880 0.378660 -0.564661
O8    O     O_R   0.480330 0.464900 0.339970 -0.597975
O9    O     O_3   0.392864 0.090233 0.438288 -0.562358
C49   C     C_3   0.376381 0.052219 0.335187 0.078789
H19   H     H_    0.382392 0.122686 0.297709 0.135314
H20   H     H_    0.280416 0.969871 0.285790 0.124700
C50   C     C_3   0.484577 0.027775 0.336309 -0.756410
H21   H     H_    0.475409 0.953813 0.370141 0.255073
H22   H     H_    0.476012 0.002007 0.256278 0.207857
H23   H     H_    0.582657 0.108180 0.383383 0.245739
C51   C     C_1   0.206467 0.852240 0.412063 0.264036
N3    N     N_1   0.230607 0.777964 0.402279 -0.305077
O10   O     O_3   0.126492 0.780601 0.712869 -0.571698
C52   C     C_3   0.154885 0.755944 0.808964 0.032955
H24   H     H_    0.203866 0.703047 0.814175 0.140245
H25   H     H_    0.063447 0.706759 0.821715 0.158024
C53   C     C_3   0.246686 0.872459 0.895453 -0.728306
H26   H     H_    0.199728 0.926563 0.893967 0.256203
H27   H     H_    0.268558 0.853999 0.971236 0.199892
H28   H     H_    0.340278 0.923463 0.886073 0.247546
C54   C     C_1   0.930140 0.355477 0.306890 0.223257
N4    N     N_1   0.983099 0.336877 0.259427 -0.297825
C55   C     C_1   0.653078 0.223550 0.215983 0.248225
N5    N     N_1   0.597037 0.150809 0.137273 -0.287590
C56   C     C_1   0.875827 0.666085 0.641285 0.449751
N6    N     N_1   0.850249 0.720765 0.690180 -0.313833
C57   C     C_1   0.479018 0.451014 0.147165 0.288823
N7    N     N_1   0.567670 0.437935 0.161956 -0.259546
O11   O     O_3   0.702766 0.628105 0.058789 -0.587347
C58   C     C_3   0.663037 0.711638 0.043045 0.047962
H29   H     H_    0.556437 0.664564 0.992450 0.147127
H30   H     H_    0.720965 0.777163 0.008867 0.142712
C59   C     C_3   0.684175 0.780506 0.146445 -0.759389
H31   H     H_    0.790327 0.830815 0.198391 0.250691
H32   H     H_    0.650204 0.844354 0.134788 0.207406
H33   H     H_    0.627728 0.718445 0.183166 0.245574

loop_
_geom_bond_atom_site_label_1
_geom_bond_atom_site_label_2
_ccdc_geom_bond_type
C51   N3    T    
C56   N6    T    
C12   O4    A    
C9    H14   S    
C17   C29   A    
C15   H10   S    
C31   H11   S    
C35   C36   A    
C23   O6    A    
C4    C8    A    
C54   N4    T    
C14   C57   S    
C19   H7    S    
C26   C27   A    
C1    O1    A    
C31   C43   A    
C36   C37   A    
C5    C11   A    
C3    C7    A    
Cu2   O4    S    
C34   O7    A    
C5    C6    A    
C58   H29   S    
C46   O11   S    
C18   C19   A    
Cu2   O2    S    
C53   H26   S    
C11   C15   A    
C19   C20   A    
Cu1   O7    S    
C8    C9    A    
C16   C51   S    
Cu1   O5    S    
C18   C30   A    
C13   C14   A    
C40   O10   S    
C9    C10   A    
C42   H12   S    
C44   C47   A    
C43   H9    S    
C53   H27   S    
Cu1   N1    S    
C37   N2    A    
C37   C41   A    
C49   C50   S    
Cu2   O8    S    
C12   O3    A    
C14   C45   A    
C1    O2    A    
C24   C25   A    
C49   H20   S    
C59   H33   S    
C39   C40   A    
C28   H4    S    
C49   H19   S    
C32   N2    A    
C2    C48   A    
C16   C29   A    
C27   H8    S    
C42   N1    A    
C33   C55   S    
C2    C4    A    
Cu2   O6    S    
C13   H2    S    
C52   H25   S    
C50   H21   S    
C29   O9    S    
C34   C45   S    
C17   C23   S    
C18   H5    S    
C40   C41   A    
C50   H22   S    
C8    H18   S    
C53   H28   S    
C22   C27   A    
Cu1   O3    S    
C15   C45   A    
C26   H3    S    
C52   C53   S    
C16   C25   A    
C46   C47   A    
C6    H17   S    
C22   C30   A    
C17   C28   A    
C24   C28   A    
C32   H13   S    
C23   O5    A    
C4    C5    A    
C10   C13   A    
C38   C42   A    
C6    C7    A    
O11   C58   S    
C3    C46   A    
C55   N5    T    
C32   C33   A    
C59   H32   S    
C2    C3    A    
C25   C26   A    
C7    H1    S    
C12   C44   S    
C35   C54   S    
C59   H31   S    
C34   O8    A    
C52   H24   S    
C38   C39   A    
C58   H30   S    
C36   C38   A    
C1    C30   S    
C33   C35   A    
C41   C56   S    
C20   H6    S    
Cu2   N2    S    
C10   C11   A    
O9    C49   S    
C50   H23   S    
C20   C21   A    
C43   N1    A    
Cu1   Cu2   S    
Cu1   O1    S    
C21   C24   A    
C57   N7    T    
C31   C39   A    
C48   H16   S    
O10   C52   S    
C21   C22   A    
C47   H15   S    
C44   C48   A    
C58   C59   S    
