data_mof_unit_4740.cif
_audit_creation_date              2012-10-26T19:02:29-0400
_audit_creation_method            fapswitch 2.2
_symmetry_space_group_name_H-M    P1
_symmetry_Int_Tables_number       1
_space_group_crystal_system       triclinic
_cell_length_a                    17.303141
_cell_length_b                    8.689799
_cell_length_c                    7.435496
_cell_angle_alpha                 102.956218
_cell_angle_beta                  89.918408
_cell_angle_gamma                 92.988414
_cell_volume                      1088.00246674

loop_
_atom_site_label
_atom_site_type_symbol
_atom_type_description
_atom_site_fract_x
_atom_site_fract_y
_atom_site_fract_z
_atom_type_partial_charge
C1    C     C_R   0.497638 0.199734 0.453632 0.543787
C2    C     C_R   0.774910 0.450525 0.599945 -0.169593
C3    C     C_R   0.145490 0.557197 0.410699 -0.122498
C4    C     C_R   0.854510 0.442803 0.589301 -0.122498
C5    C     C_R   0.106734 0.530017 0.567186 -0.016813
C6    C     C_R   0.893266 0.469983 0.432814 -0.016813
C7    C     C_R   0.148969 0.504336 0.717303 -0.072480
C8    C     C_R   0.851031 0.495664 0.282697 -0.072481
C9    C     C_R   0.229168 0.497110 0.707449 0.372069
C10   C     C_R   0.770832 0.502890 0.292551 0.372069
C11   C     C_2   0.022177 0.526053 0.575763 -0.121371
C12   C     C_R   0.502362 0.800266 0.546368 0.543787
C13   C     C_2   0.977823 0.473946 0.424237 -0.121371
C14   C     C_2   0.496510 0.031885 0.427477 -0.141130
C15   C     C_2   0.503490 0.968115 0.572523 -0.141130
C16   C     C_R   0.351223 0.504775 0.527159 0.566458
C17   C     C_R   0.648777 0.495225 0.472840 0.566458
C18   C     C_R   0.267536 0.516786 0.546506 0.021735
C19   C     C_R   0.732464 0.483214 0.453494 0.021735
C20   C     C_R   0.225090 0.549475 0.400055 -0.169593
Cu1   Cu    Cu3+1 0.508700 0.517250 0.683000 1.029534
Cu2   Cu    Cu3+1 0.491300 0.482750 0.317000 1.029534
F1    F     F_    0.731579 0.533500 0.147597 -0.641597
F2    F     F_    0.268421 0.466500 0.852403 -0.641597
H1    H     H_    0.253370 0.569454 0.276579 0.190664
H2    H     H_    0.510068 0.039580 0.712367 0.140156
H3    H     H_    0.439218 0.379497 0.958284 0.264700
H4    H     H_    0.560782 0.620503 0.041716 0.264700
H5    H     H_    0.746630 0.430546 0.723421 0.190664
H6    H     H_    0.003724 0.437332 0.289322 0.120822
H7    H     H_    0.996276 0.562668 0.710677 0.120822
H8    H     H_    0.119572 0.485398 0.839948 0.121105
H9    H     H_    0.880428 0.514602 0.160052 0.121105
H10   H     H_    0.885373 0.415287 0.703686 0.128479
H11   H     H_    0.114627 0.584712 0.296314 0.128479
H12   H     H_    0.489932 0.960420 0.287633 0.140156
N1    N     N_2   0.478180 0.456750 0.041980 -0.244049
N2    N     N_2   0.521820 0.543250 0.958020 -0.244049
O1    O     O_R   0.505650 0.286040 0.618880 -0.512706
O2    O     O_R   0.494350 0.713960 0.381120 -0.512706
O3    O     O_R   0.490960 0.256910 0.309800 -0.502280
O4    O     O_R   0.509040 0.743090 0.690200 -0.502280
O5    O     O_R   0.394600 0.516230 0.672450 -0.446471
O6    O     O_R   0.605400 0.483770 0.327550 -0.446471
O7    O     O_R   0.379910 0.487100 0.363380 -0.508520
O8    O     O_R   0.620090 0.512900 0.636620 -0.508520

loop_
_geom_bond_atom_site_label_1
_geom_bond_atom_site_label_2
_ccdc_geom_bond_type
C16   O7    A    
C12   O2    A    
C2    C4    A    
C9    F2    S    
N1    N2    D    
C7    H8    S    
C3    H11   S    
C10   F1    S    
C13   H6    S    
Cu1   O1    S    
C12   C15   S    
H4    N2    S    
C10   C19   A    
Cu2   O2    S    
C17   O6    A    
C11   H7    S    
C3    C20   A    
Cu1   Cu2   S    
C6    C13   S    
C11   C13   D    
C16   O5    A    
H3    N1    S    
C2    H5    S    
C8    C10   A    
C17   C19   S    
C5    C11   S    
C18   C20   A    
C8    H9    S    
C14   H12   S    
C4    H10   S    
Cu2   O3    S    
C20   H1    S    
C1    O1    A    
C12   O4    A    
Cu1   O4    S    
Cu1   O8    S    
C7    C9    A    
C9    C18   A    
Cu2   O7    S    
C17   O8    A    
C16   C18   S    
C4    C6    A    
C1    O3    A    
C5    C7    A    
C14   C15   D    
C15   H2    S    
C6    C8    A    
C1    C14   S    
C2    C19   A    
Cu1   O5    S    
Cu2   N1    S    
Cu2   O6    S    
Cu1   N2    S    
C3    C5    A    
