data_mof_unit_4580.cif
_audit_creation_date              2012-10-26T19:52:49-0400
_audit_creation_method            fapswitch 2.2
_symmetry_space_group_name_H-M    P1
_symmetry_Int_Tables_number       1
_space_group_crystal_system       triclinic
_cell_length_a                    15.078545
_cell_length_b                    10.815192
_cell_length_c                    9.541274
_cell_angle_alpha                 89.759608
_cell_angle_beta                  90.173247
_cell_angle_gamma                 90.127619
_cell_volume                      1555.94114388

loop_
_atom_site_label
_atom_site_type_symbol
_atom_type_description
_atom_site_fract_x
_atom_site_fract_y
_atom_site_fract_z
_atom_type_partial_charge
C1    C     C_R   0.501062 0.262413 0.500292 0.545421
C2    C     C_R   0.185588 0.498530 0.627301 -0.144028
C3    C     C_R   0.231711 0.498024 0.499749 -0.017509
C4    C     C_R   0.328599 0.499292 0.499863 0.549652
C5    C     C_R   0.185061 0.496405 0.372289 -0.136461
C6    C     C_R   0.490076 0.063347 0.624128 0.028176
C7    C     C_R   0.508307 0.129406 0.501745 0.005511
C8    C     C_R   0.537619 0.065434 0.382830 -0.170826
C9    C     C_R   0.537846 0.936513 0.382956 -0.162580
C10   C     C_R   0.508058 0.871062 0.501332 0.009232
C11   C     C_R   0.489784 0.936037 0.623944 0.017085
C12   C     C_R   0.906824 0.497709 0.371709 0.012129
C13   C     C_3   0.410086 0.929532 0.716530 -0.270677
C14   C     C_3   0.410697 0.069821 0.716929 -0.273636
C15   C     C_R   0.567513 0.554730 0.073519 0.110778
C16   C     C_R   0.501115 0.737728 0.499934 0.544282
C17   C     C_R   0.439680 0.431434 0.074816 0.371794
C18   C     C_R   0.438896 0.434261 0.924949 -0.005188
C19   C     C_R   0.567979 0.553749 0.926286 0.138544
C20   C     C_3   0.596642 0.685465 0.918629 -0.267899
C21   C     C_3   0.594300 0.687284 0.077555 -0.283536
C22   C     C_R   0.671411 0.500166 0.500135 0.545840
C23   C     C_R   0.954370 0.500317 0.755535 -0.133349
C24   C     C_R   0.814447 0.498645 0.372701 -0.139693
C25   C     C_R   0.768316 0.499947 0.500247 -0.013294
C26   C     C_R   0.814971 0.500655 0.627722 -0.138430
C27   C     C_R   0.907381 0.499782 0.628527 0.011953
C28   C     C_R   0.953535 0.498305 0.500064 0.061852
C29   C     C_3   0.374772 0.240807 0.116729 -0.017673
C30   C     C_3   0.286290 0.203345 0.052019 -0.404751
C31   C     C_R   0.046828 0.499613 0.755424 -0.133843
C32   C     C_R   0.093215 0.498458 0.628303 0.011833
C33   C     C_R   0.046502 0.497616 0.499952 0.061965
C34   C     C_R   0.092658 0.496310 0.371492 0.006838
C35   C     C_R   0.045679 0.495355 0.244492 -0.134421
C36   C     C_R   0.953219 0.496129 0.244600 -0.133167
Cu1   Cu    Cu3+1 0.500000 0.499980 0.640670 0.931764
Cu2   Cu    Cu3+1 0.500000 0.500020 0.359330 0.985556
H1    H     H_    0.778613 0.498214 0.273983 0.124180
H2    H     H_    0.660598 0.700760 0.126464 0.125645
H3    H     H_    0.779525 0.501824 0.726443 0.124579
H4    H     H_    0.540600 0.747072 0.118168 0.142119
H5    H     H_    0.919632 0.501372 0.854806 0.100861
H6    H     H_    0.082041 0.500166 0.854615 0.102790
H7    H     H_    0.221418 0.499359 0.726018 0.124507
H8    H     H_    0.220481 0.495586 0.273565 0.158831
H9    H     H_    0.080427 0.494226 0.145236 0.104108
H10   H     H_    0.918012 0.495570 0.145413 0.100765
H11   H     H_    0.557373 0.114484 0.288705 0.127504
H12   H     H_    0.558668 0.888887 0.289600 0.120758
H13   H     H_    0.382569 0.189124 0.216814 0.166316
H14   H     H_    0.430169 0.210373 0.047732 0.087238
H15   H     H_    0.275749 0.252002 0.950763 0.133758
H16   H     H_    0.285552 0.102114 0.032992 0.107034
H17   H     H_    0.231284 0.226886 0.124284 0.162831
H18   H     H_    0.351224 0.889299 0.662810 0.138823
H19   H     H_    0.425336 0.888822 0.820916 0.129684
H20   H     H_    0.352092 0.111478 0.663875 0.133097
H21   H     H_    0.427106 0.109550 0.820949 0.129882
H22   H     H_    0.388053 0.385147 0.867651 0.118484
H23   H     H_    0.664642 0.695301 0.875246 0.125187
H24   H     H_    0.546148 0.746681 0.870004 0.155227
N1    N     N_R   0.500570 0.500930 0.147930 -0.222917
N2    N     N_R   0.500570 0.500890 0.852020 -0.261986
O1    O     O_R   0.500000 0.319640 0.618810 -0.502621
O2    O     O_R   0.500010 0.319680 0.381230 -0.489988
O3    O     O_R   0.370250 0.499950 0.618800 -0.520934
O4    O     O_R   0.370260 0.499990 0.381220 -0.449499
O5    O     O_R   0.499990 0.680320 0.618770 -0.502395
O6    O     O_R   0.500000 0.680360 0.381190 -0.512703
O7    O     O_R   0.629740 0.500010 0.618780 -0.502432
O8    O     O_R   0.629750 0.500050 0.381200 -0.510607
O9    O     O_3   0.374197 0.368799 0.147786 -0.537370

loop_
_geom_bond_atom_site_label_1
_geom_bond_atom_site_label_2
_ccdc_geom_bond_type
Cu2   O6    S    
Cu1   O5    S    
C35   C36   A    
C35   H9    S    
C7    C8    A    
C15   C19   A    
C14   H21   S    
C30   H16   S    
C26   C27   A    
C29   C30   S    
C12   C28   A    
C29   O9    S    
C24   H1    S    
C23   H5    S    
C2    C32   A    
C34   C35   A    
C20   H23   S    
Cu2   O2    S    
C8    C9    A    
C22   C25   S    
Cu1   O1    S    
C1    O1    A    
C23   C27   A    
C12   C36   A    
C9    C10   A    
C13   H18   S    
C13   C14   S    
C17   O9    S    
C22   O8    A    
C33   C34   A    
C2    H7    S    
C14   H20   S    
C30   H15   S    
Cu2   O8    S    
C31   H6    S    
C9    H12   S    
C16   O6    A    
C24   C25   A    
C6    C11   A    
C4    O4    A    
C25   C26   A    
C1    O2    A    
Cu1   Cu2   S    
C6    C14   S    
C31   C32   A    
C19   N2    A    
C5    C34   A    
C17   C18   A    
C5    H8    S    
C18   H22   S    
Cu2   O4    S    
C28   C33   A    
Cu1   O7    S    
C3    C4    S    
C22   O7    A    
Cu1   N2    S    
Cu2   N1    S    
C29   H13   S    
C1    C7    S    
C16   O5    A    
C3    C5    A    
C4    O3    A    
C6    C7    A    
C30   H17   S    
C12   C24   A    
C32   C33   A    
C19   C20   S    
C2    C3    A    
C10   C16   S    
C17   N1    A    
C11   C13   S    
C18   N2    A    
C21   H2    S    
Cu1   O3    S    
C36   H10   S    
C20   H24   S    
C10   C11   A    
C21   H4    S    
C15   C21   S    
C13   H19   S    
C20   C21   S    
C27   C28   A    
C15   N1    A    
C8    H11   S    
C26   H3    S    
C23   C31   A    
C29   H14   S    
