data_mof_unit_3517.cif
_audit_creation_date              2012-12-10T17:27:57-0500
_audit_creation_method            fapswitch 2.2
_symmetry_space_group_name_H-M    P1
_symmetry_Int_Tables_number       1
_space_group_crystal_system       triclinic
_cell_length_a                    10.69398
_cell_length_b                    12.150814
_cell_length_c                    12.85823
_cell_angle_alpha                 96.193421
_cell_angle_beta                  91.174402
_cell_angle_gamma                 83.246387
_cell_volume                      1649.47616373

loop_
_atom_site_label
_atom_site_type_symbol
_atom_type_description
_atom_site_fract_x
_atom_site_fract_y
_atom_site_fract_z
_atom_type_partial_charge
C1    C     C_R   0.501652 0.525272 0.700674 0.929710
C2    C     C_R   0.448314 0.644979 0.870918 0.118252
C3    C     C_R   0.565696 0.460582 0.865597 -0.182433
C4    C     C_R   0.741521 0.495870 0.493553 0.842375
C5    C     C_R   0.548737 0.460619 0.971082 0.097083
C6    C     C_R   0.482979 0.553316 0.028207 0.120758
C7    C     C_R   0.463616 0.550530 0.133518 -0.244466
C8    C     C_R   0.565978 0.358225 0.122281 0.413837
C9    C     C_R   0.589501 0.365156 0.017595 -0.191178
C10   C     C_R   0.379849 0.950175 0.404880 -0.100353
C11   C     C_R   0.395383 0.836184 0.411081 0.034852
C12   C     C_R   0.961378 0.400003 0.519412 -0.114321
C13   C     C_R   0.547573 0.858468 0.544859 -0.006949
C14   C     C_R   0.539377 0.975614 0.538551 -0.044314
C15   C     C_R   0.455092 0.022870 0.465758 -0.060597
C16   C     C_R   0.503633 0.474646 0.298375 0.895804
C17   C     C_R   0.446785 0.140174 0.456220 0.486476
C18   C     C_R   0.601535 0.161825 0.592399 0.273951
C19   C     C_R   0.610742 0.046319 0.603944 -0.000443
C20   C     C_R   0.260935 0.505896 0.515449 0.975057
C21   C     C_R   0.941512 0.286292 0.501419 0.329891
C22   C     C_R   0.006378 0.210142 0.565844 0.308362
C23   C     C_R   0.878592 0.490907 0.488584 -0.085786
C24   C     C_R   0.092357 0.247919 0.640338 -0.352706
C25   C     C_R   0.128752 0.354141 0.641823 0.417737
C26   C     C_R   0.073960 0.424810 0.568854 -0.101868
C27   C     C_R   0.924449 0.592337 0.479996 -0.235469
C28   C     C_R   0.046414 0.607967 0.508169 0.419052
C29   C     C_R   0.126809 0.518093 0.540911 -0.144328
C30   C     C_R   0.508580 0.456134 0.183824 -0.193853
C31   C     C_R   0.507424 0.547022 0.813524 -0.050799
C32   C     C_R   0.437413 0.647258 0.978868 -0.105594
H1    H     H_    0.863047 0.662682 0.455918 0.215963
H2    H     H_    0.465819 0.771452 0.783554 0.192690
H3    H     H_    0.325929 0.716806 0.768997 0.279112
H4    H     H_    0.273764 0.119536 0.207641 0.401639
H5    H     H_    0.654009 0.220781 0.736432 0.185840
H6    H     H_    0.768763 0.205169 0.647094 0.216590
H7    H     H_    0.758035 0.941253 0.650285 0.281129
H8    H     H_    0.636653 0.968724 0.735807 0.182192
H9    H     H_    0.765569 0.364142 0.298794 0.354982
H10   H     H_    0.082620 0.999658 0.692059 0.367850
H11   H     H_    0.325193 0.254855 0.794025 0.356528
H12   H     H_    0.635814 0.293062 0.970126 0.186892
H13   H     H_    0.225767 0.839845 0.594220 0.374629
H14   H     H_    0.777691 0.106063 0.147537 0.410866
H15   H     H_    0.617871 0.389231 0.822625 0.154396
H16   H     H_    0.306066 0.977081 0.352440 0.239918
H17   H     H_    0.340833 0.782278 0.361034 0.177914
H18   H     H_    0.610367 0.819093 0.600394 0.127127
H19   H     H_    0.134913 0.193061 0.695509 0.188961
H20   H     H_    0.413906 0.623836 0.176676 0.181298
H21   H     H_    0.389243 0.720430 0.023223 0.163702
N1    N     N_R   0.523130 0.207800 0.519340 -0.152685
N2    N     N_R   0.476870 0.792180 0.480660 -0.114038
N3    N     N_3   0.394776 0.740665 0.822617 -0.424533
N4    N     N_3   0.673620 0.232332 0.659371 -0.387722
N5    N     N_3   0.691399 0.003687 0.684512 -0.403860
O1    O     O_R   0.506170 0.421690 0.658830 -0.560492
O2    O     O_2   0.317784 0.305637 0.334259 -0.237784
O3    O     O_3   0.353969 0.108664 0.247184 -0.508270
O4    O     O_2   0.959358 0.140578 0.327825 -0.149143
O5    O     O_2   0.751255 0.199101 0.401232 -0.260785
O6    O     O_3   0.856791 0.338471 0.299477 -0.502832
O7    O     O_2   0.871511 0.038113 0.502428 -0.197103
O8    O     O_2   0.100833 0.004961 0.495976 -0.235169
O9    O     O_3   0.993434 0.026240 0.677799 -0.535567
O10   O     O_2   0.233649 0.522859 0.750627 -0.320222
O11   O     O_2   0.132138 0.398049 0.848669 -0.260904
O12   O     O_R   0.491330 0.609320 0.646410 -0.656181
O13   O     O_3   0.347620 0.322423 0.765538 -0.552956
O14   O     O_2   0.117653 0.773563 0.413691 -0.284057
O15   O     O_2   0.965099 0.820275 0.555424 -0.229744
O16   O     O_3   0.197867 0.767739 0.607201 -0.553120
O17   O     O_2   0.575682 0.203879 0.265939 -0.191269
O18   O     O_2   0.538621 0.143587 0.083193 -0.272908
O19   O     O_3   0.762314 0.186387 0.138112 -0.494315
O20   O     O_R   0.690660 0.406170 0.506210 -0.600522
O21   O     O_R   0.675810 0.593790 0.493790 -0.627278
O22   O     O_R   0.508670 0.390680 0.353590 -0.519256
O23   O     O_R   0.493830 0.578310 0.341170 -0.634130
O24   O     O_R   0.324190 0.406210 0.506210 -0.568563
O25   O     O_R   0.309340 0.593830 0.493790 -0.567417
O26   O     O_2   0.203458 0.171032 0.402264 -0.312379
S1    S     S_3+6 0.329042 0.188925 0.361832 0.088485
S2    S     S_3+6 0.875331 0.237540 0.380426 0.146645
S3    S     S_3+6 0.990920 0.066629 0.556462 0.098285
S4    S     S_3+6 0.210730 0.403930 0.754245 0.031701
S5    S     S_3+6 0.082006 0.746461 0.519555 0.079624
S6    S     S_3+6 0.606963 0.221006 0.157033 0.082484
Zn1   Zn    Zn3+2 0.509910 0.374720 0.508290 1.108615
Zn2   Zn    Zn3+2 0.490090 0.625280 0.491710 0.991401

loop_
_geom_bond_atom_site_label_1
_geom_bond_atom_site_label_2
_ccdc_geom_bond_type
C6    C32   A    
H2    N3    S    
C20   O24   A    
C27   H1    S    
C4    O20   A    
O25   Zn2   S    
O4    S2    D    
C12   C23   A    
C17   S1    S    
O16   S5    S    
C28   C29   A    
C7    H20   S    
C10   C15   A    
C1    O1    A    
C5    C6    A    
C16   C30   S    
C1    C31   S    
C2    C32   A    
C18   C19   A    
O17   S6    D    
O23   Zn2   S    
C8    C9    A    
C28   S5    S    
C23   C27   A    
C24   H19   S    
C7    C30   A    
C21   C22   A    
O6    S2    S    
O7    S3    D    
C20   C29   S    
C19   N5    S    
O19   S6    S    
H8    N5    S    
O26   S1    D    
C4    O21   A    
O8    S3    D    
C4    C23   S    
C25   C26   A    
H7    N5    S    
C12   C21   A    
C25   S4    S    
O24   Zn1   S    
O13   S4    S    
C12   C26   A    
C2    C31   A    
C16   O22   A    
C5    C9    A    
N2    Zn2   S    
C11   H17   S    
H6    N4    S    
C18   N4    S    
O1    Zn1   S    
C22   S3    S    
C24   C25   A    
C3    C31   A    
O21   Zn2   S    
O11   S4    D    
O3    S1    S    
O5    S2    D    
C10   H16   S    
H10   O9    S    
O10   S4    D    
C22   C24   A    
C8    S6    S    
H4    O3    S    
C32   H21   S    
C11   N2    A    
C15   C17   A    
C21   S2    S    
C9    H12   S    
H11   O13   S    
H3    N3    S    
C14   C19   A    
O12   Zn2   S    
C3    C5    A    
H14   O19   S    
O2    S1    D    
C6    C7    A    
O20   Zn1   S    
O9    S3    S    
C1    O12   A    
C8    C30   A    
O22   Zn1   S    
O15   S5    D    
N1    Zn1   S    
C2    N3    S    
O14   S5    D    
C3    H15   S    
C16   O23   A    
C10   C11   A    
C18   N1    A    
C13   H18   S    
C26   C29   A    
C20   O25   A    
C27   C28   A    
C14   C15   A    
H13   O16   S    
H9    O6    S    
C13   C14   A    
C17   N1    A    
H5    N4    S    
O18   S6    D    
C13   N2    A    
