data_mof_unit_385.cif
_audit_creation_date              2012-12-10T20:31:58-0500
_audit_creation_method            fapswitch 2.2
_symmetry_space_group_name_H-M    P1
_symmetry_Int_Tables_number       1
_space_group_crystal_system       triclinic
_cell_length_a                    9.872276
_cell_length_b                    10.679021
_cell_length_c                    15.430223
_cell_angle_alpha                 89.941402
_cell_angle_beta                  68.078181
_cell_angle_gamma                 90.078529
_cell_volume                      1509.12337706

loop_
_atom_site_label
_atom_site_type_symbol
_atom_type_description
_atom_site_fract_x
_atom_site_fract_y
_atom_site_fract_z
_atom_type_partial_charge
C1    C     C_R   0.498454 0.740025 0.502554 0.882639
C2    C     C_R   0.706677 0.376110 0.044776 0.152445
C3    C     C_R   0.569278 0.431427 0.093792 0.093590
C4    C     C_R   0.408854 0.498345 0.676133 0.868761
C5    C     C_R   0.810577 0.367580 0.086718 -0.213020
C6    C     C_R   0.778534 0.413994 0.176758 -0.209670
C7    C     C_R   0.545468 0.487614 0.179729 -0.255862
C8    C     C_R   0.370162 0.936020 0.510955 0.125631
C9    C     C_R   0.489117 0.871493 0.516479 -0.105870
C10   C     C_R   0.595491 0.935403 0.539273 -0.223254
C11   C     C_R   0.595291 0.064910 0.539525 -0.218601
C12   C     C_R   0.400651 0.433678 0.916454 0.106581
C13   C     C_R   0.488795 0.128573 0.516835 -0.105868
C14   C     C_R   0.370033 0.063735 0.511137 0.137180
C15   C     C_3   0.302526 0.071176 0.439180 -0.477843
C16   C     C_R   0.498321 0.260007 0.502688 0.883507
C17   C     C_3   0.302785 0.929238 0.438866 -0.479909
C18   C     C_R   0.882755 0.528564 0.579357 0.223616
C19   C     C_R   0.972081 0.460294 0.424260 -0.142318
C20   C     C_R   0.115864 0.459974 0.424339 -0.135513
C21   C     C_R   0.025144 0.528477 0.579381 0.205960
C22   C     C_3   0.000360 0.648272 0.632456 -0.513736
C23   C     C_R   0.254053 0.465087 0.971462 0.169432
C24   C     C_3   0.846557 0.648517 0.632317 -0.507841
C25   C     C_R   0.590992 0.497796 0.323861 0.868885
C26   C     C_R   0.351549 0.485024 0.777540 -0.072457
C27   C     C_R   0.644475 0.472998 0.223731 -0.059005
C28   C     C_R   0.155642 0.496073 0.928660 -0.218193
C29   C     C_R   0.203695 0.503580 0.831750 -0.198314
C30   C     C_R   0.448349 0.451394 0.820152 -0.236702
C31   C     C_R   0.499500 0.400510 0.959862 0.052694
C32   C     C_R   0.460222 0.431514 0.055143 0.031710
C33   C     C_R   0.312399 0.459136 0.109332 -0.219216
C34   C     C_R   0.209955 0.471397 0.068101 -0.245943
C35   C     C_R   0.635032 0.338243 0.912859 0.070672
C36   C     C_R   0.736529 0.326991 0.955993 -0.296308
H1    H     H_    0.098122 0.493803 0.111431 0.147295
H2    H     H_    0.205321 0.429055 0.362707 0.148153
H3    H     H_    0.002929 0.635392 0.703285 0.194610
H4    H     H_    0.447802 0.541482 0.214965 0.149760
H5    H     H_    0.069665 0.726004 0.591132 0.215051
H6    H     H_    0.760762 0.635944 0.703052 0.200439
H7    H     H_    0.826772 0.726269 0.590660 0.208485
H8    H     H_    0.855389 0.399525 0.210764 0.146318
H9    H     H_    0.839106 0.279411 0.919627 0.152809
H10   H     H_    0.043194 0.519011 0.970041 0.151324
H11   H     H_    0.126992 0.528904 0.799682 0.151114
H12   H     H_    0.914324 0.321573 0.051150 0.145770
H13   H     H_    0.563195 0.447213 0.777838 0.180064
H14   H     H_    0.272438 0.468244 0.184374 0.139045
H15   H     H_    0.677321 0.178917 0.836697 0.195851
H16   H     H_    0.763466 0.307631 0.777811 0.175788
H17   H     H_    0.683310 0.886503 0.550738 0.162370
H18   H     H_    0.682971 0.114145 0.551228 0.172107
H19   H     H_    0.190919 0.111910 0.467800 0.206109
H20   H     H_    0.376910 0.113064 0.372233 0.203612
H21   H     H_    0.191271 0.888028 0.467062 0.201321
H22   H     H_    0.377394 0.888328 0.371757 0.204141
H23   H     H_    0.953849 0.430257 0.362565 0.141443
N1    N     N_R   0.856900 0.500860 0.500610 -0.103247
N2    N     N_R   0.142540 0.500820 0.500610 -0.102352
N3    N     N_3   0.664395 0.274180 0.826136 -0.471587
O1    O     O_R   0.385310 0.683210 0.499990 -0.613280
O2    O     O_R   0.614650 0.683240 0.500000 -0.616925
O3    O     O_R   0.319830 0.499970 0.632240 -0.614103
O4    O     O_R   0.549170 0.500000 0.632250 -0.619225
O5    O     O_R   0.385350 0.316760 0.500000 -0.612129
O6    O     O_R   0.614690 0.316790 0.500010 -0.619024
O7    O     O_R   0.450830 0.500000 0.367750 -0.621599
O8    O     O_R   0.680170 0.500030 0.367760 -0.615968
Zn1   Zn    Zn3+2 0.346870 0.499980 0.499990 0.939126
Zn2   Zn    Zn3+2 0.653130 0.500020 0.500010 0.939475

loop_
_geom_bond_atom_site_label_1
_geom_bond_atom_site_label_2
_ccdc_geom_bond_type
C4    C26   S    
C7    H4    S    
O4    Zn2   S    
C16   O6    A    
C19   N1    A    
C25   C27   S    
C34   H1    S    
C20   H2    S    
C9    C10   A    
C21   N2    A    
C8    C17   S    
C6    C27   A    
C17   H22   S    
O6    Zn2   S    
C23   C34   A    
C12   C30   A    
C32   C33   A    
N2    Zn1   S    
C17   H21   S    
C2    C3    A    
C1    C9    S    
C36   H9    S    
C16   O5    A    
C6    H8    S    
C23   C28   A    
C15   H20   S    
C4    O4    A    
C24   H6    S    
C11   C13   A    
C12   C23   A    
C28   H10   S    
C3    C32   A    
H15   N3    S    
C35   C36   A    
C29   H11   S    
C18   C24   S    
C22   H3    S    
C1    O1    A    
C22   C24   S    
C21   C22   S    
C28   C29   A    
C30   H13   S    
O1    Zn1   S    
C33   C34   A    
C35   N3    S    
O5    Zn1   S    
O2    Zn2   S    
C12   C31   A    
C4    O3    A    
C5    H12   S    
C31   C35   A    
C13   C16   S    
C22   H5    S    
C25   O7    A    
C10   C11   A    
N1    Zn2   S    
C2    C36   A    
C18   C21   A    
C1    O2    A    
C7    C27   A    
C10   H17   S    
C26   C29   A    
C15   C17   S    
C5    C6    A    
C11   H18   S    
C18   N1    A    
C20   N2    A    
O7    Zn1   S    
C24   H7    S    
C14   C15   S    
O8    Zn2   S    
C25   O8    A    
C8    C14   A    
C3    C7    A    
C19   H23   S    
C33   H14   S    
C13   C14   A    
H16   N3    S    
C31   C32   A    
C2    C5    A    
C19   C20   A    
O3    Zn1   S    
C8    C9    A    
C26   C30   A    
C15   H19   S    
