data_mof_unit_266.cif
_audit_creation_date              2013-03-05T15:40:16-0500
_audit_creation_method            fapswitch 2.2
_symmetry_space_group_name_H-M    P1
_symmetry_Int_Tables_number       1
_space_group_crystal_system       triclinic
_cell_length_a                    10.808344
_cell_length_b                    8.689222
_cell_length_c                    7.423685
_cell_angle_alpha                 103.080958
_cell_angle_beta                  93.509527
_cell_angle_gamma                 92.846488
_cell_volume                      676.390372119

loop_
_atom_site_label
_atom_site_type_symbol
_atom_site_description
_atom_site_fract_x
_atom_site_fract_y
_atom_site_fract_z
_atom_type_partial_charge
O1    O     O_R   0.509050 0.286130 0.619770 -0.583902
O2    O     O_R   0.485540 0.256780 0.308360 -0.577940
C1    C     C_R   0.495900 0.199569 0.453108 0.892042
O3    O     O_R   0.331410 0.514680 0.655740 -0.617836
O4    O     O_R   0.307900 0.485330 0.344330 -0.594145
C2    C     C_R   0.261678 0.499202 0.504828 0.771858
Cu1   Cu    Cu3+1 0.513920 0.517380 0.684380 0.997753
Cu2   Cu    Cu3+1 0.486080 0.482620 0.315620 0.969353
O5    O     O_R   0.514460 0.743220 0.691640 -0.544034
O6    O     O_R   0.490950 0.713870 0.380230 -0.598188
O7    O     O_R   0.692100 0.514670 0.655670 -0.570707
O8    O     O_R   0.668590 0.485320 0.344260 -0.588721
C3    C     C_R   0.501816 0.800285 0.546968 0.947651
C4    C     C_R   0.737473 0.514461 0.498904 0.864438
H1    H     H_    0.094520 0.388416 0.223376 0.169704
C5    C     C_R   0.130919 0.617103 0.860237 -0.175204
H2    H     H_    0.218108 0.573766 0.895976 0.184953
C6    C     C_R   0.075414 0.707530 0.009242 -0.221257
H3    H     H_    0.123138 0.735123 0.146410 0.173123
C7    C     C_R   0.962274 0.769754 0.980676 -0.185234
H4    H     H_    0.926325 0.851812 0.094870 0.188730
C8    C     C_R   0.898289 0.731270 0.804995 0.348930
C9    C     C_R   0.945407 0.617475 0.659578 -0.005452
C10   C     C_R   0.070261 0.578835 0.678979 0.057433
C11   C     C_R   0.127057 0.504343 0.515443 -0.089908
C12   C     C_R   0.054016 0.447357 0.348598 -0.199651
H5    H     H_    0.872292 0.400636 0.215110 0.178863
C13   C     C_R   0.927252 0.458341 0.341561 -0.189152
C14   C     C_R   0.871667 0.537949 0.497270 -0.076072
C15   C     C_2   0.493315 0.031577 0.426732 -0.363029
H6    H     H_    0.484054 0.959754 0.285520 0.185221
C16   C     C_2   0.502611 0.968178 0.573366 -0.286102
H7    H     H_    0.511928 0.039978 0.714577 0.190948
N1    N     N_2   0.465100 0.456430 0.038520 -0.230102
H8    H     H_    0.402204 0.378567 0.948700 0.218122
N2    N     N_2   0.534900 0.543570 0.961480 -0.211006
H9    H     H_    0.597872 0.621370 0.051258 0.249845
N3    N     N_R   0.796536 0.823423 0.769781 0.107822
O9    O     O_R   0.783870 0.864811 0.612108 -0.405745
O10   O     O_R   0.733541 0.893047 0.905589 -0.383403

loop_
_geom_bond_atom_site_label_1
_geom_bond_atom_site_label_2
_geom_bond_distance
_ccdc_geom_bond_type
O4    Cu2   1.951226 S    
C15   C16   1.327439 D    
C9    C10   1.413374 A    
Cu1   O7    1.951227 S    
C1    C15   1.426809 S    
Cu1   N2    2.015129 S    
C3    C16   1.426843 S    
N1    N2    1.289060 D    
Cu2   O8    1.969474 S    
C16   H7    1.087708 S    
O2    C1    1.283337 A    
Cu1   Cu2   2.681760 S    
C5    C10   1.420861 A    
C5    C6    1.391232 A    
Cu2   N1    2.015128 S    
C10   C11   1.429931 A    
N3    O10   1.301885 A    
C15   H6    1.087784 S    
O3    Cu1   1.969473 S    
C9    C14   1.419650 A    
O3    C2    1.288258 A    
C13   C14   1.392832 A    
C7    C8    1.400077 A    
C6    H3    1.083226 S    
C6    C7    1.385096 A    
O4    C2    1.302924 A    
O7    C4    1.289921 A    
C2    C11   1.464314 S    
C4    C14   1.455804 S    
C8    N3    1.437380 S    
N3    O9    1.301544 A    
C7    H4    1.082715 S    
Cu2   O6    1.954632 S    
N1    H8    1.029127 S    
H5    C13   1.083784 S    
Cu1   O5    1.950588 S    
O5    C3    1.283685 A    
C8    C9    1.427085 A    
N2    H9    1.029212 S    
H1    C12   1.083836 S    
C11   C12   1.402285 A    
O1    Cu1   1.954633 S    
C12   C13   1.376781 A    
O2    Cu2   1.950590 S    
O8    C4    1.296703 A    
C5    H2    1.072435 S    
O1    C1    1.289702 A    
O6    C3    1.289385 A    
