data_mof_unit_4212.cif
_audit_creation_date              2012-12-10T17:45:27-0500
_audit_creation_method            fapswitch 2.2
_symmetry_space_group_name_H-M    P1
_symmetry_Int_Tables_number       1
_space_group_crystal_system       triclinic
_cell_length_a                    11.497165
_cell_length_b                    10.637287
_cell_length_c                    10.054346
_cell_angle_alpha                 91.625396
_cell_angle_beta                  89.281443
_cell_angle_gamma                 93.128779
_cell_volume                      1227.23151225

loop_
_atom_site_label
_atom_site_type_symbol
_atom_type_description
_atom_site_fract_x
_atom_site_fract_y
_atom_site_fract_z
_atom_type_partial_charge
C1    C     C_R   0.498309 0.261065 0.498334 0.933637
C2    C     C_R   0.498377 0.871662 0.505757 -0.284975
C3    C     C_R   0.310826 0.372331 0.129871 0.091456
C4    C     C_R   0.282459 0.499410 0.500802 0.846330
C5    C     C_R   0.205364 0.362050 0.059344 0.496282
C6    C     C_R   0.211905 0.350215 0.920617 0.066677
C7    C     C_R   0.319215 0.374254 0.857868 -0.199994
C8    C     C_R   0.411359 0.436745 0.926625 0.034444
C9    C     C_R   0.409221 0.437282 0.069723 0.008634
C10   C     C_R   0.586347 0.562277 0.072425 0.199534
C11   C     C_R   0.582775 0.567648 0.929618 0.245464
C12   C     C_R   0.188362 0.048526 0.607969 -0.123509
C13   C     C_R   0.500518 0.738948 0.501630 0.931238
C14   C     C_R   0.717530 0.500208 0.499404 0.900325
C15   C     C_1   0.161869 0.500502 0.502855 -0.184374
C16   C     C_1   0.059520 0.501792 0.503161 -0.019014
C17   C     C_1   0.940755 0.502965 0.501078 -0.036738
C18   C     C_1   0.838344 0.502496 0.499092 -0.213301
C19   C     C_R   0.288181 0.119072 0.569228 -0.191879
C20   C     C_3   0.770122 0.176872 0.489721 -0.256349
C21   C     C_3   0.107163 0.305294 0.840818 -0.817090
C22   C     C_3   0.670048 0.654973 0.860275 -0.846720
C23   C     C_R   0.190552 0.917982 0.617125 0.262366
C24   C     C_3   0.083696 0.840847 0.658626 -0.954330
C25   C     C_3   0.761283 0.844105 0.522424 -0.331398
C26   C     C_3   0.689321 0.622959 0.146871 -0.757621
C27   C     C_3   0.327158 0.258700 0.212118 -0.692119
C28   C     C_3   0.043970 0.432378 0.159605 -0.283387
C29   C     C_R   0.293294 0.858656 0.585169 -0.134112
C30   C     C_R   0.395093 0.929045 0.544519 -0.009732
C31   C     C_R   0.392785 0.060040 0.537967 0.033362
C32   C     C_R   0.494211 0.128109 0.494988 -0.294545
C33   C     C_R   0.595315 0.069949 0.453794 0.425067
C34   C     C_R   0.598161 0.940680 0.460860 0.425924
H1    H     H_    0.329041 0.344337 0.756421 0.221522
H2    H     H_    0.126879 0.304423 0.732471 0.213770
H3    H     H_    0.650475 0.668657 0.756679 0.285215
H4    H     H_    0.668228 0.751231 0.905653 0.214809
H5    H     H_    0.758779 0.619287 0.866154 0.225306
H6    H     H_    0.009881 0.900995 0.682866 0.232858
H7    H     H_    0.056933 0.773913 0.576577 0.247313
H8    H     H_    0.102806 0.786910 0.748005 0.254301
H9    H     H_    0.853699 0.840326 0.490419 0.203667
H10   H     H_    0.758025 0.908570 0.611628 0.132172
H11   H     H_    0.731133 0.748442 0.551369 0.161938
H12   H     H_    0.281762 0.219526 0.560787 0.112102
H13   H     H_    0.747547 0.548632 0.174922 0.233187
H14   H     H_    0.744985 0.690596 0.090083 0.207926
H15   H     H_    0.660183 0.677812 0.234414 0.298256
H16   H     H_    0.269595 0.176688 0.178593 0.218293
H17   H     H_    0.416103 0.225126 0.196967 0.240002
H18   H     H_    0.302937 0.277145 0.317285 0.239791
H19   H     H_    0.014949 0.480311 0.069882 0.151512
H20   H     H_    0.098536 0.499590 0.222399 0.167700
H21   H     H_    0.964990 0.403716 0.218137 0.204619
H22   H     H_    0.108884 0.095658 0.629259 0.131166
H23   H     H_    0.291986 0.757344 0.591207 0.148924
H24   H     H_    0.818995 0.096550 0.522121 0.170565
H25   H     H_    0.731040 0.226064 0.577213 0.138953
H26   H     H_    0.834747 0.243521 0.443113 0.192002
H27   H     H_    0.077958 0.208577 0.869756 0.256538
H28   H     H_    0.035222 0.369211 0.859030 0.243504
N1    N     N_R   0.498930 0.498800 0.142780 -0.111962
N2    N     N_R   0.498900 0.498720 0.857170 -0.114494
O1    O     O_R   0.500000 0.316780 0.614690 -0.636105
O2    O     O_3   0.696066 0.882394 0.413916 -0.580937
O3    O     O_3   0.103439 0.323802 0.124302 -0.593439
O4    O     O_R   0.499990 0.316750 0.385360 -0.591313
O5    O     O_R   0.334450 0.500030 0.614670 -0.632145
O6    O     O_R   0.334440 0.500000 0.385330 -0.608641
O7    O     O_R   0.500010 0.683250 0.614640 -0.641153
O8    O     O_R   0.500000 0.683220 0.385310 -0.599847
O9    O     O_R   0.665560 0.500000 0.614670 -0.624870
O10   O     O_R   0.665550 0.499970 0.385330 -0.602866
O11   O     O_3   0.686486 0.138303 0.393452 -0.563500
Zn1   Zn    Zn3+2 0.500010 0.500020 0.653130 0.923964
Zn2   Zn    Zn3+2 0.499990 0.499980 0.346870 0.959848

loop_
_geom_bond_atom_site_label_1
_geom_bond_atom_site_label_2
_ccdc_geom_bond_type
C25   H11   S    
C24   H8    S    
C14   C18   S    
C10   N1    A    
C5    O3    S    
C19   C31   A    
C25   H9    S    
C4    O6    A    
C19   H12   S    
C7    C8    A    
C21   H2    S    
C12   C23   A    
O8    Zn2   S    
O1    Zn1   S    
C14   O10   A    
C30   C31   A    
C15   C16   T    
C22   H4    S    
C1    O4    A    
O5    Zn1   S    
C2    C13   S    
C33   O11   S    
C8    C9    A    
O10   Zn2   S    
C1    O1    A    
C23   C24   S    
C20   H26   S    
C21   H27   S    
C27   H16   S    
C26   H14   S    
C10   C26   S    
O6    Zn2   S    
C24   H7    S    
C34   O2    S    
C25   H10   S    
C4    O5    A    
C28   H21   S    
C27   H17   S    
C33   C34   A    
C14   O9    A    
C28   O3    S    
C11   N2    A    
C26   H15   S    
C28   H20   S    
C16   C17   S    
C13   O7    A    
C22   H3    S    
C1    C32   S    
C20   O11   S    
C29   C30   A    
C3    C9    A    
C31   C32   A    
C17   C18   T    
N2    Zn1   S    
C20   H25   S    
C21   H28   S    
C12   H22   S    
C26   H13   S    
C8    N2    A    
C29   H23   S    
O9    Zn1   S    
C20   H24   S    
C23   C29   A    
O7    Zn1   S    
C27   H18   S    
N1    Zn2   S    
O4    Zn2   S    
C9    N1    A    
C7    H1    S    
C25   O2    S    
C3    C5    A    
C28   H19   S    
C6    C7    A    
C13   O8    A    
C11   C22   S    
C2    C30   A    
C32   C33   A    
C4    C15   S    
C3    C27   S    
C6    C21   S    
C2    C34   A    
C5    C6    A    
C22   H5    S    
C12   C19   A    
C24   H6    S    
C10   C11   A    
