data_mof_unit_2023.cif
_audit_creation_date              2012-12-11T14:21:00-0500
_audit_creation_method            fapswitch 2.2
_symmetry_space_group_name_H-M    P1
_symmetry_Int_Tables_number       1
_space_group_crystal_system       triclinic
_cell_length_a                    11.547733
_cell_length_b                    11.667501
_cell_length_c                    19.458915
_cell_angle_alpha                 90.005987
_cell_angle_beta                  89.277606
_cell_angle_gamma                 59.67965
_cell_volume                      2262.90392549

loop_
_atom_site_label
_atom_site_type_symbol
_atom_type_description
_atom_site_fract_x
_atom_site_fract_y
_atom_site_fract_z
_atom_type_partial_charge
C1    C     C_R   0.640412 0.117028 0.599132 0.556519
C2    C     C_1   0.652754 0.149464 0.668494 0.002057
C3    C     C_R   0.690652 0.601993 0.204072 -0.006945
C4    C     C_R   0.612584 0.745496 0.598340 0.558735
C5    C     C_R   0.574436 0.628200 0.240018 0.041446
C6    C     C_R   0.521047 0.729731 0.288231 0.026007
C7    C     C_R   0.740256 0.710627 0.294374 -0.143652
C8    C     C_R   0.776399 0.640962 0.232566 -0.142973
C9    C     C_R   0.516266 0.549062 0.233152 -0.088074
C10   C     C_R   0.400490 0.579635 0.270414 -0.135622
C11   C     C_R   0.330581 0.699665 0.305223 -0.113003
C12   C     C_1   0.641016 0.703095 0.667687 0.002894
C13   C     C_R   0.387428 0.779396 0.310003 -0.076998
C14   C     C_R   0.611324 0.757093 0.322539 -0.014292
C15   C     C_R   0.141816 0.195761 0.194312 -0.032187
C16   C     C_R   0.240396 0.145377 0.597812 0.541660
C17   C     C_R   0.176172 0.279590 0.229854 0.034456
C18   C     C_R   0.154886 0.290670 0.301319 -0.017235
C19   C     C_R   0.126567 0.100014 0.304156 0.092210
C20   C     C_R   0.117187 0.106230 0.232173 -0.148930
C21   C     C_R   0.211537 0.367080 0.196886 0.187747
C22   C     C_R   0.180233 0.485029 0.230804 -0.134386
C23   C     C_1   0.127853 0.199352 0.859613 0.004282
C24   C     C_R   0.136607 0.505929 0.299293 -0.172319
C25   C     C_R   0.124350 0.409858 0.334262 -0.093791
C26   C     C_R   0.161978 0.183217 0.338053 0.016488
C27   C     C_R   0.648328 0.161196 0.179943 -0.021284
C28   C     C_R   0.624045 0.083375 0.393830 0.530668
C29   C     C_R   0.728577 0.031681 0.204537 0.042050
C30   C     C_R   0.744190 0.013709 0.276152 0.026364
C31   C     C_R   0.532772 0.222061 0.289648 -0.152566
C32   C     C_R   0.541734 0.251181 0.220939 -0.174853
C33   C     C_R   0.809996 0.925678 0.159487 -0.067450
C34   C     C_1   0.170872 0.170327 0.727687 -0.031061
C35   C     C_R   0.931188 0.823138 0.182182 -0.106905
C36   C     C_R   0.964708 0.822534 0.250306 -0.158122
C37   C     C_R   0.869460 0.909044 0.298229 -0.132563
C38   C     C_R   0.638559 0.107987 0.320113 -0.015082
C39   C     C_R   0.082173 0.231407 0.928939 0.540347
C40   C     C_R   0.583881 0.799102 0.394420 0.532432
C41   C     C_R   0.683767 0.605027 0.929766 0.554275
C42   C     C_R   0.708216 0.206950 0.930298 0.539168
C43   C     C_R   0.082808 0.235380 0.125592 0.543901
C44   C     C_R   0.708390 0.553516 0.133792 0.545697
C45   C     C_1   0.150812 0.182587 0.799069 -0.031299
C46   C     C_R   0.701081 0.205619 0.122202 0.517492
C47   C     C_R   0.237446 0.144872 0.403320 0.523835
C48   C     C_1   0.670966 0.647083 0.860323 0.002131
C49   C     C_1   0.654881 0.683156 0.728260 -0.031490
C50   C     C_1   0.663985 0.666883 0.799676 -0.031647
C51   C     C_3   0.979913 0.087681 0.390713 -0.271435
C52   C     C_3   0.368499 0.207793 0.107656 -0.279172
C53   C     C_1   0.194114 0.160855 0.667101 0.004938
C54   C     C_1   0.678318 0.191550 0.861006 0.004124
C55   C     C_1   0.658235 0.167187 0.728997 -0.031040
C56   C     C_1   0.665345 0.181067 0.800474 -0.030330
Cr1   Cr    Cr6+3 0.404720 0.198220 0.499960 1.018805
Cr2   Cr    Cr6+3 0.698290 0.897110 0.500380 1.007664
Cr3   Cr    Cr6+3 0.396970 0.904720 0.499610 1.023737
Cr4   Cr    Cr6+3 0.926180 0.151990 0.028120 1.016055
Cr5   Cr    Cr6+3 0.921330 0.451820 0.027470 1.026549
Cr6   Cr    Cr6+3 0.626260 0.446870 0.028710 1.011984
H1    H     H_    0.814185 0.723405 0.321145 0.151883
H2    H     H_    0.902160 0.895917 0.350407 0.147601
H3    H     H_    0.568472 0.458592 0.204187 0.137351
H4    H     H_    0.872036 0.613871 0.208590 0.158593
H5    H     H_    0.367779 0.509463 0.274466 0.112817
H6    H     H_    0.239272 0.725402 0.333289 0.102351
H7    H     H_    0.336984 0.868157 0.340143 0.183104
H8    H     H_    0.082580 0.046868 0.206467 0.154043
H9    H     H_    0.081103 0.950504 0.312639 0.243596
H10   H     H_    0.968968 0.014430 0.422242 0.156568
H11   H     H_    0.885185 0.150626 0.362779 0.156437
H12   H     H_    0.194322 0.558639 0.204350 0.097751
H13   H     H_    0.998283 0.150656 0.426509 0.154396
H14   H     H_    0.286011 0.415913 0.108261 0.238592
H15   H     H_    0.323973 0.176339 0.066876 0.160490
H16   H     H_    0.458666 0.204408 0.084884 0.129246
H17   H     H_    0.400292 0.136521 0.150907 0.145279
H18   H     H_    0.118809 0.592449 0.327858 0.104692
H19   H     H_    0.089164 0.430025 0.387173 0.145701
H20   H     H_    0.446350 0.292540 0.319700 0.156954
H21   H     H_    0.788395 0.931386 0.105144 0.122881
H22   H     H_    0.467149 0.343729 0.199407 0.134431
H23   H     H_    0.002537 0.750434 0.146100 0.110558
H24   H     H_    0.065706 0.757321 0.265409 0.098766
N1    N     N_2   0.090377 0.018297 0.342214 -0.531195
N2    N     N_2   0.272687 0.342414 0.129696 -0.492545
O1    O     O_R   0.267740 0.231960 0.575440 -0.504656
O2    O     O_R   0.596130 0.579390 0.952730 -0.500158
O3    O     O_R   0.639060 0.321160 0.958670 -0.496500
O4    O     O_R   0.527280 0.186640 0.570530 -0.483802
O5    O     O_R   0.821240 0.124200 0.104370 -0.513293
O6    O     O_R   0.036890 0.167040 0.097840 -0.510244
O7    O     O_R   0.056180 0.349610 0.102880 -0.485014
O8    O     O_R   0.797660 0.564870 0.097950 -0.503617
O9    O     O_R   0.595880 0.584250 0.104270 -0.509809
O10   O     O_R   0.638830 0.325670 0.099150 -0.531219
O11   O     O_3   0.824590 0.350230 0.028100 -0.270240
O12   O     O_R   0.685970 0.784660 0.430010 -0.511689
O13   O     O_R   0.728090 0.003450 0.576380 -0.503697
O14   O     O_R   0.682970 0.789190 0.570490 -0.489316
O15   O     O_R   0.499290 0.771880 0.575530 -0.496313
O16   O     O_R   0.285330 0.030870 0.569730 -0.493071
O17   O     O_R   0.270980 0.227080 0.423890 -0.537261
O18   O     O_R   0.530280 0.182120 0.430050 -0.491151
O19   O     O_R   0.731330 0.998570 0.424830 -0.546209
O20   O     O_R   0.502530 0.767000 0.423990 -0.504856
O21   O     O_R   0.288330 0.026350 0.429250 -0.507210
O22   O     O_3   0.499990 0.000020 0.499980 -0.286336
O23   O     O_R   0.821500 0.119340 0.952830 -0.508803
O24   O     O_R   0.037130 0.162530 0.957360 -0.491808
O25   O     O_R   0.056440 0.344740 0.951340 -0.504389
O26   O     O_R   0.797900 0.560360 0.957470 -0.489685

loop_
_geom_bond_atom_site_label_1
_geom_bond_atom_site_label_2
_ccdc_geom_bond_type
Cr1   O17   S    
C55   C56   S    
C8    H4    S    
C23   C45   T    
Cr1   O4    S    
C27   C29   A    
C11   C13   A    
C19   C20   A    
C18   C26   A    
C41   O26   A    
Cr4   O11   S    
Cr3   O22   S    
C12   C49   T    
Cr5   O8    S    
C7    C8    A    
C10   H5    S    
C31   H20   S    
Cr1   O1    S    
Cr4   O24   S    
Cr3   O16   S    
C36   C37   A    
C51   H13   S    
C1    C2    S    
C19   N1    S    
C2    C55   T    
C5    C6    A    
C28   O19   A    
C4    O15   A    
C29   C33   A    
C43   O6    A    
C30   C38   A    
Cr2   O19   S    
C19   C26   A    
C16   C53   S    
Cr3   O21   S    
Cr6   O10   S    
C16   O16   A    
C7    C14   A    
Cr1   O22   S    
C28   O18   A    
C39   O25   A    
C4    O14   A    
C43   O7    A    
Cr2   O14   S    
C4    C12   S    
C52   H17   S    
C9    C10   A    
H14   N2    S    
C40   O20   A    
Cr4   O5    S    
C48   C50   T    
C41   O2    A    
C46   O10   A    
C21   N2    S    
C16   O1    A    
C21   C22   A    
C25   H19   S    
C20   H8    S    
Cr5   O11   S    
C18   C25   A    
C52   H16   S    
C24   H18   S    
C15   C20   A    
C32   H22   S    
C54   C56   T    
C3    C44   S    
C52   N2    S    
Cr2   O12   S    
C24   C25   A    
C3    C8    A    
C51   N1    S    
C34   C45   S    
C36   H24   S    
C47   O21   A    
C17   C21   A    
C30   C37   A    
C35   C36   A    
C42   O23   A    
C5    C9    A    
C29   C30   A    
C44   O8    A    
C6    C14   A    
Cr6   O9    S    
C44   O9    A    
C31   C32   A    
C28   C38   S    
Cr6   O3    S    
C17   C18   A    
Cr2   O13   S    
C33   H21   S    
C7    H1    S    
C26   C47   S    
H9    N1    S    
C27   C46   S    
C39   O24   A    
C1    O4    A    
Cr5   O25   S    
C22   C24   A    
C51   H10   S    
C22   H12   S    
C52   H15   S    
C1    O13   A    
C37   H2    S    
C11   H6    S    
C15   C17   A    
C27   C32   A    
Cr2   O22   S    
C51   H11   S    
C3    C5    A    
C40   O12   A    
Cr5   O7    S    
Cr3   O20   S    
C31   C38   A    
Cr3   O15   S    
C15   C43   S    
Cr4   O23   S    
C42   C54   S    
C6    C13   A    
C35   H23   S    
C46   O5    A    
C13   H7    S    
C23   C39   S    
Cr6   O2    S    
C33   C35   A    
C41   C48   S    
Cr1   O18   S    
C9    H3    S    
C10   C11   A    
C14   C40   S    
Cr6   O11   S    
C34   C53   T    
C49   C50   S    
Cr5   O26   S    
C47   O17   A    
C42   O3    A    
Cr4   O6    S    
