data_mof_unit_2531.cif
_audit_creation_date              2012-12-11T15:29:32-0500
_audit_creation_method            fapswitch 2.2
_symmetry_space_group_name_H-M    P1
_symmetry_Int_Tables_number       1
_space_group_crystal_system       triclinic
_cell_length_a                    13.489799
_cell_length_b                    13.496914
_cell_length_c                    27.560708
_cell_angle_alpha                 90.627343
_cell_angle_beta                  90.048652
_cell_angle_gamma                 60.044426
_cell_volume                      4347.33394886

loop_
_atom_site_label
_atom_site_type_symbol
_atom_type_description
_atom_site_fract_x
_atom_site_fract_y
_atom_site_fract_z
_atom_type_partial_charge
C1    C     C_R   0.620365 0.101275 0.569857 0.546848
C2    C     C_1   0.631340 0.731677 0.615879 -0.016532
C3    C     C_3   0.699624 0.560726 0.766911 -0.101472
C4    C     C_3   0.679616 0.654368 0.804376 0.052768
C5    C     C_3   0.590407 0.648099 0.739938 -0.099186
C6    C     C_3   0.663725 0.682928 0.709922 0.052766
C7    C     C_3   0.570616 0.741275 0.778133 -0.102025
C8    C     C_3   0.643735 0.776581 0.747379 -0.102985
C9    C     C_1   0.688379 0.633561 0.856588 -0.059313
C10   C     C_1   0.649794 0.704346 0.657772 -0.059043
C11   C     C_3   0.090778 0.132966 0.737269 -0.101851
C12   C     C_R   0.599766 0.779243 0.568435 0.547092
C13   C     C_3   0.182841 0.059282 0.775132 -0.100403
C14   C     C_1   0.097837 0.199837 0.900290 -0.016322
C15   C     C_1   0.229473 0.137879 0.617047 -0.016438
C16   C     C_3   0.055562 0.241260 0.768887 -0.101386
C17   C     C_3   0.148057 0.167407 0.805893 0.052753
C18   C     C_3   0.144197 0.262199 0.742161 -0.099076
C19   C     C_3   0.179016 0.154194 0.711318 0.052634
C20   C     C_3   0.236220 0.188608 0.779872 -0.101873
C21   C     C_3   0.271542 0.080295 0.748299 -0.102958
C22   C     C_1   0.125637 0.180590 0.858206 -0.058977
C23   C     C_R   0.277690 0.121720 0.569357 0.546071
C24   C     C_1   0.201507 0.146704 0.659063 -0.059112
C25   C     C_3   0.628993 0.276777 0.739043 -0.101735
C26   C     C_3   0.554946 0.258131 0.776866 -0.100032
C27   C     C_1   0.691515 0.206485 0.901425 -0.015950
C28   C     C_1   0.635623 0.133488 0.617773 -0.016459
C29   C     C_3   0.736960 0.204126 0.769994 -0.101421
C30   C     C_3   0.662755 0.185208 0.806976 0.052848
C31   C     C_3   0.758607 0.094449 0.742472 -0.099239
C32   C     C_3   0.650891 0.167247 0.712296 0.052608
C33   C     C_3   0.684645 0.075750 0.780177 -0.102070
C34   C     C_R   0.621681 0.099859 0.431351 0.539954
C35   C     C_3   0.576649 0.148334 0.749254 -0.103022
C36   C     C_1   0.674451 0.195611 0.859325 -0.058773
C37   C     C_1   0.643949 0.152460 0.659934 -0.059149
C38   C     C_R   0.627317 0.744263 0.378830 -0.020278
C39   C     C_R   0.687183 0.785574 0.352000 -0.152742
C40   C     C_R   0.692836 0.775536 0.302057 -0.189556
C41   C     C_R   0.638973 0.723932 0.277942 0.041904
C42   C     C_R   0.578269 0.681829 0.304233 0.280927
C43   C     C_R   0.575119 0.690387 0.355031 -0.117795
C44   C     C_R   0.558368 0.737636 0.195636 -0.079206
C45   C     C_R   0.599733 0.780795 0.429304 0.542137
C46   C     C_R   0.575439 0.701953 0.147395 -0.129510
C47   C     C_R   0.780292 0.622233 0.157229 -0.126184
C48   C     C_R   0.763310 0.655995 0.205548 -0.122046
C49   C     C_R   0.652905 0.708492 0.225451 0.062264
C50   C     C_R   0.687056 0.638987 0.128749 0.020869
C51   C     C_R   0.231456 0.134145 0.382393 -0.014096
C52   C     C_R   0.271144 0.037892 0.351903 -0.145937
C53   C     C_R   0.247479 0.051089 0.302824 -0.179504
C54   C     C_R   0.182684 0.160561 0.283468 0.047920
C55   C     C_R   0.137328 0.258427 0.313967 0.280711
C56   C     C_R   0.279885 0.119533 0.430802 0.543631
C57   C     C_R   0.161861 0.243578 0.363884 -0.119780
C58   C     C_R   0.126373 0.103745 0.207174 -0.127782
C59   C     C_R   0.098369 0.120533 0.158386 -0.128865
C60   C     C_R   0.151464 0.267812 0.155957 -0.131346
C61   C     C_R   0.181054 0.249715 0.204711 -0.080200
C62   C     C_R   0.163714 0.171228 0.230996 0.066330
C63   C     C_R   0.105783 0.206305 0.132994 0.021344
C64   C     C_R   0.639490 0.137320 0.384173 0.023386
C65   C     C_R   0.545863 0.227614 0.360764 -0.125171
C66   C     C_R   0.551980 0.245671 0.311719 -0.120715
C67   C     C_3   0.772820 0.595952 0.736104 -0.101572
C68   C     C_R   0.652597 0.175735 0.285579 0.041349
C69   C     C_R   0.749114 0.091122 0.309700 -0.117756
C70   C     C_R   0.742473 0.071602 0.358714 -0.132989
C71   C     C_R   0.712226 0.093678 0.202378 -0.121487
C72   C     C_R   0.725388 0.107453 0.153337 -0.127473
C73   C     C_R   0.617036 0.313600 0.164405 -0.123200
C74   C     C_R   0.605815 0.299794 0.213503 -0.115961
C75   C     C_R   0.656086 0.189866 0.233071 0.032504
C76   C     C_R   0.681000 0.217542 0.134475 0.022445
C77   C     C_R   0.049966 0.234754 0.947991 0.545009
C78   C     C_3   0.753059 0.689172 0.774434 -0.100320
C79   C     C_R   0.711993 0.561824 0.946420 0.544279
C80   C     C_R   0.722567 0.224016 0.949134 0.544639
C81   C     C_R   0.048159 0.243593 0.086254 0.544740
C82   C     C_R   0.708606 0.573439 0.083841 0.543426
C83   C     C_R   0.719487 0.233101 0.087249 0.542097
C84   C     C_1   0.697364 0.607369 0.898631 -0.016407
Cr1   Cr    Cr6+3 0.417550 0.169090 0.500530 1.018142
Cr2   Cr    Cr6+3 0.669180 0.913420 0.499920 1.016729
Cr3   Cr    Cr6+3 0.413260 0.917540 0.499520 1.020746
Cr4   Cr    Cr6+3 0.909770 0.175810 0.018240 1.020213
Cr5   Cr    Cr6+3 0.913300 0.427650 0.016090 1.020833
Cr6   Cr    Cr6+3 0.657770 0.431010 0.016900 1.021683
H1    H     H_    0.819526 0.706500 0.789258 0.103932
H2    H     H_    0.296240 0.211042 0.797821 0.103098
H3    H     H_    0.127840 0.345759 0.728066 0.104087
H4    H     H_    0.966357 0.307825 0.777951 0.099336
H5    H     H_    0.471139 0.325046 0.791621 0.104187
H6    H     H_    0.606622 0.359133 0.721657 0.102573
H7    H     H_    0.510424 0.125307 0.740095 0.100504
H8    H     H_    0.707082 0.993333 0.797524 0.103018
H9    H     H_    0.842485 0.027502 0.727780 0.104117
H10   H     H_    0.803268 0.227059 0.779119 0.099420
H11   H     H_    0.725009 0.831168 0.369285 0.150387
H12   H     H_    0.855650 0.536010 0.718324 0.103090
H13   H     H_    0.472269 0.782434 0.210307 0.110683
H14   H     H_    0.502311 0.717401 0.125610 0.121373
H15   H     H_    0.738445 0.809267 0.282069 0.112116
H16   H     H_    0.837113 0.634000 0.228128 0.111653
H17   H     H_    0.867234 0.574205 0.143563 0.135838
H18   H     H_    0.529336 0.658197 0.375801 0.121814
H19   H     H_    0.326568 0.952458 0.365372 0.141504
H20   H     H_    0.113602 0.041921 0.226844 0.101868
H21   H     H_    0.063625 0.071580 0.141575 0.133309
H22   H     H_    0.620678 0.865711 0.738705 0.100593
H23   H     H_    0.283275 0.975683 0.279586 0.101008
H24   H     H_    0.213839 0.299556 0.222312 0.117807
H25   H     H_    0.159054 0.333578 0.136980 0.122898
H26   H     H_    0.129148 0.316448 0.388334 0.113407
H27   H     H_    0.465000 0.279492 0.379371 0.128648
H28   H     H_    0.748888 0.008002 0.216578 0.100388
H29   H     H_    0.774721 0.032354 0.130673 0.122362
H30   H     H_    0.476143 0.310498 0.293773 0.090422
H31   H     H_    0.563370 0.375098 0.236517 0.129049
H32   H     H_    0.487725 0.801215 0.795875 0.103026
H33   H     H_    0.583409 0.399475 0.150791 0.142082
H34   H     H_    0.828663 0.038147 0.290367 0.102709
H35   H     H_    0.815892 0.001693 0.375973 0.123216
H36   H     H_    0.523894 0.630743 0.725184 0.104170
H37   H     H_    0.722592 0.471618 0.775577 0.098756
H38   H     H_    0.199155 0.975808 0.789304 0.103953
H39   H     H_    0.030757 0.110606 0.719276 0.103020
H40   H     H_    0.360761 0.013820 0.739203 0.100557
O1    O     O_R   0.301780 0.195490 0.553940 -0.507547
O2    O     O_R   0.658840 0.818280 0.449970 -0.504939
O3    O     O_R   0.503160 0.801780 0.445740 -0.523412
O4    O     O_R   0.319320 0.022190 0.450230 -0.501923
O5    O     O_3   0.499990 0.000010 0.499990 -0.245437
O6    O     O_R   0.819250 0.149410 0.965240 -0.507969
O7    O     O_R   0.006940 0.180310 0.968270 -0.494974
O8    O     O_R   0.028420 0.332670 0.963010 -0.507242
O9    O     O_R   0.810130 0.520390 0.966030 -0.495227
O10   O     O_R   0.636050 0.541380 0.962520 -0.508064
O11   O     O_R   0.666480 0.323610 0.968170 -0.494387
O12   O     O_R   0.522450 0.158840 0.550250 -0.493779
O13   O     O_R   0.817280 0.156800 0.072180 -0.519181
O14   O     O_R   0.005110 0.187160 0.067410 -0.504429
O15   O     O_R   0.026450 0.340060 0.069950 -0.520496
O16   O     O_R   0.808300 0.527240 0.065170 -0.504896
O17   O     O_R   0.634070 0.548770 0.069460 -0.520170
O18   O     O_R   0.664650 0.330470 0.067300 -0.503753
O19   O     O_3   0.826940 0.344820 0.017080 -0.243732
O20   O     O_R   0.694460 0.003360 0.553820 -0.506134
O21   O     O_R   0.657750 0.819520 0.549120 -0.493239
O22   O     O_R   0.501990 0.803120 0.552700 -0.506262
O23   O     O_R   0.318230 0.023430 0.549370 -0.493368
O24   O     O_R   0.302950 0.194150 0.446980 -0.521572
O25   O     O_R   0.523540 0.157600 0.451100 -0.504665
O26   O     O_R   0.695630 0.002030 0.446860 -0.526618
O27   O     O_3   0.531788 0.623757 0.280149 -0.570281
C85   C     C_3   0.412967 0.673843 0.289907 -0.004768
H41   H     H_    0.367055 0.700386 0.254775 0.135760
H42   H     H_    0.376131 0.752351 0.313397 0.107068
C86   C     C_3   0.389305 0.584722 0.312503 -0.252426
H43   H     H_    0.417030 0.511716 0.286831 0.157675
H44   H     H_    0.438886 0.552414 0.346535 0.166503
C87   C     C_3   0.262489 0.634013 0.323668 -0.495462
H45   H     H_    0.232742 0.705434 0.350452 0.151886
H46   H     H_    0.249150 0.565998 0.339163 0.136757
H47   H     H_    0.211229 0.665445 0.289995 0.138471
O28   O     O_3   0.061150 0.364519 0.294535 -0.567467
C88   C     C_3   0.081249 0.452800 0.310920 -0.007592
H48   H     H_    0.084910 0.499023 0.278470 0.138463
H49   H     H_    0.164620 0.422049 0.329798 0.108168
C89   C     C_3   0.981145 0.537389 0.342884 -0.252074
H50   H     H_    0.901427 0.574967 0.321205 0.185749
H51   H     H_    0.969736 0.492456 0.373989 0.167335
C90   C     C_3   0.999969 0.632986 0.362245 -0.490096
H52   H     H_    0.078695 0.596877 0.384570 0.147533
H53   H     H_    0.926568 0.692042 0.385554 0.154193
H54   H     H_    0.007407 0.682098 0.331774 0.140122

loop_
_geom_bond_atom_site_label_1
_geom_bond_atom_site_label_2
_ccdc_geom_bond_type
C44   C49   A    
C58   C62   A    
C66   C68   A    
C40   C41   A    
O27   C85   S    
C41   C42   A    
C12   O22   A    
C79   O9    A    
Cr3   O4    S    
C72   C76   A    
C2    C12   S    
C86   H43   S    
C7    C8    S    
C90   H53   S    
C31   C32   S    
C34   O25   A    
C52   C53   A    
C68   C75   S    
Cr5   O15   S    
C20   H2    S    
C11   C19   S    
Cr6   O17   S    
C63   C81   S    
C60   C63   A    
C52   H19   S    
C87   H45   S    
C19   C21   S    
C77   O7    A    
C51   C56   S    
Cr2   O20   S    
Cr1   O25   S    
C5    C6    S    
C3    H37   S    
C17   C20   S    
C18   C19   S    
C25   C29   S    
C33   H8    S    
C73   C74   A    
C14   C77   S    
Cr2   O26   S    
C38   C45   S    
Cr6   O18   S    
C1    O12   A    
C85   C86   S    
C82   O16   A    
C13   H38   S    
Cr3   O3    S    
C85   H42   S    
C81   O14   A    
C48   H16   S    
C90   H52   S    
C53   H23   S    
C16   C17   S    
Cr5   O9    S    
C5    H36   S    
C1    C28   S    
C59   H21   S    
Cr3   O23   S    
C51   C57   A    
C64   C70   A    
C57   H26   S    
Cr4   O13   S    
C29   H10   S    
C89   C90   S    
Cr1   O24   S    
C81   O15   A    
C25   C32   S    
C15   C23   S    
C79   O10   A    
C30   C33   S    
C66   H30   S    
C8    C78   S    
C88   H49   S    
C12   O21   A    
C61   C62   A    
C67   C78   S    
C55   O28   S    
Cr6   O19   S    
C11   H39   S    
C76   C83   S    
C41   C49   S    
C86   H44   S    
C44   H13   S    
C89   H51   S    
C39   H11   S    
C47   C50   A    
C82   O17   A    
Cr5   O16   S    
C21   H40   S    
Cr5   O19   S    
C71   C75   A    
C74   C75   A    
C23   O1    A    
C51   C52   A    
C32   C35   S    
Cr3   O5    S    
C38   C39   A    
C77   O8    A    
Cr4   O6    S    
C56   O24   A    
C27   C80   S    
C39   C40   A    
C5    C7    S    
C90   H54   S    
C68   C69   A    
C6    C8    S    
C44   C46   A    
C69   H34   S    
C4    C7    S    
C58   C59   A    
C53   C54   A    
C46   H14   S    
Cr4   O19   S    
C83   O18   A    
C60   C61   A    
C4    C78   S    
C29   C30   S    
C11   C16   S    
C26   C35   S    
Cr6   O10   S    
C47   C48   A    
C34   C64   S    
C13   C21   S    
C1    O20   A    
C88   H48   S    
C32   C37   S    
C20   C21   S    
Cr1   O5    S    
C70   H35   S    
O28   C88   S    
C65   C66   A    
C47   H17   S    
Cr3   O22   S    
C55   C57   A    
C85   H41   S    
C27   C36   T    
C88   C89   S    
C59   C63   A    
C42   O27   S    
C42   C43   A    
C7    H32   S    
C3    C4    S    
C2    C10   T    
C45   O2    A    
C86   C87   S    
C89   H50   S    
C50   C82   S    
C26   H5    S    
C54   C55   A    
C15   C24   T    
C31   C33   S    
C71   H28   S    
C58   H20   S    
C16   H4    S    
C87   H47   S    
C3    C67   S    
C3    C5    S    
Cr1   O12   S    
C6    C10   S    
C56   O4    A    
C26   C30   S    
C34   O26   A    
C78   H1    S    
C54   C62   S    
C46   C50   A    
C45   O3    A    
C17   C22   S    
C80   O6    A    
C30   C36   S    
C64   C65   A    
C14   C22   T    
C23   O23   A    
C19   C24   S    
C25   C26   S    
C38   C43   A    
C29   C31   S    
C31   H9    S    
C6    C67   S    
Cr2   O21   S    
Cr1   O1    S    
C83   O13   A    
C11   C13   S    
Cr2   O2    S    
C79   C84   S    
C28   C37   T    
C48   C49   A    
C72   H29   S    
C87   H46   S    
C33   C35   S    
C8    H22   S    
Cr4   O14   S    
C18   C20   S    
C43   H18   S    
C69   C70   A    
Cr4   O7    S    
Cr6   O11   S    
C9    C84   T    
C13   C17   S    
Cr2   O5    S    
C71   C72   A    
C74   H31   S    
C73   C76   A    
C25   H6    S    
C16   C18   S    
Cr5   O8    S    
C61   H24   S    
C18   H3    S    
C65   H27   S    
C60   H25   S    
C4    C9    S    
C35   H7    S    
C80   O11   A    
C67   H12   S    
C40   H15   S    
C73   H33   S    
