data_mof_unit_353.cif
_audit_creation_date              2012-10-26T18:27:06-0400
_audit_creation_method            fapswitch 2.2
_symmetry_space_group_name_H-M    P1
_symmetry_Int_Tables_number       1
_space_group_crystal_system       triclinic
_cell_length_a                    15.120852
_cell_length_b                    10.924334
_cell_length_c                    9.719166
_cell_angle_alpha                 89.487459
_cell_angle_beta                  90.118652
_cell_angle_gamma                 91.031141
_cell_volume                      1605.13560506

loop_
_atom_site_label
_atom_site_type_symbol
_atom_type_description
_atom_site_fract_x
_atom_site_fract_y
_atom_site_fract_z
_atom_type_partial_charge
C1    C     C_R   0.498694 0.265408 0.500573 0.539321
C2    C     C_R   0.186245 0.468719 0.380201 -0.076636
C3    C     C_R   0.232638 0.502760 0.498331 -0.037405
C4    C     C_R   0.328975 0.500367 0.499703 0.544299
C5    C     C_R   0.187373 0.541567 0.614048 -0.083687
C6    C     C_2   0.492536 0.935435 0.382557 0.235003
C7    C     C_2   0.506339 0.867743 0.497252 -0.073723
C8    C     C_2   0.505022 0.069480 0.387935 -0.150745
C9    C     C_2   0.491179 0.133391 0.502460 -0.156072
C10   C     C_2   0.437554 0.447085 0.922422 0.423754
C11   C     C_2   0.446580 0.431393 0.077432 0.394202
C12   C     C_R   0.908890 0.537532 0.618356 -0.029247
C13   C     C_R   0.500853 0.734893 0.499042 0.559036
C14   C     C_R   0.671418 0.496786 0.500674 0.552945
C15   C     C_R   0.816167 0.522408 0.622900 0.235177
C16   C     C_R   0.768828 0.489577 0.503143 -0.022602
C17   C     C_R   0.814192 0.447481 0.386774 0.239072
C18   C     C_R   0.907381 0.456583 0.381281 -0.002956
C19   C     C_R   0.954459 0.500156 0.498520 -0.131053
C20   C     C_3   0.771673 0.425421 0.818853 -0.051276
C21   C     C_3   0.360114 0.281937 0.835381 -0.034369
C22   C     C_3   0.612652 0.628606 0.119217 0.000545
C23   C     C_R   0.954366 0.424217 0.260758 0.338724
C24   C     C_3   0.743600 0.273669 0.314689 -0.101218
C25   C     C_3   0.916963 0.270673 0.109175 -0.059454
C26   C     C_3   0.409052 0.937214 0.182906 -0.060765
C27   C     C_R   0.047131 0.433883 0.258531 0.246839
C28   C     C_R   0.093757 0.468540 0.377748 -0.005651
C29   C     C_R   0.047551 0.504570 0.496840 -0.032622
C30   C     C_R   0.095012 0.545307 0.614273 -0.006490
C31   C     C_R   0.049777 0.591278 0.728312 0.269460
C32   C     C_R   0.957252 0.589922 0.729772 0.295761
Cl1   Cl    Cl    0.379928 0.317423 0.156758 -0.625377
Cl2   Cl    Cl    0.103681 0.408410 0.102088 -0.512403
Cl3   Cl    Cl    0.108448 0.656368 0.869076 -0.459167
Cl4   Cl    Cl    0.905448 0.665310 0.868491 -0.442434
Cu1   Cu    Cu3+1 0.500020 0.500020 0.638630 1.011043
Cu2   Cu    Cu3+1 0.499980 0.499980 0.361370 1.087771
H1    H     H_    0.524340 0.909835 0.594171 0.061864
H2    H     H_    0.310461 0.234793 0.902035 0.180369
H3    H     H_    0.425495 0.237920 0.851121 0.087628
H4    H     H_    0.339403 0.266089 0.727331 0.140933
H5    H     H_    0.651675 0.543096 0.116566 0.141791
H6    H     H_    0.623427 0.677705 0.217121 0.182187
H7    H     H_    0.638733 0.689213 0.035988 0.136056
H8    H     H_    0.802438 0.219570 0.344346 0.098504
H9    H     H_    0.712577 0.229327 0.223945 0.131075
H10   H     H_    0.694366 0.269651 0.399327 0.111439
H11   H     H_    0.935059 0.211686 0.198867 0.096023
H12   H     H_    0.523871 0.116526 0.293230 0.163746
H13   H     H_    0.965751 0.259141 0.025510 0.183160
H14   H     H_    0.852487 0.236340 0.069217 0.117301
H15   H     H_    0.435563 0.020214 0.129299 0.130347
H16   H     H_    0.351945 0.960501 0.249471 0.141327
H17   H     H_    0.383862 0.873887 0.102672 0.176651
H18   H     H_    0.470129 0.090073 0.598010 0.088824
H19   H     H_    0.560195 0.510686 0.891342 0.199250
H20   H     H_    0.223148 0.439491 0.291617 0.233485
H21   H     H_    0.225252 0.569777 0.703152 0.218147
H22   H     H_    0.738021 0.350765 0.760365 0.084721
H23   H     H_    0.735023 0.436891 0.916491 0.155744
H24   H     H_    0.840206 0.398425 0.845871 0.157350
N1    N     N_2   0.499020 0.498660 0.846910 -0.323514
N2    N     N_2   0.499000 0.498630 0.153040 -0.072670
O1    O     O_R   0.500020 0.321960 0.617040 -0.531450
O2    O     O_3   0.359145 0.409204 0.861079 -0.496924
O3    O     O_3   0.521781 0.607527 0.095217 -0.504638
O4    O     O_3   0.767085 0.395716 0.278826 -0.519743
O5    O     O_3   0.909018 0.396369 0.140384 -0.475744
O6    O     O_3   0.476475 0.877978 0.257281 -0.527521
O7    O     O_R   0.499980 0.321920 0.382900 -0.467550
O8    O     O_R   0.370270 0.499990 0.617090 -0.460709
O9    O     O_R   0.370240 0.499950 0.382940 -0.453672
O10   O     O_R   0.500020 0.678080 0.617100 -0.496559
O11   O     O_R   0.499980 0.678040 0.382960 -0.428115
O12   O     O_R   0.629760 0.500050 0.617060 -0.476364
O13   O     O_R   0.629730 0.500010 0.382910 -0.504494
O14   O     O_3   0.771002 0.537503 0.745062 -0.495856

loop_
_geom_bond_atom_site_label_1
_geom_bond_atom_site_label_2
_ccdc_geom_bond_type
Cu1   O10   S    
C21   O2    S    
C23   O5    S    
C10   N1    D    
C26   H17   S    
C1    O7    A    
C32   Cl4   S    
C28   C29   A    
Cu1   Cu2   S    
C30   C31   A    
C15   O14   S    
C15   C16   A    
C18   C19   A    
C14   O13   A    
C20   H23   S    
C22   H6    S    
C22   H5    S    
C8    C9    D    
Cu1   O1    S    
C1    O1    A    
C23   C27   A    
C20   H22   S    
C12   C32   A    
C26   H16   S    
Cu1   N1    S    
H19   N1    S    
Cu2   N2    S    
Cu2   O11   S    
C10   O2    S    
C27   Cl2   S    
C5    H21   S    
C18   C23   A    
C24   H10   S    
N2    O3    S    
C13   O11   A    
C11   Cl1   S    
C1    C9    S    
C11   N2    D    
C16   C17   A    
C6    C8    S    
C14   O12   A    
C25   H13   S    
C29   C30   A    
C31   C32   A    
C12   C15   A    
C17   C18   A    
C9    H18   S    
C4    O9    A    
C21   H3    S    
Cu1   O12   S    
C26   O6    S    
C31   Cl3   S    
C25   O5    S    
C3    C4    S    
C19   C29   A    
C26   H15   S    
C8    H12   S    
C4    O8    A    
C5    C30   A    
C6    O6    S    
Cu2   O7    S    
C17   O4    S    
C24   H9    S    
C3    C5    A    
C2    H20   S    
C6    C7    D    
Cu2   O13   S    
C20   O14   S    
C24   H8    S    
C2    C3    A    
C25   H14   S    
C21   H2    S    
C12   C19   A    
C14   C16   S    
C20   H24   S    
C25   H11   S    
C22   O3    S    
C10   C11   S    
C24   O4    S    
C21   H4    S    
C7    C13   S    
C22   H7    S    
C13   O10   A    
Cu1   O8    S    
C27   C28   A    
C7    H1    S    
C2    C28   A    
Cu2   O9    S    
