data_mof_unit_2589.cif
_audit_creation_date              2012-10-26T18:32:00-0400
_audit_creation_method            fapswitch 2.2
_symmetry_space_group_name_H-M    P1
_symmetry_Int_Tables_number       1
_space_group_crystal_system       triclinic
_cell_length_a                    12.366298
_cell_length_b                    13.270188
_cell_length_c                    14.403273
_cell_angle_alpha                 93.501608
_cell_angle_beta                  107.929323
_cell_angle_gamma                 116.775751
_cell_volume                      1951.40037408

loop_
_atom_site_label
_atom_site_type_symbol
_atom_type_description
_atom_site_fract_x
_atom_site_fract_y
_atom_site_fract_z
_atom_type_partial_charge
C1    C     C_R   0.651667 0.714852 0.509347 0.535432
C2    C     C_R   0.144144 0.409465 0.007065 0.023348
C3    C     C_R   0.151816 0.494095 0.077532 0.015493
C4    C     C_R   0.619695 0.518418 0.686300 0.543787
C5    C     C_R   0.214365 0.351050 0.037560 -0.130068
C6    C     C_R   0.291317 0.374706 0.137961 -0.141355
C7    C     C_R   0.249353 0.531641 0.175422 -0.028057
C8    C     C_R   0.191723 0.960120 0.426713 -0.119299
C9    C     C_R   0.263040 0.163138 0.481760 0.000551
C10   C     C_R   0.736956 0.927020 0.577495 -0.028802
C11   C     C_R   0.848076 0.034807 0.623920 -0.148846
C12   C     C_R   0.882001 0.540737 0.916396 0.027675
C13   C     C_R   0.963263 0.062208 0.609273 -0.013876
C14   C     C_R   0.963420 0.986090 0.535101 0.020185
C15   C     C_R   0.853285 0.873009 0.492677 -0.012299
C16   C     C_R   0.347573 0.285606 0.487994 0.555218
C17   C     C_R   0.069342 0.016835 0.502363 0.023216
C18   C     C_R   0.079783 0.929574 0.449808 0.032208
C19   C     C_R   0.972971 0.816601 0.413830 -0.017844
C20   C     C_R   0.856950 0.794829 0.424066 -0.116372
C21   C     C_R   0.157503 0.132808 0.511381 -0.092895
C22   C     C_R   0.283661 0.076453 0.443827 -0.133868
C23   C     C_R   0.879966 0.616544 0.988886 0.043785
C24   C     C_R   0.743584 0.839915 0.521406 -0.015915
C25   C     C_R   0.251915 0.682596 0.660916 -0.135127
C26   C     C_R   0.649975 0.337696 0.368208 0.060710
C27   C     C_R   0.720724 0.289574 0.343728 -0.018450
C28   C     C_R   0.380958 0.482240 0.313941 0.551469
C29   C     C_R   0.857939 0.345426 0.397063 -0.011220
C30   C     C_R   0.924648 0.454609 0.468278 -0.011388
C31   C     C_R   0.843453 0.493852 0.492585 0.160091
C32   C     C_R   0.066007 0.523609 0.521437 0.001551
C33   C     C_R   0.117778 0.620100 0.601917 0.029931
C34   C     C_R   0.980693 0.507273 0.943096 0.034223
C35   C     C_R   0.035896 0.653841 0.624300 -0.180552
C36   C     C_R   0.902426 0.592165 0.571232 -0.099137
C37   C     C_R   0.160535 0.505415 0.497797 0.064353
C38   C     C_R   0.336550 0.652253 0.639059 0.071568
C39   C     C_R   0.697505 0.543150 0.792925 -0.000678
C40   C     C_R   0.308467 0.464358 0.207281 -0.002382
C41   C     C_R   0.790860 0.657792 0.961988 -0.127691
C42   C     C_R   0.702505 0.623887 0.863517 -0.127367
C43   C     C_R   0.779518 0.495729 0.822048 -0.139300
C44   C     C_1   0.976586 0.721779 0.362665 0.177619
C45   C     C_R   0.061259 0.535762 0.046898 0.011340
C46   C     C_1   0.620397 0.908632 0.593603 0.225499
C47   C     C_1   0.080905 0.161635 0.680349 0.156511
C48   C     C_1   0.308901 0.648006 0.236455 0.189674
C49   C     C_1   0.922151 0.280265 0.384805 0.146404
C50   C     C_3   0.651986 0.176290 0.263889 -0.278641
C51   C     C_3   0.504972 0.125214 0.206583 -0.453371
C52   C     C_3   0.975355 0.454073 0.763510 -0.282035
C53   C     C_3   0.876823 0.335795 0.690020 -0.434665
C54   C     C_R   0.043123 0.598634 0.117851 -0.115705
C55   C     C_R   0.961242 0.645054 0.088604 -0.121407
C56   C     C_R   0.002946 0.446144 0.872034 -0.000713
C57   C     C_R   0.073206 0.388981 0.905693 -0.112664
Cu1   Cu    Cu3+1 0.416420 0.526630 0.522910 0.986709
Cu2   Cu    Cu3+1 0.583580 0.473370 0.477090 0.909029
H1    H     H_    0.955669 0.698131 0.145169 0.136695
H2    H     H_    0.290978 0.754156 0.724157 0.104042
H3    H     H_    0.134746 0.446740 0.430264 0.155580
H4    H     H_    0.545185 0.296224 0.331205 0.140705
H5    H     H_    0.847955 0.621565 0.598065 0.185836
H6    H     H_    0.338420 0.323663 0.161393 0.121820
H7    H     H_    0.081107 0.334902 0.851499 0.143984
H8    H     H_    0.790683 0.717295 0.016884 0.112219
H9    H     H_    0.639289 0.661375 0.842474 0.124346
H10   H     H_    0.760758 0.423079 0.769699 0.139974
H11   H     H_    0.088000 0.609999 0.197430 0.163208
H12   H     H_    0.207024 0.284905 0.984043 0.129778
H13   H     H_    0.451770 0.100030 0.258328 0.146855
H14   H     H_    0.484976 0.188428 0.167910 0.146561
H15   H     H_    0.467873 0.045915 0.148810 0.158134
H16   H     H_    0.699008 0.191603 0.207759 0.166524
H17   H     H_    0.666722 0.109462 0.300149 0.171790
H18   H     H_    0.929392 0.292115 0.673833 0.151316
H19   H     H_    0.804908 0.278778 0.720648 0.155243
H20   H     H_    0.822402 0.347174 0.618313 0.163719
H21   H     H_    0.944779 0.519376 0.746835 0.152322
H22   H     H_    0.068517 0.487758 0.750799 0.160836
H23   H     H_    0.366304 0.098315 0.421775 0.132604
H24   H     H_    0.205118 0.895156 0.390290 0.144655
H25   H     H_    0.139242 0.200494 0.534506 0.168131
H26   H     H_    0.846600 0.095641 0.676668 0.111799
H27   H     H_    0.770251 0.715038 0.377666 0.160618
H28   H     H_    0.439683 0.698674 0.685480 0.131664
H29   H     H_    0.075146 0.727654 0.685588 0.115130
N1    N     N_R   0.290690 0.566960 0.557640 -0.238244
N2    N     N_R   0.709100 0.433710 0.442970 -0.257368
N3    N     N_1   0.979146 0.644914 0.322983 -0.334157
N4    N     N_1   0.527369 0.895363 0.606304 -0.307132
N5    N     N_1   0.174977 0.241052 0.737372 -0.326319
N6    N     N_1   0.357093 0.740774 0.285292 -0.297247
N7    N     N_1   0.971281 0.226425 0.373951 -0.327128
O1    O     O_R   0.545970 0.684450 0.528810 -0.475186
O2    O     O_R   0.687130 0.639470 0.490120 -0.533710
O3    O     O_R   0.519670 0.535100 0.660030 -0.501703
O4    O     O_R   0.660830 0.490120 0.621340 -0.526079
O5    O     O_R   0.312870 0.360530 0.509880 -0.494763
O6    O     O_R   0.454030 0.315550 0.471190 -0.516762
O7    O     O_R   0.339170 0.509880 0.378660 -0.491233
O8    O     O_R   0.480330 0.464900 0.339970 -0.514653

loop_
_geom_bond_atom_site_label_1
_geom_bond_atom_site_label_2
_ccdc_geom_bond_type
C34   C56   A    
C4    O3    A    
C27   C29   A    
C8    H24   S    
Cu2   O4    S    
C41   C42   A    
C36   H5    S    
C19   C20   A    
Cu1   O3    S    
C51   H15   S    
C57   H7    S    
C37   H3    S    
C2    C57   A    
C41   H8    S    
C29   C49   S    
C52   C53   S    
C38   N1    A    
C26   C27   A    
C48   N6    T    
C22   H23   S    
C53   H20   S    
C9    C16   S    
C12   C43   A    
C3    C7    A    
C30   C31   A    
C9    C22   A    
C46   N4    T    
C28   C40   S    
C56   C57   A    
C18   C19   A    
Cu1   O1    S    
C6    H6    S    
C35   C36   A    
C20   H27   S    
C10   C46   S    
C8    C22   A    
C7    C40   A    
C21   H25   S    
Cu1   O7    S    
C27   C50   S    
C43   H10   S    
C13   C14   A    
C42   H9    S    
C14   C17   A    
C17   C18   A    
C39   C42   A    
C15   C20   A    
Cu2   O6    S    
Cu1   O5    S    
C1    O2    A    
C12   C23   A    
C13   C47   S    
C16   O5    A    
C39   C43   A    
C10   C24   A    
Cu1   Cu2   S    
C3    C45   A    
C8    C18   A    
Cu2   N2    S    
C53   H18   S    
C26   H4    S    
C29   C30   A    
C50   H17   S    
C25   C38   A    
C35   H29   S    
C54   H11   S    
C4    C39   S    
C31   N2    A    
C50   C51   S    
C47   N5    T    
C34   C45   A    
C25   H2    S    
C32   C37   A    
C49   N7    T    
C44   N3    T    
C15   C24   A    
C45   C54   A    
Cu2   O2    S    
C6    C40   A    
C2    C5    A    
C51   H13   S    
C12   C34   A    
C19   C44   S    
C54   C55   A    
C31   C36   A    
C51   H14   S    
C23   C55   A    
C26   N2    A    
C23   C41   A    
C37   N1    A    
C38   H28   S    
Cu2   O8    S    
C7    C48   S    
C2    C3    A    
C5    H12   S    
C52   H21   S    
C50   H16   S    
C32   C33   A    
C30   C32   A    
C11   C13   A    
C28   O8    A    
C9    C21   A    
C5    C6    A    
C11   H26   S    
C1    O1    A    
C33   C35   A    
C53   H19   S    
C52   H22   S    
Cu1   N1    S    
C17   C21   A    
C10   C11   A    
C28   O7    A    
C16   O6    A    
C1    C24   S    
C4    O4    A    
C14   C15   A    
C55   H1    S    
C52   C56   S    
C25   C33   A    
