data_mof_unit_4706.cif
_audit_creation_date              2012-10-26T19:20:35-0400
_audit_creation_method            fapswitch 2.2
_symmetry_space_group_name_H-M    P1
_symmetry_Int_Tables_number       1
_space_group_crystal_system       triclinic
_cell_length_a                    10.89344
_cell_length_b                    11.236811
_cell_length_c                    9.838584
_cell_angle_alpha                 109.334532
_cell_angle_beta                  98.253245
_cell_angle_gamma                 91.091903
_cell_volume                      1121.76349258

loop_
_atom_site_label
_atom_site_type_symbol
_atom_type_description
_atom_site_fract_x
_atom_site_fract_y
_atom_site_fract_z
_atom_type_partial_charge
C1    C     C_R   0.488895 0.256474 0.444112 0.570844
C2    C     C_R   0.737994 0.514453 0.501373 0.537949
C3    C     C_R   0.141811 0.497290 0.761022 -0.086498
C4    C     C_R   0.858188 0.502720 0.238981 -0.086497
C5    C     C_R   0.099121 0.551373 0.893357 -0.133531
C6    C     C_R   0.900878 0.448637 0.106645 -0.133527
C7    C     C_R   0.995337 0.621592 0.899380 -0.127460
C8    C     C_R   0.004659 0.378414 0.100621 -0.127461
C9    C     C_R   0.925163 0.623383 0.770386 -0.081521
C10   C     C_R   0.074834 0.376623 0.229615 -0.081526
C11   C     C_R   0.957556 0.553692 0.633933 0.018558
C12   C     C_R   0.511104 0.743526 0.555888 0.570843
C13   C     C_R   0.042442 0.446314 0.366069 0.018558
C14   C     C_R   0.077043 0.507738 0.630937 0.017931
C15   C     C_R   0.922956 0.492269 0.369065 0.017931
C16   C     C_R   0.874535 0.530075 0.501851 -0.046299
C17   C     C_R   0.125465 0.469931 0.498150 -0.046297
C18   C     C_3   0.429604 0.827643 0.241585 0.001004
C19   C     C_3   0.326140 0.746033 0.127112 -0.353196
C20   C     C_3   0.570381 0.172350 0.758419 0.000990
C21   C     C_3   0.673853 0.253921 0.872909 -0.353203
C22   C     C_3   0.641104 0.659882 0.953781 -0.224964
C23   C     C_2   0.462532 0.123990 0.421451 -0.091508
C24   C     C_3   0.358889 0.340126 0.046221 -0.224967
C25   C     C_2   0.537466 0.876011 0.578549 -0.091514
C26   C     C_2   0.517061 0.067399 0.513372 0.226997
C27   C     C_2   0.482932 0.932603 0.486633 0.226994
C28   C     C_2   0.509032 0.509022 0.079994 -0.000300
C29   C     C_2   0.490968 0.490977 0.920006 -0.000292
C30   C     C_R   0.262006 0.485548 0.498627 0.537949
Cu1   Cu    Cu3+1 0.521920 0.521810 0.644910 0.930719
Cu2   Cu    Cu3+1 0.478080 0.478190 0.355090 0.930707
H1    H     H_    0.033184 0.329035 0.996713 0.109104
H2    H     H_    0.387891 0.076379 0.333454 0.080381
H3    H     H_    0.421845 0.420342 0.846426 0.115724
H4    H     H_    0.578153 0.579660 0.153575 0.115732
H5    H     H_    0.512000 0.772256 0.246676 0.136135
H6    H     H_    0.457534 0.906204 0.205460 0.101555
H7    H     H_    0.243130 0.800969 0.120620 0.155444
H8    H     H_    0.356587 0.713033 0.018628 0.116532
H9    H     H_    0.301361 0.663555 0.158364 0.184635
H10   H     H_    0.542418 0.093784 0.794517 0.101552
H11   H     H_    0.488006 0.227763 0.753337 0.136155
H12   H     H_    0.966810 0.670969 0.003287 0.109101
H13   H     H_    0.698666 0.336397 0.841674 0.184617
H14   H     H_    0.643396 0.286923 0.981386 0.116546
H15   H     H_    0.756843 0.198957 0.879399 0.155437
H16   H     H_    0.679552 0.706445 0.884969 0.156065
H17   H     H_    0.592611 0.732156 0.029819 0.076476
H18   H     H_    0.719259 0.626909 0.014255 0.072446
H19   H     H_    0.320443 0.293560 0.115033 0.156067
H20   H     H_    0.280735 0.373106 0.985759 0.072450
H21   H     H_    0.407373 0.267851 0.970174 0.076472
H22   H     H_    0.221443 0.441899 0.760233 0.115296
H23   H     H_    0.778557 0.558111 0.239771 0.115293
H24   H     H_    0.147299 0.540224 0.991513 0.113133
H25   H     H_    0.852700 0.459787 0.008489 0.113137
H26   H     H_    0.846626 0.680723 0.777294 0.112602
H27   H     H_    0.153369 0.319281 0.222707 0.112603
H28   H     H_    0.612110 0.923621 0.666543 0.080388
N1    N     N_2   0.445130 0.445420 0.137360 -0.249417
N2    N     N_2   0.554870 0.554580 0.862640 -0.249404
O1    O     O_R   0.511700 0.332340 0.577400 -0.476150
O2    O     O_3   0.614262 0.130576 0.622993 -0.557106
O3    O     O_R   0.488300 0.667660 0.422600 -0.476158
O4    O     O_R   0.474680 0.295500 0.332650 -0.518546
O5    O     O_R   0.525320 0.704500 0.667350 -0.518547
O6    O     O_R   0.338170 0.518410 0.622370 -0.507454
O7    O     O_R   0.661830 0.481590 0.377630 -0.507451
O8    O     O_R   0.301150 0.481570 0.377630 -0.495580
O9    O     O_R   0.698850 0.518430 0.622370 -0.495572
O10   O     O_3   0.385727 0.869426 0.377015 -0.557106

loop_
_geom_bond_atom_site_label_1
_geom_bond_atom_site_label_2
_ccdc_geom_bond_type
C20   O2    S    
C20   H10   S    
C24   H20   S    
C24   N1    S    
C25   H28   S    
C26   O2    S    
C22   N2    S    
C2    O7    A    
C2    C16   S    
C12   O3    A    
C29   H3    S    
C5    H24   S    
C22   H16   S    
Cu1   Cu2   S    
C14   C17   A    
C13   C17   A    
C12   C25   S    
C22   H18   S    
C23   H2    S    
C28   N1    D    
C3    C5    A    
C24   H19   S    
Cu1   O9    S    
C10   H27   S    
C18   H6    S    
C19   H9    S    
C7    H12   S    
Cu1   O5    S    
C17   C30   S    
C9    C11   A    
C6    H25   S    
Cu1   N2    S    
C26   C27   S    
Cu2   O7    S    
C3    C14   A    
C19   H7    S    
C4    C15   A    
C22   H17   S    
C1    O1    A    
C4    C6    A    
C28   C29   S    
C12   O5    A    
C18   H5    S    
Cu2   N1    S    
C1    C23   S    
C21   H13   S    
C8    H1    S    
C13   C15   A    
C4    H23   S    
C18   O10   S    
Cu1   O6    S    
Cu2   O8    S    
C3    H22   S    
C25   C27   D    
C19   H8    S    
C15   C16   A    
Cu1   O1    S    
C20   H11   S    
C18   C19   S    
C20   C21   S    
C28   H4    S    
Cu2   O4    S    
C21   H14   S    
C11   C16   A    
C23   C26   D    
C11   C14   A    
C5    C7    A    
C7    C9    A    
C29   N2    D    
C9    H26   S    
C6    C8    A    
C30   O8    A    
C24   H21   S    
C8    C10   A    
C30   O6    A    
C27   O10   S    
C2    O9    A    
Cu2   O3    S    
C21   H15   S    
C10   C13   A    
C1    O4    A    
