data_mof_unit_531.cif
_audit_creation_date              2013-03-05T15:48:19-0500
_audit_creation_method            fapswitch 2.2
_symmetry_space_group_name_H-M    P1
_symmetry_Int_Tables_number       1
_space_group_crystal_system       triclinic
_cell_length_a                    21.13146
_cell_length_b                    7.231865
_cell_length_c                    18.483701
_cell_angle_alpha                 90.007923
_cell_angle_beta                  92.76642
_cell_angle_gamma                 90.006887
_cell_volume                      2821.38476952

loop_
_atom_site_label
_atom_site_type_symbol
_atom_site_description
_atom_site_fract_x
_atom_site_fract_y
_atom_site_fract_z
_atom_type_partial_charge
O1    O     O_R   0.448880 0.506250 0.415280 -0.582005
O2    O     O_R   0.551120 0.006250 0.584720 -0.582138
O3    O     O_R   0.434830 0.174000 0.557310 -0.551783
O4    O     O_R   0.565170 0.674000 0.442690 -0.551561
C1    C     C_R   0.418388 0.344247 0.581429 1.001238
C2    C     C_R   0.581612 0.844244 0.418572 1.001159
O5    O     O_R   0.441680 0.176440 0.414130 -0.573283
O6    O     O_R   0.558320 0.676440 0.585870 -0.573090
O7    O     O_R   0.558020 0.007570 0.440520 -0.559520
O8    O     O_R   0.441980 0.507570 0.559480 -0.559263
C3    C     C_R   0.426632 0.345231 0.389734 0.984354
C4    C     C_R   0.573374 0.845274 0.610260 0.984313
O9    O     O_3   0.538160 0.339670 0.508820 -0.266888
O10   O     O_3   0.461840 0.839670 0.491180 -0.266795
V1    V     V_3+5 0.492920 0.064260 0.498360 1.259640
V2    V     V_3+5 0.507080 0.564260 0.501640 1.259868
C5    C     C_R   0.884128 0.899197 0.692647 -0.007080
C6    C     C_R   0.115928 0.401877 0.307432 -0.007031
H1    H     H_    0.969467 0.896361 0.759010 0.136838
H2    H     H_    0.030539 0.399073 0.241149 0.136839
H3    H     H_    0.910629 0.882848 0.644396 0.173100
H4    H     H_    0.089435 0.386868 0.355756 0.173084
C7    C     C_R   0.887564 0.936079 0.822146 -0.240108
C8    C     C_R   0.112462 0.436345 0.177836 -0.240046
C9    C     C_R   0.584032 0.824658 0.741896 -0.284423
C10   C     C_R   0.415904 0.323042 0.258141 -0.284243
C11   C     C_R   0.617566 0.812395 0.808634 0.400169
C12   C     C_R   0.382322 0.310027 0.191453 0.400188
C13   C     C_R   0.683348 0.836435 0.811577 -0.145486
C14   C     C_R   0.316571 0.334698 0.188496 -0.145585
C15   C     C_R   0.716765 0.881511 0.749575 0.047146
C16   C     C_R   0.283237 0.381148 0.250413 0.047076
C17   C     C_R   0.682769 0.876309 0.680414 -0.088875
C18   C     C_R   0.317261 0.376690 0.319567 -0.088841
C19   C     C_R   0.784175 0.913621 0.754236 -0.041455
C20   C     C_R   0.215864 0.413865 0.245720 -0.041559
C21   C     C_R   0.817522 0.905716 0.689386 -0.090943
C22   C     C_R   0.182544 0.407510 0.310616 -0.091040
C23   C     C_R   0.784410 0.899796 0.621826 0.250970
C24   C     C_R   0.215687 0.402244 0.378162 0.251152
C25   C     C_R   0.718124 0.888664 0.617280 0.213128
C26   C     C_R   0.281950 0.390295 0.382695 0.213044
C27   C     C_R   0.820508 0.949612 0.820696 0.293821
C28   C     C_R   0.179535 0.449057 0.179193 0.293813
C29   C     C_R   0.918260 0.906906 0.758294 -0.224978
C30   C     C_R   0.081762 0.408834 0.241792 -0.225176
C31   C     C_R   0.614981 0.852334 0.677620 -0.169861
C32   C     C_R   0.385018 0.352066 0.322376 -0.169959
H5    H     H_    0.533062 0.806087 0.739405 0.160562
H6    H     H_    0.466849 0.303929 0.260645 0.160553
H7    H     H_    0.708256 0.809237 0.862614 0.195102
H8    H     H_    0.291609 0.306869 0.137541 0.195179
C33   C     C_1   0.864169 0.938957 0.131639 -0.234633
C34   C     C_1   0.135829 0.438963 0.868358 -0.234426
C35   C     C_1   0.820978 0.924790 0.174958 0.106052
C36   C     C_1   0.179019 0.424800 0.825037 0.106144
C37   C     C_1   0.769998 0.905469 0.226517 0.053466
C38   C     C_1   0.229998 0.405485 0.773477 0.053511
C39   C     C_1   0.727089 0.888660 0.270063 0.061456
C40   C     C_1   0.272906 0.388678 0.729931 0.061507
C41   C     C_1   0.676224 0.869382 0.321760 0.129912
C42   C     C_1   0.323771 0.369401 0.678233 0.129878
C43   C     C_1   0.633336 0.855327 0.365463 -0.159489
C44   C     C_1   0.366660 0.355343 0.634532 -0.159563
O11   O     O_R   0.058070 0.289240 0.940580 -0.571640
O12   O     O_R   0.941930 0.789240 0.059420 -0.571815
O13   O     O_R   0.058330 0.616740 0.085880 -0.576905
O14   O     O_R   0.941670 0.116740 0.914120 -0.576599
C45   C     C_R   0.072348 0.448262 0.110637 1.011851
C46   C     C_R   0.927656 0.948221 0.889359 1.011745
O15   O     O_R   0.065180 0.619040 0.942700 -0.564226
O16   O     O_R   0.934820 0.119040 0.057300 -0.563998
O17   O     O_R   0.948870 0.787780 0.915270 -0.587455
O18   O     O_R   0.051130 0.287780 0.084730 -0.587231
C47   C     C_R   0.083248 0.450351 0.920258 0.985445
C48   C     C_R   0.916751 0.950349 0.079740 0.985292
O19   O     O_3   0.961870 0.453310 0.991210 -0.275157
O20   O     O_3   0.038130 0.953310 0.008790 -0.275152
V3    V     V_3+5 0.007070 0.728770 0.001630 1.224745
V4    V     V_3+5 0.992930 0.228770 0.998370 1.225105
N1    N     N_R   0.818117 0.908770 0.556229 0.256602
O21   O     O_R   0.818251 0.767941 0.512452 -0.305993
O22   O     O_R   0.848798 0.058184 0.540313 -0.343292
N2    N     N_R   0.182031 0.412586 0.443761 0.256588
O23   O     O_R   0.181406 0.271991 0.487606 -0.306240
O24   O     O_R   0.151837 0.562940 0.459564 -0.343046
N3    N     N_R   0.791260 0.023318 0.883116 0.218889
O25   O     O_R   0.804874 0.956722 0.947388 -0.424113
O26   O     O_R   0.752394 0.162428 0.876005 -0.353725
N4    N     N_R   0.208835 0.521308 0.116557 0.218725
O27   O     O_R   0.195108 0.453665 0.052472 -0.424182
O28   O     O_R   0.247860 0.660161 0.123269 -0.353403
N5    N     N_R   0.584893 0.772241 0.873508 0.256609
O29   O     O_R   0.524082 0.742256 0.870529 -0.335183
O30   O     O_R   0.615471 0.767094 0.936322 -0.309069
N6    N     N_R   0.414913 0.268405 0.126657 0.256622
O31   O     O_R   0.475680 0.237737 0.129675 -0.335283
O32   O     O_R   0.384295 0.262508 0.063874 -0.308887
N7    N     N_R   0.688312 0.878497 0.546806 0.208837
O33   O     O_R   0.685700 0.027420 0.507324 -0.381321
O34   O     O_R   0.684518 0.717545 0.515499 -0.381885
N8    N     N_R   0.311758 0.380236 0.453174 0.208845
O35   O     O_R   0.314657 0.529417 0.492514 -0.380776
O36   O     O_R   0.315250 0.219467 0.484633 -0.382459

loop_
_geom_bond_atom_site_label_1
_geom_bond_atom_site_label_2
_geom_bond_distance
_ccdc_geom_bond_type
O14   V4    2.022716 S    
C14   C16   1.412994 A    
N3    O25   1.301226 A    
N5    O29   1.301699 A    
C7    C29   1.389979 A    
C11   C13   1.399327 A    
C24   N2    1.436943 S    
O1    C3    1.333515 A    
O16   C48   1.349600 A    
O2    C4    1.333457 A    
C2    O7    1.351947 A    
O15   V3    1.858263 S    
N1    O21   1.300768 A    
O3    V1    1.858232 S    
C23   C25   1.401471 A    
O5    C3    1.334505 A    
O12   V3    1.835468 S    
C16   C20   1.441728 A    
C19   C21   1.420617 A    
C5    C29   1.382441 A    
C10   H6    1.084169 S    
C37   C39   1.247081 T    
C38   C40   1.247079 T    
C26   N8    1.421225 S    
C7    C27   1.419345 A    
C40   C42   1.478840 S    
O6    V2    2.022664 S    
C41   C43   1.246940 T    
C42   C44   1.246938 T    
C36   C38   1.478983 S    
C18   C26   1.418448 A    
N6    O32   1.301759 A    
C25   N7    1.421215 S    
C19   C27   1.440514 A    
C9    C31   1.397984 A    
C10   C32   1.398021 A    
C24   C26   1.401378 A    
N5    O30   1.301733 A    
O11   V4    1.835459 S    
O18   V4    2.013168 S    
C13   C15   1.412959 A    
C7    C46   1.472160 S    
C3    C32   1.490011 S    
C4    C31   1.490006 S    
C6    C30   1.382491 A    
N1    O22   1.301075 A    
C8    C45   1.472124 S    
C33   C35   1.247054 T    
C34   C36   1.247052 T    
C39   C41   1.478845 S    
O13   V3    2.022988 S    
N2    O23   1.300770 A    
C23   N1    1.437019 S    
O4    C2    1.360240 A    
O20   V3    1.753985 S    
C5    H3    1.082223 S    
O16   V4    1.858266 S    
C1    C44   1.506087 S    
O13   C45   1.329973 A    
C16   C18   1.436353 A    
C2    C43   1.506091 S    
O4    V2    1.858236 S    
N4    O28   1.301413 A    
N7    O33   1.300714 A    
O6    C4    1.334596 A    
O12   C48   1.342008 A    
N6    O31   1.301669 A    
C46   O17   1.325198 A    
C15   C17   1.436335 A    
O17   V3    2.013328 S    
C45   O18   1.325250 A    
O1    V2    2.011652 S    
C5    C21   1.406650 A    
N8    O36   1.300549 A    
O2    V1    2.011808 S    
N7    O34   1.300561 A    
C17   C25   1.418475 A    
C35   C37   1.478986 S    
C17   C31   1.441326 A    
C15   C19   1.441699 A    
C20   C28   1.440545 A    
C33   C48   1.504838 S    
C18   C32   1.441311 A    
C28   N4    1.437373 S    
C13   H7    1.076019 S    
O19   V4    1.754167 S    
C14   H8    1.076004 S    
C6    H4    1.082260 S    
N2    O24   1.301071 A    
O3    C1    1.360230 A    
H1    C29   1.084209 S    
C9    C11   1.395473 A    
C10   C12   1.395469 A    
O11   C47   1.341999 A    
C12   N6    1.441838 S    
C27   N3    1.437358 S    
C20   C22   1.420655 A    
C6    C22   1.406669 A    
C8    C30   1.389947 A    
C1    O8    1.351923 A    
C21   C23   1.402315 A    
O8    V2    1.829051 S    
O15   C47   1.349574 A    
N4    O27   1.301226 A    
C22   C24   1.402264 A    
C8    C28   1.419345 A    
O5    V1    2.022939 S    
C12   C14   1.399297 A    
O7    V1    1.829061 S    
N8    O35   1.300728 A    
C9    H5    1.084160 S    
C11   N5    1.441825 S    
C34   C47   1.504834 S    
O14   C46   1.330070 A    
O9    V2    1.754679 S    
N3    O26   1.301425 A    
O10   V1    1.754498 S    
H2    C30   1.084205 S    
