data_mof_unit_1475.cif
_audit_creation_date              2012-12-10T17:51:31-0500
_audit_creation_method            fapswitch 2.2
_symmetry_space_group_name_H-M    P1
_symmetry_Int_Tables_number       1
_space_group_crystal_system       triclinic
_cell_length_a                    9.936104
_cell_length_b                    10.634764
_cell_length_c                    16.482047
_cell_angle_alpha                 94.061291
_cell_angle_beta                  85.673434
_cell_angle_gamma                 90.203075
_cell_volume                      1732.29991699

loop_
_atom_site_label
_atom_site_type_symbol
_atom_type_description
_atom_site_fract_x
_atom_site_fract_y
_atom_site_fract_z
_atom_type_partial_charge
C1    C     C_R   0.501589 0.736342 0.487004 0.942665
C2    C     C_R   0.526334 0.430062 0.263424 -0.094238
C3    C     C_R   0.273813 0.865190 0.415681 0.545062
C4    C     C_R   0.481549 0.490536 0.653393 0.915890
C5    C     C_R   0.149418 0.923612 0.419532 -0.447310
C6    C     C_R   0.130378 0.045143 0.456389 0.403236
C7    C     C_R   0.234804 0.101843 0.499100 0.461440
C8    C     C_R   0.369665 0.052163 0.484221 -0.167245
C9    C     C_R   0.381560 0.925893 0.453831 -0.149502
C10   C     C_R   0.503057 0.863861 0.461410 -0.206577
C11   C     C_R   0.623863 0.930601 0.454574 0.463155
C12   C     C_R   0.343067 0.454204 0.783497 0.453425
C13   C     C_R   0.618618 0.058882 0.474766 -0.310346
C14   C     C_R   0.493583 0.120829 0.492967 -0.136373
C15   C     C_R   0.858169 0.693431 0.603030 0.484078
C16   C     C_R   0.498276 0.258118 0.500826 0.862676
C17   C     C_R   0.936015 0.798152 0.631273 0.380908
C18   C     C_R   0.073677 0.786165 0.631951 -0.434727
C19   C     C_R   0.136612 0.679142 0.596894 -0.176789
C20   C     C_R   0.068755 0.589145 0.549077 0.121793
C21   C     C_R   0.923727 0.592149 0.550201 -0.006808
C22   C     C_R   0.934514 0.420850 0.448999 -0.090149
C23   C     C_R   0.427816 0.289777 0.162537 -0.168046
C24   C     C_R   0.077159 0.419480 0.449715 0.018204
C25   C     C_R   0.518032 0.487888 0.346560 0.858471
C26   C     C_R   0.470682 0.455557 0.738949 -0.306712
C27   C     C_R   0.587190 0.415242 0.774989 0.483783
C28   C     C_R   0.572829 0.374715 0.854402 -0.334563
C29   C     C_R   0.445997 0.371546 0.897466 -0.070430
C30   C     C_R   0.331831 0.406710 0.860366 -0.263929
C31   C     C_3   0.821050 0.443316 0.773070 -0.284634
C32   C     C_3   0.885977 0.381223 0.111105 -0.341207
C33   C     C_3   0.736363 0.818919 0.346876 0.118582
C34   C     C_R   0.420360 0.351930 0.239303 -0.224735
C35   C     C_3   0.863541 0.744683 0.317069 -0.818895
C36   C     C_3   0.336990 0.774460 0.290039 -0.371471
C37   C     C_3   0.970484 0.112124 0.375794 -0.327957
C38   C     C_3   0.239380 0.169853 0.634630 -0.230857
C39   C     C_3   0.688454 0.731684 0.709109 -0.173130
C40   C     C_3   0.886419 0.004002 0.618507 0.119082
C41   C     C_3   0.797707 0.113331 0.654567 -0.734010
C42   C     C_3   0.183739 0.608275 0.790272 -0.353383
C43   C     C_3   0.346564 0.536143 0.047229 0.118515
C44   C     C_3   0.226670 0.594558 0.099092 -0.877594
C45   C     C_R   0.644397 0.437550 0.212052 -0.347998
C46   C     C_R   0.652962 0.375317 0.133462 0.544898
C47   C     C_R   0.539331 0.308257 0.107818 0.082169
C48   C     C_2   0.432221 0.350643 0.985437 0.484729
C49   C     C_2   0.525224 0.284537 0.020400 -0.288337
H1    H     H_    0.067117 0.872196 0.394760 0.211015
H2    H     H_    0.233014 0.402372 0.892708 0.191649
H3    H     H_    0.341813 0.235567 0.143313 0.171537
H4    H     H_    0.661572 0.347583 0.882706 0.168995
H5    H     H_    0.860195 0.362464 0.803392 0.170374
H6    H     H_    0.796472 0.524167 0.818409 0.136988
H7    H     H_    0.903273 0.474153 0.729634 0.207138
H8    H     H_    0.965289 0.360322 0.060939 0.212992
H9    H     H_    0.886471 0.302427 0.152222 0.151660
H10   H     H_    0.913756 0.471546 0.143608 0.171424
H11   H     H_    0.722159 0.894179 0.304588 0.114874
H12   H     H_    0.712542 0.110155 0.474407 0.206423
H13   H     H_    0.650888 0.751555 0.342855 0.133505
H14   H     H_    0.898847 0.689892 0.366362 0.273191
H15   H     H_    0.842321 0.678530 0.264585 0.196155
H16   H     H_    0.943936 0.808563 0.294603 0.214261
H17   H     H_    0.432772 0.829175 0.288063 0.137682
H18   H     H_    0.258585 0.824138 0.259533 0.165124
H19   H     H_    0.358016 0.682837 0.255064 0.200379
H20   H     H_    0.952767 0.018426 0.345167 0.184485
H21   H     H_    0.047117 0.164529 0.338782 0.133486
H22   H     H_    0.872604 0.160905 0.376392 0.172099
H23   H     H_    0.885433 0.360526 0.405348 0.127684
H24   H     H_    0.346982 0.194703 0.640152 0.153478
H25   H     H_    0.222584 0.069321 0.647234 0.103080
H26   H     H_    0.179078 0.228067 0.682654 0.208211
H27   H     H_    0.656731 0.832045 0.715265 0.190443
H28   H     H_    0.770658 0.714446 0.749297 0.135901
H29   H     H_    0.599398 0.679586 0.732508 0.121562
H30   H     H_    0.853189 0.974270 0.557148 0.215578
H31   H     H_    0.992206 0.037435 0.612725 0.187512
H32   H     H_    0.828140 0.145076 0.716157 0.255042
H33   H     H_    0.808739 0.193279 0.614713 0.262180
H34   H     H_    0.330829 0.339216 0.279616 0.153964
H35   H     H_    0.690253 0.083696 0.659418 0.232637
H36   H     H_    0.258922 0.683690 0.777892 0.155733
H37   H     H_    0.162626 0.602319 0.857136 0.157892
H38   H     H_    0.087539 0.635289 0.766300 0.195631
H39   H     H_    0.357144 0.583786 0.989102 0.134337
H40   H     H_    0.438901 0.553818 0.080617 0.150532
H41   H     H_    0.213314 0.549527 0.157956 0.265626
H42   H     H_    0.243728 0.697125 0.111501 0.202227
H43   H     H_    0.133434 0.580956 0.066361 0.254611
H44   H     H_    0.131623 0.858114 0.663430 0.180831
H45   H     H_    0.239786 0.671238 0.608000 0.240508
H46   H     H_    0.135701 0.353862 0.408228 0.120581
H47   H     H_    0.726800 0.494984 0.232316 0.156133
H48   H     H_    0.607539 0.236005 0.984345 0.143940
N1    N     N_R   0.857140 0.501200 0.500750 -0.091707
N2    N     N_R   0.142740 0.501280 0.500770 -0.083087
O1    O     O_R   0.385310 0.683220 0.500000 -0.612204
O2    O     O_3   0.761087 0.392878 0.076650 -0.630335
O3    O     O_3   0.745914 0.872581 0.427734 -0.610962
O4    O     O_3   0.290807 0.750953 0.370524 -0.562121
O5    O     O_3   0.006923 0.105865 0.456912 -0.590752
O6    O     O_3   0.197527 0.198027 0.557828 -0.556864
O7    O     O_3   0.721372 0.692968 0.625620 -0.552718
O8    O     O_3   0.875111 0.904719 0.670665 -0.643827
O9    O     O_3   0.227157 0.492021 0.750373 -0.584789
O10   O     O_3   0.323705 0.405433 0.033294 -0.621643
O11   O     O_R   0.614640 0.683250 0.500010 -0.534729
O12   O     O_R   0.371780 0.500010 0.615800 -0.587709
O13   O     O_R   0.601110 0.500030 0.615800 -0.496498
O14   O     O_R   0.385360 0.316750 0.499990 -0.570681
O15   O     O_R   0.614690 0.316780 0.500000 -0.627770
O16   O     O_R   0.398890 0.499970 0.384200 -0.589310
O17   O     O_R   0.628220 0.499990 0.384200 -0.637135
O18   O     O_3   0.710309 0.405070 0.728368 -0.584570
Zn1   Zn    Zn3+2 0.346870 0.499980 0.499990 1.006496
Zn2   Zn    Zn3+2 0.653130 0.500020 0.500010 1.006817

loop_
_geom_bond_atom_site_label_1
_geom_bond_atom_site_label_2
_ccdc_geom_bond_type
C39   O7    S    
C30   H2    S    
C22   N1    A    
C37   H20   S    
C24   N2    A    
C19   C20   A    
C32   H9    S    
C16   O14   A    
C36   H18   S    
C7    C8    A    
C47   C49   S    
C37   H22   S    
C45   C46   A    
C26   C27   A    
C43   H40   S    
O12   Zn1   S    
C43   H39   S    
C39   H28   S    
C15   O7    S    
C28   C29   A    
C17   O8    S    
C5    C6    A    
C36   H17   S    
C35   H16   S    
C18   C19   A    
C31   O18   S    
C8    C9    A    
C40   H31   S    
C35   H15   S    
C42   H37   S    
C6    O5    S    
C31   H7    S    
C2    C25   S    
C9    C10   A    
O15   Zn2   S    
C44   H43   S    
C2    C34   A    
C48   O10   S    
C4    O13   A    
C37   H21   S    
C32   H8    S    
C1    O1    A    
C22   H23   S    
C38   H26   S    
C27   O18   S    
C2    C45   A    
C46   O2    S    
C23   C47   A    
C29   C48   S    
C33   O3    S    
C39   H29   S    
N1    Zn2   S    
C24   H46   S    
C12   O9    S    
C33   H13   S    
C41   H35   S    
C12   C26   A    
C43   C44   S    
C29   C30   A    
C3    C9    A    
C1    O11   A    
C37   O5    S    
O16   Zn1   S    
C41   H32   S    
C7    O6    S    
C17   C18   A    
C40   H30   S    
C42   H36   S    
C39   H27   S    
C19   H45   S    
C44   H42   S    
C40   O8    S    
C40   C41   S    
C4    O12   A    
C33   H11   S    
C36   O4    S    
C14   C16   S    
C5    H1    S    
C25   O17   A    
O1    Zn1   S    
C34   H34   S    
C44   H41   S    
C38   H25   S    
C3    O4    S    
C15   C17   A    
C46   C47   A    
C48   C49   D    
C23   C34   A    
C8    C14   A    
C12   C30   A    
C1    C10   S    
C3    C5    A    
C16   O15   A    
O11   Zn2   S    
O13   Zn2   S    
C4    C26   S    
C28   H4    S    
C36   H19   S    
C6    C7    A    
O17   Zn2   S    
C38   O6    S    
C25   O16   A    
N2    Zn1   S    
C21   N1    A    
C11   C13   A    
C23   H3    S    
C20   N2    A    
C41   H33   S    
C33   C35   S    
C11   O3    S    
C22   C24   A    
C31   H5    S    
C10   C11   A    
C49   H48   S    
O14   Zn1   S    
C15   C21   A    
C13   H12   S    
C20   C21   A    
C27   C28   A    
C18   H44   S    
C32   O2    S    
C35   H14   S    
C42   H38   S    
C43   O10   S    
C32   H10   S    
C31   H6    S    
C13   C14   A    
C45   H47   S    
C42   O9    S    
C38   H24   S    
