data_mof_unit_4296.cif
_audit_creation_date              2012-10-26T20:14:31-0400
_audit_creation_method            fapswitch 2.2
_symmetry_space_group_name_H-M    P1
_symmetry_Int_Tables_number       1
_space_group_crystal_system       triclinic
_cell_length_a                    7.784778
_cell_length_b                    9.093248
_cell_length_c                    17.382251
_cell_angle_alpha                 89.975685
_cell_angle_beta                  85.750659
_cell_angle_gamma                 90.006091
_cell_volume                      1227.08808276

loop_
_atom_site_label
_atom_site_type_symbol
_atom_type_description
_atom_site_fract_x
_atom_site_fract_y
_atom_site_fract_z
_atom_type_partial_charge
C1    C     C_R   0.500007 0.779968 0.499992 0.552309
C2    C     C_R   0.392154 0.452483 0.226810 -0.145302
C3    C     C_R   0.596703 0.554164 0.852993 -0.158839
C4    C     C_R   0.403204 0.446728 0.146957 -0.158882
C5    C     C_R   0.443002 0.514811 0.895431 0.037334
C6    C     C_R   0.556897 0.486223 0.104554 0.037333
C7    C     C_R   0.298036 0.473333 0.856681 0.269046
C8    C     C_R   0.701895 0.527474 0.143340 0.268983
C9    C     C_R   0.308648 0.472034 0.776145 -0.112670
C10   C     C_R   0.691324 0.528417 0.223877 -0.112716
C11   C     C_2   0.431924 0.516206 0.980004 -0.151046
C12   C     C_R   0.499993 0.220032 0.500007 0.552326
C13   C     C_2   0.567993 0.485063 0.019981 -0.150970
C14   C     C_3   0.138695 0.283388 0.907427 -0.014479
C15   C     C_3   0.969920 0.241385 0.951564 -0.371425
C16   C     C_3   0.861390 0.717601 0.092909 -0.014457
C17   C     C_3   0.030049 0.759715 0.048712 -0.371400
C18   C     C_1   0.500009 0.934626 0.499998 -0.049771
C19   C     C_1   0.499991 0.065374 0.500002 -0.049772
C20   C     C_R   0.477421 0.501360 0.650208 0.541682
C21   C     C_R   0.522577 0.498683 0.349791 0.541667
C22   C     C_R   0.464278 0.506544 0.734289 -0.030269
C23   C     C_R   0.535709 0.493753 0.265705 -0.030252
C24   C     C_R   0.607804 0.548029 0.773148 -0.145286
Cu1   Cu    Cu3+1 0.330920 0.500000 0.500000 1.019099
Cu2   Cu    Cu3+1 0.669080 0.500000 0.500000 1.019084
H1    H     H_    0.291603 0.409631 0.118793 0.134778
H2    H     H_    0.145650 0.225451 0.850784 0.129664
H3    H     H_    0.859959 0.273291 0.917908 0.153524
H4    H     H_    0.965715 0.120672 0.961143 0.089397
H5    H     H_    0.958432 0.297816 0.008378 0.187408
H6    H     H_    0.854778 0.775127 0.149663 0.129684
H7    H     H_    0.753537 0.755910 0.059193 0.133821
H8    H     H_    0.041313 0.703553 0.991822 0.187293
H9    H     H_    0.034284 0.880471 0.039287 0.089400
H10   H     H_    0.140123 0.727595 0.082246 0.153443
H11   H     H_    0.708285 0.591411 0.881123 0.134814
H12   H     H_    0.728183 0.578033 0.741793 0.148246
H13   H     H_    0.271788 0.422367 0.258140 0.148214
H14   H     H_    0.803814 0.559184 0.253345 0.138784
H15   H     H_    0.196175 0.441122 0.746703 0.138827
H16   H     H_    0.692393 0.462128 0.990308 0.165624
H17   H     H_    0.307520 0.539129 0.009673 0.165583
H18   H     H_    0.246435 0.245458 0.941316 0.133819
N1    N     N_1   0.923170 0.500000 0.500010 -0.084608
N2    N     N_1   0.076830 0.500000 0.499990 -0.084607
O1    O     O_R   0.357240 0.711600 0.500000 -0.494781
O2    O     O_3   0.855693 0.563508 0.102829 -0.574773
O3    O     O_R   0.642760 0.288400 0.500000 -0.494772
O4    O     O_R   0.642760 0.711600 0.500000 -0.497271
O5    O     O_R   0.357240 0.288400 0.500000 -0.497254
O6    O     O_R   0.340660 0.500000 0.613590 -0.509552
O7    O     O_R   0.659340 0.500000 0.386410 -0.509567
O8    O     O_R   0.626230 0.500000 0.613600 -0.505886
O9    O     O_R   0.373770 0.500000 0.386400 -0.505891
O10   O     O_3   0.144228 0.437416 0.897216 -0.574690

loop_
_geom_bond_atom_site_label_1
_geom_bond_atom_site_label_2
_ccdc_geom_bond_type
C14   O10   S    
C8    O2    S    
C15   H5    S    
C17   H10   S    
C16   H7    S    
C16   H6    S    
C15   H3    S    
C1    O4    A    
Cu1   O1    S    
C2    C4    A    
C16   O2    S    
Cu1   O5    S    
C12   O3    A    
C1    C18   S    
Cu1   O6    S    
C21   O9    A    
C20   O6    A    
N1    N2    T    
C6    C13   S    
C21   O7    A    
C11   C13   D    
C3    C24   A    
C7    O10   S    
Cu2   O8    S    
C12   C19   S    
C20   O8    A    
C13   H16   S    
C20   C22   S    
C5    C11   S    
C5    C7    A    
Cu2   O4    S    
C21   C23   S    
C10   C23   A    
C22   C24   A    
C11   H17   S    
C4    C6    A    
C17   H8    S    
C2    H13   S    
C24   H12   S    
Cu2   O7    S    
C12   O5    A    
C3    H11   S    
C15   H4    S    
C14   H18   S    
C9    C22   A    
Cu2   O3    S    
C2    C23   A    
C7    C9    A    
C14   C15   S    
C18   C19   T    
C10   H14   S    
C6    C8    A    
C4    H1    S    
C17   H9    S    
Cu2   N1    S    
C14   H2    S    
Cu1   Cu2   S    
C9    H15   S    
Cu1   N2    S    
C8    C10   A    
C1    O1    A    
Cu1   O9    S    
C16   C17   S    
C3    C5    A    
