data_mof_unit_43.cif
_audit_creation_date              2013-03-05T16:03:26-0500
_audit_creation_method            fapswitch 2.2
_symmetry_space_group_name_H-M    P1
_symmetry_Int_Tables_number       1
_space_group_crystal_system       triclinic
_cell_length_a                    6.948088
_cell_length_b                    18.316193
_cell_length_c                    20.112703
_cell_angle_alpha                 68.395454
_cell_angle_beta                  90.832499
_cell_angle_gamma                 90.726587
_cell_volume                      2379.44968672

loop_
_atom_site_label
_atom_site_type_symbol
_atom_site_description
_atom_site_fract_x
_atom_site_fract_y
_atom_site_fract_z
_atom_type_partial_charge
O1    O     O_R   0.488960 0.443750 0.941980 -0.593685
O2    O     O_R   0.823890 0.406510 0.087590 -0.591115
O3    O     O_R   0.999680 0.556250 0.058020 -0.594857
C1    C     C_R   0.655417 0.383642 0.115137 0.940681
O4    O     O_R   0.818360 0.434410 0.944340 -0.583218
O5    O     O_R   0.994110 0.584350 0.913750 -0.589325
C2    C     C_R   0.648589 0.420342 0.923857 0.973139
O6    O     O_R   0.494530 0.415650 0.086250 -0.589772
O7    O     O_3   0.662590 0.549160 0.990130 -0.275059
V1    V     V_3+5 0.935320 0.490880 0.001830 1.178704
O8    O     O_R   0.324180 0.593490 0.912410 -0.591033
C3    C     C_R   0.154612 0.616227 0.884864 0.934984
O9    O     O_R   0.329720 0.565590 0.055660 -0.593122
C4    C     C_R   0.162254 0.579736 0.076070 0.976944
V2    V     V_3+5 0.435990 0.509120 0.998170 1.171640
O10   O     O_3   0.158850 0.450840 0.009870 -0.269364
C5    C     C_3   0.001323 0.718179 0.300085 -0.247912
C6    C     C_3   0.182806 0.675495 0.288268 -0.243167
H1    H     H_    0.225889 0.614305 0.320345 0.140509
H2    H     H_    0.893611 0.691238 0.342514 0.172526
C7    C     C_1   0.156207 0.625623 0.121341 -0.309465
C8    C     C_1   0.110600 0.874440 0.378404 -0.263641
C9    C     C_3   0.960029 0.751148 0.217893 -0.208175
C10   C     C_3   0.142376 0.709533 0.206678 0.119309
C11   C     C_3   0.086773 0.823191 0.211067 0.371826
C12   C     C_3   0.125582 0.791731 0.291972 0.000847
C13   C     C_3   0.267966 0.782976 0.197713 -0.373565
C14   C     C_3   0.302816 0.749799 0.279392 0.528653
C15   C     C_1   0.150317 0.663567 0.159667 0.048606
C16   C     C_1   0.117514 0.836884 0.339763 0.155256
H3    H     H_    0.378191 0.810070 0.156246 0.170778
H4    H     H_    0.817736 0.752840 0.191545 0.143654
H5    H     H_    0.350770 0.540376 0.686535 0.147369
C17   C     C_R   0.007650 0.764922 0.879338 -0.163281
C18   C     C_R   0.947570 0.836526 0.880185 -0.157821
C19   C     C_R   0.966480 0.903968 0.819667 -0.171007
C20   C     C_R   0.040712 0.900605 0.756485 0.317078
C21   C     C_R   0.080163 0.826232 0.751593 -0.037121
C22   C     C_R   0.075425 0.758120 0.815880 0.106340
C23   C     C_R   0.124611 0.817645 0.685646 -0.293111
C24   C     C_R   0.183439 0.743414 0.686081 0.118980
C25   C     C_R   0.196514 0.677719 0.751651 0.109229
C26   C     C_R   0.142381 0.685067 0.816471 -0.276377
C27   C     C_R   0.229863 0.733007 0.621766 -0.169299
C28   C     C_R   0.289974 0.660497 0.622289 -0.098989
C29   C     C_R   0.304546 0.596674 0.686424 -0.040567
C30   C     C_R   0.258010 0.604785 0.750467 -0.160495
H6    H     H_    0.999690 0.715102 0.929223 0.121950
H7    H     H_    0.894963 0.840356 0.929223 0.158243
H8    H     H_    0.934089 0.960066 0.823313 0.163941
H9    H     H_    0.220092 0.780522 0.570296 0.098184
H10   H     H_    0.325073 0.653790 0.572573 0.134228
H11   H     H_    0.268968 0.553010 0.798787 0.124859
H12   H     H_    0.548853 0.362792 0.427093 0.124255
C31   C     C_R   0.651889 0.095670 0.250443 -0.177467
C32   C     C_R   0.672361 0.083500 0.186489 -0.006528
C33   C     C_R   0.686857 0.147150 0.122192 -0.086784
C34   C     C_R   0.679449 0.223523 0.121254 -0.172064
C35   C     C_R   0.657130 0.237766 0.185230 0.119913
C36   C     C_R   0.643683 0.172505 0.251226 0.104414
C37   C     C_R   0.645206 0.315419 0.184088 -0.301536
C38   C     C_R   0.618477 0.327739 0.248957 0.113169
C39   C     C_R   0.605973 0.262479 0.314993 0.113438
C40   C     C_R   0.619452 0.184847 0.316196 -0.291614
C41   C     C_R   0.605122 0.404537 0.249536 -0.169283
C42   C     C_R   0.579794 0.416679 0.313294 -0.111839
C43   C     C_R   0.568031 0.353014 0.377702 -0.094452
C44   C     C_R   0.581201 0.276689 0.378868 -0.149710
H13   H     H_    0.640758 0.044229 0.299042 0.122112
H14   H     H_    0.676193 0.024315 0.186820 0.169324
H15   H     H_    0.702964 0.137318 0.072687 0.135575
H16   H     H_    0.689954 0.271108 0.069851 0.098242
H17   H     H_    0.614508 0.455976 0.200869 0.111934
H18   H     H_    0.569683 0.475851 0.312714 0.117474
H19   H     H_    0.571867 0.229105 0.430314 0.085363
O11   O     O_R   0.770540 0.084530 0.414050 -0.595155
O12   O     O_R   0.445710 0.065660 0.555720 -0.558675
O13   O     O_R   0.270420 0.915650 0.586190 -0.564079
C45   C     C_R   0.615272 0.080339 0.575841 1.013685
O14   O     O_R   0.441140 0.093540 0.412470 -0.597779
O15   O     O_R   0.265820 0.943740 0.441930 -0.595924
C46   C     C_R   0.609650 0.116594 0.385134 0.924974
O16   O     O_R   0.775150 0.056440 0.558310 -0.564329
O17   O     O_3   0.602370 0.950960 0.510050 -0.280679
V3    V     V_3+5 0.329450 0.009140 0.498150 1.229607
O18   O     O_R   0.935790 0.934280 0.444060 -0.594851
C47   C     C_R   0.103556 0.920151 0.423808 0.957120
O19   O     O_R   0.940370 0.906390 0.587310 -0.598448
C48   C     C_R   0.109865 0.885070 0.616069 1.011641
V4    V     V_3+5 0.828810 0.990710 0.501460 1.212562
O20   O     O_3   0.105780 0.049100 0.489960 -0.261986
C49   C     C_3   0.761410 0.307773 0.726433 0.389092
C50   C     C_3   0.588461 0.299337 0.681138 -0.234017
H20   H     H_    0.554716 0.339119 0.625558 0.159064
H21   H     H_    0.313335 0.308112 0.746885 0.187695
C51   C     C_1   0.624816 0.126671 0.620733 -0.170650
C52   C     C_1   0.638258 0.374905 0.878202 -0.269035
C53   C     C_3   0.808259 0.219983 0.749902 -0.235222
C54   C     C_3   0.631816 0.210767 0.706048 0.151842
C55   C     C_3   0.676651 0.203684 0.815893 -0.206080
C56   C     C_3   0.633425 0.292287 0.791549 0.051741
C57   C     C_3   0.500608 0.193568 0.771427 -0.094499
C58   C     C_3   0.457779 0.282698 0.747425 -0.175853
C59   C     C_1   0.629121 0.164817 0.658943 0.067546
C60   C     C_1   0.634332 0.337459 0.839382 0.088578
H22   H     H_    0.391590 0.145674 0.789872 0.142774
H23   H     H_    0.711990 0.164296 0.871452 0.153179
H24   H     H_    0.953555 0.195255 0.750288 0.159079
N1    N     N_R   0.104713 0.973018 0.703560 0.215183
O21   O     O_R   0.996997 0.034922 0.686634 -0.430409
O22   O     O_R   0.287937 0.982732 0.690542 -0.420136
N2    N     N_R   0.906101 0.369785 0.700185 0.224264
O23   O     O_R   0.004515 0.376597 0.643672 -0.421457
O24   O     O_R   0.938764 0.418151 0.732947 -0.427007
O25   O     O_3   0.481651 0.749277 0.312194 -0.748910
H25   H     H_    0.563263 0.714829 0.296451 0.303636
N3    N     N_R   0.034147 0.903457 0.167250 0.238779
O26   O     O_R   0.997710 0.921985 0.099443 -0.403884
O27   O     O_R   0.031337 0.957561 0.194687 -0.430820

loop_
_geom_bond_atom_site_label_1
_geom_bond_atom_site_label_2
_geom_bond_distance
_ccdc_geom_bond_type
C45   O16   1.298957 A    
C31   C32   1.393454 A    
C50   H20   1.110146 S    
C24   C25   1.423407 A    
C18   C19   1.384928 A    
C10   C13   1.549110 S    
C1    O6    1.295291 A    
C50   C58   1.556833 S    
O14   V3    2.002076 S    
N2    O24   1.300356 A    
V3    O20   1.706055 S    
C49   C53   1.537600 S    
C28   C29   1.389062 A    
C44   H19   1.082077 S    
C31   C36   1.415072 A    
C5    C9    1.560514 S    
C6    C10   1.548584 S    
C5    C12   1.549084 S    
C4    C7    1.450080 S    
C19   C20   1.400758 A    
C20   C21   1.431593 A    
C6    H1    1.110125 S    
C3    C26   1.487063 S    
N3    O27   1.300168 A    
O5    C3    1.294056 A    
C21   C22   1.428856 A    
C53   C54   1.543493 S    
V2    O10   2.163060 S    
C42   H18   1.082727 S    
C5    H2    1.109470 S    
C41   H17   1.082218 S    
C32   C33   1.390048 A    
C17   C18   1.387505 A    
C10   C15   1.481481 S    
C55   C56   1.544849 S    
C29   C30   1.392844 A    
O8    V2    1.998848 S    
C18   H7    1.083231 S    
C9    C10   1.548067 S    
C57   H22   1.110214 S    
O1    V2    1.966204 S    
C23   C48   1.490085 S    
C8    C16   1.214536 T    
O7    V1    2.153850 S    
C50   C54   1.543701 S    
C20   N1    1.431473 S    
C30   H11   1.081933 S    
C52   C60   1.214088 T    
C42   C43   1.390259 A    
O12   V3    1.974653 S    
C35   C36   1.425416 A    
C56   C58   1.544567 S    
O9    C4    1.299765 A    
H5    C29   1.083118 S    
C57   C58   1.553877 S    
O17   V4    1.709241 S    
N2    O23   1.300390 A    
H21   C58   1.109877 S    
O12   C45   1.297028 A    
O13   C48   1.294245 A    
C56   C60   1.481889 S    
C35   C37   1.417471 A    
C13   H3    1.110180 S    
C17   C22   1.415015 A    
C6    C14   1.541431 S    
O17   V3    2.153823 S    
O14   C46   1.298703 A    
O18   V4    1.968937 S    
O11   C46   1.295774 A    
O4    C2    1.297641 A    
O18   C47   1.300269 A    
C49   N2    1.457527 S    
C22   C26   1.418056 A    
H12   C43   1.082646 S    
C28   H10   1.082902 S    
C11   C12   1.534045 S    
C7    C15   1.214502 T    
C1    C37   1.488013 S    
C43   C44   1.393678 A    
O2    C1    1.299286 A    
C38   C39   1.425472 A    
C14   O25   1.396832 S    
O9    V2    1.968975 S    
C55   C57   1.553965 S    
C5    C6    1.558292 S    
C31   H13   1.082257 S    
C8    C47   1.450064 S    
C33   H15   1.082639 S    
C40   C46   1.487981 S    
O15   C47   1.297025 A    
O3    C4    1.297524 A    
C49   C56   1.529814 S    
C27   H9    1.081512 S    
C23   C24   1.421602 A    
O19   V4    1.998796 S    
C12   C16   1.482967 S    
O6    V2    1.999515 S    
C53   C55   1.556747 S    
C51   C59   1.214043 T    
C24   C27   1.417363 A    
C17   H6    1.080982 S    
C25   C26   1.415603 A    
V4    O20   2.163151 S    
O2    V1    2.002062 S    
C19   H8    1.083347 S    
C27   C28   1.393581 A    
O13   V3    2.001587 S    
O16   V4    1.983253 S    
C39   C44   1.414778 A    
C55   H23   1.110092 S    
C2    C52   1.449235 S    
C38   C41   1.415213 A    
O1    C2    1.298348 A    
C53   H24   1.110464 S    
C12   C14   1.531816 S    
C11   N3    1.456674 S    
O5    V1    2.001511 S    
O8    C3    1.300780 A    
C11   C13   1.542293 S    
C32   H14   1.082277 S    
C36   C40   1.418406 A    
C9    H4    1.110268 S    
N1    O22   1.300196 A    
C34   C35   1.414849 A    
O4    V1    1.974657 S    
O3    V1    1.969504 S    
V1    O10   1.705988 S    
N3    O26   1.300193 A    
C21   C23   1.430429 A    
C34   H16   1.082071 S    
C33   C34   1.393625 A    
C49   C50   1.537835 S    
C54   C59   1.480713 S    
C25   C30   1.416306 A    
C9    C11   1.541491 S    
O7    V2    1.712784 S    
C37   C38   1.418640 A    
C39   C40   1.417454 A    
C45   C51   1.449440 S    
C54   C57   1.543343 S    
O19   C48   1.303641 A    
C41   C42   1.393704 A    
C13   C14   1.543923 S    
N1    O21   1.300586 A    
O15   V3    1.969368 S    
O25   H25   0.990613 S    
O11   V4    1.994966 S    
