data_mof_unit_1063.cif
_audit_creation_date              2012-12-11T14:35:53-0500
_audit_creation_method            fapswitch 2.2
_symmetry_space_group_name_H-M    P1
_symmetry_Int_Tables_number       1
_space_group_crystal_system       monoclinic
_cell_length_a                    14.138775
_cell_length_b                    16.487344
_cell_length_c                    7.060405
_cell_angle_alpha                 90.0
_cell_angle_beta                  81.043154
_cell_angle_gamma                 90.0
_cell_volume                      1625.78721923

loop_
_atom_site_label
_atom_site_type_symbol
_atom_type_description
_atom_site_fract_x
_atom_site_fract_y
_atom_site_fract_z
_atom_type_partial_charge
O1    O     O_R   0.337460 0.413110 0.524760 -0.536709
O2    O     O_R   0.662540 0.913110 0.475240 -0.536709
O3    O     O_R   0.348690 0.587910 0.191230 -0.547211
O4    O     O_R   0.651310 0.087910 0.808770 -0.547210
O5    O     O_R   0.166530 0.586890 0.082470 -0.547550
O6    O     O_R   0.833470 0.086890 0.917530 -0.547550
C1    C     C_R   0.369473 0.616646 0.354210 0.755677
C2    C     C_R   0.630527 0.116646 0.645790 0.755677
O7    O     O_R   0.348700 0.413830 0.191250 -0.548918
O8    O     O_R   0.651300 0.913830 0.808750 -0.548918
O9    O     O_R   0.166530 0.411570 0.082490 -0.548428
O10   O     O_R   0.833470 0.911570 0.917510 -0.548429
C3    C     C_R   0.373177 0.387491 0.354136 0.743960
C4    C     C_R   0.626823 0.887492 0.645864 0.743960
O11   O     O_R   0.337460 0.588430 0.524740 -0.540699
O12   O     O_R   0.662540 0.088430 0.475260 -0.540699
O13   O     O_3   0.192230 0.499460 0.407330 -0.355883
O14   O     O_3   0.807770 0.999460 0.592670 -0.355883
V1    V     V_3+5 0.263080 0.500100 0.108540 1.404025
V2    V     V_3+5 0.736920 0.000100 0.891460 1.404025
O15   O     O_R   0.155290 0.412090 0.756570 -0.540791
O16   O     O_R   0.844710 0.912090 0.243430 -0.540791
C5    C     C_R   0.129075 0.386820 0.933728 0.722838
C6    C     C_R   0.870925 0.886820 0.066272 0.722840
O17   O     O_R   0.155290 0.586170 0.756550 -0.492924
O18   O     O_R   0.844710 0.086170 0.243450 -0.492924
C7    C     C_R   0.131035 0.614012 0.932594 0.744337
C8    C     C_R   0.868965 0.114012 0.067406 0.744337
V3    V     V_3+5 0.240910 0.499900 0.616030 1.470147
V4    V     V_3+5 0.759090 0.999900 0.383970 1.470149
O19   O     O_3   0.311760 0.500540 0.867100 -0.384930
O20   O     O_3   0.688240 0.000540 0.132900 -0.384930
C9    C     C_3   0.088621 0.742797 0.119612 -0.413979
C10   C     C_3   0.911378 0.242798 0.880389 -0.413980
H1    H     H_    0.112004 0.708874 0.235242 0.229099
H2    H     H_    0.887995 0.208874 0.764759 0.229098
H3    H     H_    0.156082 0.775066 0.060212 0.143411
H4    H     H_    0.843917 0.275066 0.939790 0.143409
C11   C     C_3   0.008063 0.805317 0.189924 0.017236
C12   C     C_3   0.991935 0.305318 0.810078 0.017233
H5    H     H_    0.961995 0.782060 0.318858 0.192201
H6    H     H_    0.038003 0.282062 0.681142 0.192200
C13   C     C_3   0.949641 0.657327 0.028812 0.395831
C14   C     C_3   0.050359 0.157328 0.971187 0.395829
C15   C     C_3   0.068473 0.743561 0.788478 0.105188
C16   C     C_3   0.931527 0.243561 0.211523 0.105188
C17   C     C_3   0.059019 0.685474 0.965538 -0.045118
C18   C     C_3   0.940981 0.185474 0.034462 -0.045117
H7    H     H_    0.145157 0.759909 0.744243 0.119930
H8    H     H_    0.854843 0.259910 0.255758 0.119929
C19   C     C_3   0.941052 0.815495 0.032253 -0.012313
C20   C     C_3   0.058948 0.315496 0.967747 -0.012313
C21   C     C_3   0.882153 0.734118 0.026922 -0.090647
C22   C     C_3   0.117847 0.234119 0.973076 -0.090647
C23   C     C_3   0.005272 0.821870 0.829376 -0.055621
C24   C     C_3   0.994728 0.321869 0.170625 -0.055621
H9    H     H_    0.956383 0.825901 0.720358 0.179063
H10   H     H_    0.043618 0.325900 0.279642 0.179062
H11   H     H_    0.855580 0.733710 0.886446 0.192555
H12   H     H_    0.144421 0.233710 0.113551 0.192555
H13   H     H_    0.428698 0.697807 0.646676 0.135088
H14   H     H_    0.571300 0.197806 0.353324 0.135089
C25   C     C_2   0.432704 0.688389 0.346416 -0.332830
C26   C     C_2   0.567296 0.188390 0.653583 -0.332831
C27   C     C_2   0.452964 0.724984 0.507332 -0.132871
C28   C     C_2   0.547036 0.224984 0.492667 -0.132873
H15   H     H_    0.550577 0.779208 0.773486 0.102928
H16   H     H_    0.449421 0.279207 0.226516 0.102928
C29   C     C_2   0.557362 0.819475 0.650211 -0.328916
C30   C     C_2   0.442638 0.319474 0.349789 -0.328916
C31   C     C_2   0.508400 0.801944 0.502947 0.173609
C32   C     C_2   0.491600 0.301944 0.497052 0.173610
H17   H     H_    0.460453 0.712962 0.206058 0.135979
H18   H     H_    0.539549 0.212964 0.793941 0.135979
Br1   Br    Br    0.906258 0.576252 0.858175 -0.628405
Br2   Br    Br    0.093743 0.076254 0.141824 -0.628402
C33   C     C_3   0.503120 0.860958 0.339854 -0.655362
H19   H     H_    0.439007 0.849617 0.270850 0.182105
H20   H     H_    0.495732 0.924237 0.394152 0.192086
H21   H     H_    0.567788 0.855029 0.229308 0.207398
C34   C     C_3   0.496882 0.360959 0.660142 -0.655364
H22   H     H_    0.560995 0.349618 0.729145 0.182105
H23   H     H_    0.504271 0.424238 0.605840 0.192085
H24   H     H_    0.432214 0.355032 0.770689 0.207399
C35   C     C_3   0.054229 0.881151 0.261754 -0.707022
H25   H     H_    0.000969 0.925897 0.328576 0.253919
H26   H     H_    0.097306 0.861861 0.372005 0.218039
H27   H     H_    0.105675 0.909803 0.149046 0.254981
C36   C     C_3   0.945768 0.381152 0.738251 -0.707006
H28   H     H_    0.999029 0.425900 0.671433 0.253921
H29   H     H_    0.902693 0.361861 0.627995 0.218038
H30   H     H_    0.894318 0.409802 0.850962 0.254978
C37   C     C_3   0.934385 0.613084 0.225188 -0.671690
H31   H     H_    0.915331 0.655096 0.344871 0.248916
H32   H     H_    0.872583 0.570770 0.239171 0.227223
H33   H     H_    0.997829 0.577417 0.248482 0.231027
C38   C     C_3   0.065615 0.113084 0.774811 -0.671687
H34   H     H_    0.084668 0.155096 0.655129 0.248916
H35   H     H_    0.127417 0.070770 0.760828 0.227223
H36   H     H_    0.002170 0.077417 0.751518 0.231027
C39   C     C_3   0.788059 0.730515 0.173024 -0.769156
H37   H     H_    0.799894 0.746163 0.320300 0.215434
H38   H     H_    0.734721 0.773924 0.131780 0.200374
H39   H     H_    0.755071 0.669418 0.173283 0.245825
C40   C     C_3   0.211940 0.230515 0.826972 -0.769156
H40   H     H_    0.200105 0.246164 0.679698 0.215435
H41   H     H_    0.265278 0.273924 0.868216 0.200375
H42   H     H_    0.244928 0.169418 0.826711 0.245825
Br3   Br    Br    0.037537 0.689253 0.571955 -0.655515
Br4   Br    Br    0.962462 0.189253 0.428046 -0.655515
C41   C     C_3   0.065941 0.899975 0.801439 -0.770501
H43   H     H_    0.074542 0.920691 0.651153 0.220142
H44   H     H_    0.030105 0.950011 0.888810 0.235737
H45   H     H_    0.138781 0.891382 0.837831 0.217674
C42   C     C_3   0.934060 0.399975 0.198565 -0.770496
H46   H     H_    0.925465 0.420693 0.348850 0.220141
H47   H     H_    0.969896 0.450010 0.111186 0.235737
H48   H     H_    0.861219 0.391382 0.162181 0.217672

loop_
_geom_bond_atom_site_label_1
_geom_bond_atom_site_label_2
_ccdc_geom_bond_type
C11   C19   S    
C25   C27   D    
C37   H31   S    
C15   C23   S    
O13   V3    S    
C41   H43   S    
O4    C2    A    
V1    O19   S    
C38   H36   S    
C34   H22   S    
C21   H11   S    
C11   H5    S    
C22   H12   S    
C33   H19   S    
C28   C32   S    
C40   H41   S    
O9    V1    S    
C39   H37   S    
C10   C12   S    
O7    V1    S    
O3    C1    A    
C35   H25   S    
C15   Br3   S    
C33   H21   S    
C3    C30   S    
O12   V4    S    
C42   H46   S    
C38   H34   S    
C14   Br2   S    
C15   C17   S    
C29   C31   D    
O7    C3    A    
O13   V1    S    
O5    C7    A    
C13   C21   S    
O6    C8    A    
C21   C39   S    
C42   H47   S    
O3    V1    S    
O14   V4    S    
C12   C36   S    
C36   H29   S    
C19   C23   S    
C32   C34   S    
C6    C19   S    
C33   H20   S    
C2    O12   A    
C13   Br1   S    
C13   C37   S    
C38   H35   S    
C20   C22   S    
O11   V3    S    
C35   H26   S    
O15   C5    A    
O17   V3    S    
C40   H42   S    
C16   C18   S    
H14   C28   S    
O8    C4    A    
O8    V2    S    
C1    O11   A    
C25   H17   S    
C12   C20   S    
O15   V3    S    
C9    H3    S    
H15   C29   S    
C26   C28   D    
H13   C27   S    
C14   C38   S    
C15   H7    S    
C42   H48   S    
O10   V2    S    
O1    V3    S    
C41   H44   S    
C9    C11   S    
C36   H30   S    
C1    C25   S    
C2    C26   S    
O18   V4    S    
C37   H33   S    
C23   H9    S    
C9    C17   S    
C4    C29   S    
O16   C6    A    
O1    C3    A    
C11   C35   S    
C31   C33   S    
C34   H24   S    
V2    O20   S    
C35   H27   S    
C7    C17   S    
O10   C6    A    
C8    C18   S    
O16   V4    S    
C22   C40   S    
C23   C41   S    
C10   H4    S    
C12   H6    S    
C34   H23   S    
O5    V1    S    
O17   C7    A    
O6    V2    S    
C40   H40   S    
C16   H8    S    
O18   C8    A    
C39   H38   S    
O2    V4    S    
C16   Br4   S    
V3    O19   S    
C14   C18   S    
C27   C31   S    
V4    O20   S    
C5    C20   S    
C37   H32   S    
O9    C5    A    
C9    H1    S    
C24   C42   S    
C24   H10   S    
C41   H45   S    
O14   V2    S    
O2    C4    A    
O4    V2    S    
C14   C22   S    
C10   C18   S    
C10   H2    S    
H16   C30   S    
C16   C24   S    
C26   H18   S    
C30   C32   D    
C39   H39   S    
C19   C21   S    
C36   H28   S    
C13   C17   S    
C20   C24   S    
