data_mof_unit_1966.cif
_audit_creation_date              2013-03-05T16:15:22-0500
_audit_creation_method            fapswitch 2.2
_symmetry_space_group_name_H-M    P1
_symmetry_Int_Tables_number       1
_space_group_crystal_system       triclinic
_cell_length_a                    27.749194
_cell_length_b                    10.821019
_cell_length_c                    9.504277
_cell_angle_alpha                 89.88111
_cell_angle_beta                  88.961802
_cell_angle_gamma                 90.954257
_cell_volume                      2853.02024526

loop_
_atom_site_label
_atom_site_type_symbol
_atom_site_description
_atom_site_fract_x
_atom_site_fract_y
_atom_site_fract_z
_atom_type_partial_charge
O1    O     O_R   0.500020 0.316850 0.620870 -0.513608
O2    O     O_R   0.499980 0.683150 0.379130 -0.514246
O3    O     O_R   0.500000 0.316860 0.379090 -0.579333
O4    O     O_R   0.500000 0.683140 0.620910 -0.578366
C1    C     C_R   0.499982 0.259905 0.499814 0.909163
C2    C     C_R   0.499945 0.740083 0.500193 0.906775
O5    O     O_R   0.430270 0.500020 0.620880 -0.592136
O6    O     O_R   0.569730 0.499980 0.379120 -0.596915
O7    O     O_R   0.430250 0.500030 0.379090 -0.567942
O8    O     O_R   0.569750 0.499970 0.620910 -0.572624
C3    C     C_R   0.407720 0.498657 0.500860 0.816777
C4    C     C_R   0.592352 0.502510 0.498774 0.823750
Cu1   Cu    Cu3+1 0.500010 0.499990 0.643150 1.040613
Cu2   Cu    Cu3+1 0.499990 0.500010 0.356850 1.038824
C5    C     C_R   0.175260 0.389600 0.524775 0.593260
C6    C     C_R   0.823357 0.632582 0.498020 0.594516
O9    O     O_2   0.197773 0.287722 0.569487 -0.436732
O10   O     O_2   0.799633 0.735221 0.536638 -0.431765
N1    N     N_R   0.202270 0.492508 0.492558 -0.482183
N2    N     N_R   0.797829 0.526042 0.476781 -0.485095
C7    C     C_R   0.181388 0.601626 0.459704 0.610200
C8    C     C_R   0.819962 0.418860 0.441099 0.609431
C9    C     C_R   0.278149 0.555251 0.602721 -0.063389
C10   C     C_R   0.722223 0.489296 0.609560 -0.077885
C11   C     C_R   0.328355 0.558291 0.603946 -0.161368
C12   C     C_R   0.671951 0.481945 0.614715 -0.133172
C13   C     C_R   0.330493 0.426784 0.397727 -0.173787
C14   C     C_R   0.669718 0.550076 0.371398 -0.195107
C15   C     C_R   0.280200 0.423498 0.396758 -0.059342
C16   C     C_R   0.719880 0.558113 0.366858 -0.064709
C17   C     C_R   0.253871 0.488306 0.498852 0.303528
C18   C     C_R   0.746235 0.527026 0.485496 0.320623
C19   C     C_R   0.102092 0.505630 0.487394 -0.116372
C20   C     C_R   0.898089 0.521622 0.462307 -0.118907
C21   C     C_R   0.124438 0.391403 0.514183 -0.114385
C22   C     C_R   0.873944 0.634516 0.480565 -0.115552
C23   C     C_R   0.095073 0.285179 0.536597 0.327792
C24   C     C_R   0.901084 0.745184 0.476628 0.319370
C25   C     C_R   0.130810 0.612995 0.467583 -0.159918
C26   C     C_R   0.870943 0.411778 0.440896 -0.160764
C27   C     C_R   0.354868 0.494022 0.501672 -0.018598
C28   C     C_R   0.645315 0.510965 0.495017 -0.032147
H1    H     H_    0.350366 0.376717 0.317610 0.173584
H2    H     H_    0.650084 0.575074 0.278389 0.172652
H3    H     H_    0.261689 0.372545 0.315405 0.170577
H4    H     H_    0.738373 0.586730 0.270579 0.158244
C29   C     C_R   0.973075 0.405395 0.454494 -0.066616
C30   C     C_R   0.028265 0.629287 0.477336 -0.061905
C31   C     C_R   0.976620 0.631786 0.471292 0.041802
C32   C     C_R   0.023045 0.402237 0.483210 0.049334
C33   C     C_R   0.949374 0.519444 0.464159 0.050036
C34   C     C_R   0.051017 0.512637 0.481078 0.052460
C35   C     C_R   0.946237 0.299034 0.411959 0.204176
C36   C     C_R   0.058508 0.737309 0.485831 0.209405
C37   C     C_R   0.895509 0.301161 0.411386 0.258395
C38   C     C_R   0.108522 0.728719 0.464909 0.262491
O11   O     O_2   0.792239 0.321067 0.404616 -0.433665
O12   O     O_2   0.209875 0.698195 0.419923 -0.430573
C39   C     C_R   0.045308 0.292146 0.523260 -0.145167
C40   C     C_R   0.950902 0.742346 0.461517 -0.153569
H5    H     H_    0.654009 0.451755 0.711291 0.175617
H6    H     H_    0.346310 0.614369 0.681480 0.153673
H7    H     H_    0.742578 0.464222 0.701186 0.156806
H8    H     H_    0.258010 0.606884 0.680836 0.165624
H9    H     H_    0.024168 0.209581 0.546324 0.223137
H10   H     H_    0.967872 0.829297 0.436044 0.235023
C41   C     C_3   0.540527 0.042086 0.554440 0.276029
C42   C     C_3   0.459291 0.957850 0.445646 0.271831
C43   C     C_3   0.538226 0.958559 0.422534 -0.308298
C44   C     C_3   0.461593 0.041404 0.577515 -0.312098
H11   H     H_    0.569709 0.926142 0.360029 0.240945
H12   H     H_    0.430112 0.073827 0.640022 0.241565
C45   C     C_3   0.499786 0.876438 0.500810 -0.280967
C46   C     C_3   0.500041 0.123525 0.499228 -0.280926
C47   C     C_3   0.502991 0.960288 0.631018 0.287397
C48   C     C_3   0.496817 0.039643 0.369032 0.288340
C49   C     C_3   0.506223 0.608792 0.047917 0.438997
C50   C     C_3   0.493868 0.391178 0.952150 0.437049
C51   C     C_3   0.465950 0.567195 0.952266 0.092270
C52   C     C_3   0.534160 0.432781 0.047972 0.074370
N3    N     N_3   0.500040 0.499970 0.858290 -0.239534
N4    N     N_3   0.499960 0.500030 0.141710 -0.241060
C53   C     C_3   0.540813 0.543326 0.946318 -0.161933
C54   C     C_3   0.459291 0.456553 0.053700 -0.150384
H13   H     H_    0.574745 0.580914 0.898122 0.185498
H14   H     H_    0.425358 0.418966 0.101899 0.182936
N5    N     N_R   0.585670 0.084825 0.615367 0.181609
O13   O     O_R   0.617267 0.004865 0.654347 -0.257764
O14   O     O_R   0.596043 0.202204 0.622796 -0.349212
N6    N     N_R   0.414140 0.915060 0.384807 0.180980
O15   O     O_R   0.382543 0.994992 0.345756 -0.262529
O16   O     O_R   0.403731 0.797678 0.377752 -0.338512
N7    N     N_R   0.506981 0.918096 0.775781 0.184544
O17   O     O_R   0.473389 0.943532 0.867807 -0.228035
O18   O     O_R   0.544331 0.856194 0.813947 -0.272633
N8    N     N_R   0.492724 0.081602 0.224219 0.183054
O19   O     O_R   0.525947 0.054676 0.131638 -0.226148
O20   O     O_R   0.455455 0.143961 0.186329 -0.279857
C55   C     C_3   0.424314 0.642477 0.899329 -0.633087
H15   H     H_    0.396577 0.578329 0.858164 0.205346
H16   H     H_    0.407846 0.694591 0.987769 0.256568
H17   H     H_    0.436768 0.708113 0.816395 0.261796
C56   C     C_3   0.575228 0.355255 0.101814 -0.611923
H18   H     H_    0.592793 0.306807 0.012375 0.247284
H19   H     H_    0.602692 0.415750 0.150967 0.208235
H20   H     H_    0.561495 0.286014 0.179099 0.266695
N9    N     N_R   0.514340 0.732630 0.102453 0.177478
O21   O     O_R   0.478203 0.805276 0.125107 -0.255501
O22   O     O_R   0.557787 0.770008 0.131701 -0.326733
N10   N     N_R   0.485759 0.267305 0.897657 0.176730
O23   O     O_R   0.521893 0.194592 0.875239 -0.258721
O24   O     O_R   0.442300 0.229743 0.868831 -0.317805
N11   N     N_R   0.115109 0.166875 0.562809 0.191362
O25   O     O_R   0.100198 0.101732 0.670751 -0.232157
O26   O     O_R   0.141134 0.115436 0.464924 -0.190556
N12   N     N_R   0.878822 0.862913 0.478573 0.190389
O27   O     O_R   0.890969 0.942988 0.573983 -0.228352
O28   O     O_R   0.852597 0.896366 0.373447 -0.216250
N13   N     N_R   0.869388 0.190481 0.377272 0.208082
O29   O     O_R   0.869800 0.149191 0.248800 -0.227206
O30   O     O_R   0.843088 0.134734 0.473462 -0.188446
N14   N     N_R   0.136925 0.839988 0.459801 0.213599
O31   O     O_R   0.147322 0.890511 0.338449 -0.210614
O32   O     O_R   0.158777 0.878096 0.572075 -0.215804
N15   N     N_R   0.970162 0.194395 0.351136 0.144899
O33   O     O_R   0.958421 0.082498 0.390273 -0.249323
O34   O     O_R   0.002784 0.210865 0.252464 -0.278114
N16   N     N_R   0.040949 0.853093 0.536665 0.131805
O35   O     O_R   0.021014 0.859742 0.661352 -0.272595
O36   O     O_R   0.047322 0.953261 0.462213 -0.244425

loop_
_geom_bond_atom_site_label_1
_geom_bond_atom_site_label_2
_geom_bond_distance
_ccdc_geom_bond_type
N5    O13   1.300137 A    
N7    O17   1.299867 A    
C13   C15   1.395654 A    
C45   C47   1.539038 S    
C35   C37   1.408350 A    
N1    C17   1.435684 S    
N16   O35   1.301332 A    
C8    O11   1.347558 S    
C37   N13   1.430431 S    
C19   C34   1.422908 A    
C30   C36   1.430839 A    
C47   N7    1.455437 S    
C20   C33   1.424120 A    
C19   C25   1.408228 A    
C31   C40   1.406986 A    
C46   C48   1.539184 S    
O1    C1    1.306305 A    
C32   C39   1.406023 A    
C51   C55   1.517359 S    
N1    C7    1.362097 A    
C12   H5    1.083470 S    
C54   H14   1.110293 S    
C51   C54   1.542192 S    
C50   C52   1.517885 S    
C23   N11   1.427381 S    
C49   C53   1.532140 S    
Cu1   N3    2.044766 S    
C1    C46   1.475822 S    
N12   O27   1.300517 A    
C43   C48   1.549731 S    
C14   C28   1.406295 A    
O4    Cu1   1.992679 S    
C43   H11   1.109705 S    
N10   O23   1.299645 A    
C4    C28   1.470784 S    
C5    N1    1.363094 A    
C35   N15   1.439065 S    
N6    O16   1.300064 A    
C25   C38   1.406236 A    
C31   C33   1.423238 A    
N8    O20   1.300101 A    
C44   C46   1.555157 S    
C32   C34   1.413682 A    
N9    O21   1.299611 A    
C43   C45   1.554948 S    
C53   H13   1.110265 S    
C6    N2    1.360366 A    
C29   C35   1.423731 A    
C49   C51   1.516492 S    
C40   H10   1.070438 S    
N7    O18   1.300082 A    
Cu1   Cu2   2.721083 S    
N9    O22   1.300301 A    
O2    C2    1.306288 A    
C52   C53   1.542663 S    
C5    C21   1.416120 A    
N3    C53   1.489437 S    
C29   C32   1.419023 A    
N13   O30   1.300457 A    
C36   C38   1.403116 A    
C52   C56   1.521687 S    
C49   N9    1.453341 S    
C50   N10   1.453504 S    
C11   C27   1.401331 A    
C51   N3    1.488887 S    
C29   C33   1.410460 A    
C42   C45   1.538213 S    
C36   N16   1.433501 S    
C14   H2    1.082963 S    
C15   H3    1.082782 S    
C41   C43   1.548676 S    
C9    C17   1.401428 A    
O5    C3    1.310951 A    
O7    Cu2   1.942931 S    
C10   C18   1.400529 A    
C50   C54   1.531175 S    
C24   N12   1.425066 S    
C13   C27   1.404876 A    
C42   N6    1.458257 S    
C55   H15   1.105238 S    
C7    C25   1.411584 A    
C30   C34   1.421399 A    
O6    C4    1.309011 A    
C26   C37   1.413429 A    
C8    C26   1.417996 A    
N8    O19   1.299874 A    
C56   H19   1.106862 S    
C41   C46   1.538349 S    
O7    C3    1.305333 A    
C23   C39   1.392297 A    
O3    Cu2   1.992678 S    
O8    C4    1.309391 A    
C24   C40   1.388112 A    
O4    C2    1.301227 A    
C9    H8    1.082934 S    
C55   H16   1.109050 S    
N2    C8    1.362058 A    
C10   H7    1.083037 S    
N4    C54   1.487545 S    
N5    O14   1.300030 A    
N15   O33   1.300470 A    
C20   C26   1.413655 A    
O1    Cu1   1.993485 S    
Cu2   N4    2.044766 S    
N14   O32   1.301295 A    
C44   C47   1.549715 S    
C12   C28   1.405662 A    
C2    C45   1.475603 S    
N11   O25   1.300963 A    
N2    C18   1.432830 S    
C5    O9    1.347885 S    
C30   C31   1.436005 A    
O6    Cu2   1.950583 S    
C21   C23   1.411421 A    
C39   H9    1.080511 S    
C16   H4    1.083107 S    
C6    O10   1.348691 S    
C10   C12   1.395917 A    
O3    C1    1.301304 A    
O8    Cu1   1.942931 S    
N16   O36   1.301071 A    
N13   O29   1.301004 A    
C42   C48   1.528753 S    
C41   N5    1.458261 S    
C22   C24   1.404065 A    
C7    O12   1.348995 S    
C15   C17   1.400483 A    
C48   N8    1.455394 S    
C16   C18   1.398538 A    
C50   N3    1.481356 S    
N6    O15   1.300153 A    
C49   N4    1.480949 S    
C14   C16   1.393079 A    
C19   C21   1.416733 A    
C52   N4    1.489612 S    
N12   O28   1.300970 A    
C3    C27   1.466511 S    
C56   H20   1.106440 S    
C20   C22   1.412563 A    
C11   H6    1.079168 S    
C9    C11   1.393293 A    
O2    Cu2   1.993483 S    
N10   O24   1.300282 A    
C13   H1    1.083446 S    
O5    Cu1   1.950583 S    
C55   H17   1.106722 S    
C41   C47   1.528805 S    
C42   C44   1.548567 S    
C56   H18   1.109220 S    
N15   O34   1.301477 A    
C44   H12   1.109696 S    
N14   O31   1.300939 A    
C6    C22   1.410335 A    
C38   N14   1.428290 S    
N11   O26   1.299263 A    
