data_mof_unit_4625.cif
_audit_creation_date              2013-03-05T15:54:39-0500
_audit_creation_method            fapswitch 2.2
_symmetry_space_group_name_H-M    P1
_symmetry_Int_Tables_number       1
_space_group_crystal_system       triclinic
_cell_length_a                    14.024126
_cell_length_b                    14.035462
_cell_length_c                    30.07154
_cell_angle_alpha                 96.939608
_cell_angle_beta                  97.161414
_cell_angle_gamma                 61.288367
_cell_volume                      5138.22699305

loop_
_atom_site_label
_atom_site_type_symbol
_atom_site_description
_atom_site_fract_x
_atom_site_fract_y
_atom_site_fract_z
_atom_type_partial_charge
O1    O     O_R   0.688580 0.499770 0.460490 -0.542175
O2    O     O_R   0.480400 0.672610 0.462660 -0.534254
C1    C     C_R   0.383989 0.714549 0.442881 0.769904
O3    O     O_R   0.315310 0.685650 0.451800 -0.542843
O4    O     O_R   0.346220 0.474990 0.446280 -0.528301
C2    C     C_R   0.398434 0.381094 0.426620 0.808959
O5    O     O_R   0.492270 0.312460 0.441630 -0.541529
O6    O     O_R   0.669740 0.350480 0.455640 -0.518464
C3    C     C_R   0.713559 0.403549 0.443314 0.827537
O7    O     O_R   0.691150 0.501150 0.557860 -0.539290
O8    O     O_R   0.482790 0.673890 0.552920 -0.536540
C4    C     C_R   0.389561 0.712025 0.568094 0.790670
O9    O     O_R   0.317880 0.687030 0.549170 -0.536137
O10   O     O_R   0.348600 0.476260 0.536540 -0.533586
C5    C     C_R   0.404156 0.384171 0.553458 0.758238
O11   O     O_R   0.494840 0.313840 0.539010 -0.543059
O12   O     O_R   0.672120 0.351750 0.545910 -0.525391
C6    C     C_R   0.713965 0.407179 0.568261 0.800602
Cr1   Cr    Cr6+3 0.581000 0.584320 0.508140 0.974742
Cr2   Cr    Cr6+3 0.339110 0.576430 0.496080 0.974182
Cr3   Cr    Cr6+3 0.579910 0.339270 0.495810 1.009964
O13   O     O_3   0.500010 0.500010 0.500010 -0.346678
C7    C     C_1   0.364013 0.363959 0.381205 -0.158482
C8    C     C_R   0.294404 0.440637 0.269910 -0.056083
C9    C     C_R   0.286007 0.432509 0.222308 0.107911
C10   C     C_R   0.344515 0.236488 0.222729 0.147057
C11   C     C_R   0.347607 0.246000 0.270136 0.192141
C12   C     C_R   0.323601 0.347690 0.293368 -0.020483
C13   C     C_R   0.312535 0.330081 0.199104 0.059407
C14   C     C_1   0.302780 0.320245 0.150738 -0.016753
C15   C     C_1   0.342215 0.354751 0.341595 -0.045197
C16   C     C_1   0.292145 0.303572 0.110815 -0.143724
C17   C     C_R   0.775739 0.361512 0.402299 -0.126881
C18   C     C_R   0.783074 0.265830 0.377427 -0.073667
C19   C     C_R   0.788679 0.255458 0.330417 0.108224
C20   C     C_R   0.794322 0.337427 0.309586 0.018970
C21   C     C_R   0.808494 0.421290 0.335547 -0.038789
C22   C     C_R   0.806096 0.428724 0.382720 0.084507
C23   C     C_R   0.951662 0.247614 0.171188 -0.017101
C24   C     C_R   0.988085 0.239439 0.128677 0.122847
C25   C     C_R   0.797048 0.338385 0.097388 -0.083695
C26   C     C_R   0.760883 0.350194 0.140799 0.163072
C27   C     C_R   0.839083 0.304215 0.177107 -0.015320
C28   C     C_1   0.808237 0.320764 0.222320 -0.046131
C29   C     C_1   0.796323 0.330207 0.261643 -0.043079
C30   C     C_R   0.910331 0.284605 0.091940 -0.144759
C31   C     C_R   0.356823 0.786188 0.404758 -0.282473
C32   C     C_R   0.436278 0.811095 0.391898 -0.031532
C33   C     C_R   0.428455 0.840723 0.347593 0.099628
C34   C     C_R   0.338135 0.851571 0.317911 0.078281
C35   C     C_R   0.247195 0.853380 0.334164 0.161418
C36   C     C_R   0.256693 0.819285 0.377678 -0.029039
C37   C     C_R   0.249769 0.841609 0.155060 0.119585
C38   C     C_R   0.237793 0.854171 0.108433 -0.030185
C39   C     C_R   0.402052 0.876005 0.114990 -0.090141
C40   C     C_R   0.418480 0.855157 0.161077 -0.066544
C41   C     C_R   0.335998 0.850357 0.181643 0.027971
C42   C     C_1   0.340729 0.852001 0.230022 -0.047487
C43   C     C_1   0.340814 0.853516 0.270140 0.008383
C44   C     C_R   0.304811 0.887048 0.089728 -0.197261
H1    H     H_    0.199800 0.467687 0.575340 0.178185
C45   C     C_R   0.369439 0.366865 0.594887 -0.173555
C46   C     C_R   0.446427 0.307290 0.629568 -0.053664
C47   C     C_R   0.410869 0.311578 0.672049 0.136587
C48   C     C_R   0.298010 0.369127 0.678433 0.011804
C49   C     C_R   0.221057 0.423694 0.643328 -0.014137
C50   C     C_R   0.258062 0.422612 0.602040 -0.130100
C51   C     C_R   0.208300 0.432205 0.838834 -0.058993
C52   C     C_R   0.224441 0.409779 0.884662 -0.136549
C53   C     C_R   0.355571 0.220334 0.864758 0.088924
C54   C     C_R   0.326020 0.237801 0.818756 -0.042619
C55   C     C_R   0.256063 0.344908 0.806095 -0.008970
C56   C     C_1   0.252129 0.365296 0.760033 0.041325
C57   C     C_1   0.264689 0.372113 0.722077 -0.052447
C58   C     C_R   0.292631 0.301545 0.897236 -0.087223
C59   C     C_1   0.768616 0.372657 0.611249 -0.116794
C60   C     C_R   0.850075 0.406241 0.725311 0.105130
C61   C     C_R   0.865432 0.395513 0.772244 0.163438
C62   C     C_R   0.852102 0.225590 0.759542 -0.123081
C63   C     C_R   0.843640 0.232538 0.712407 -0.100245
C64   C     C_R   0.836484 0.326443 0.695861 0.033260
C65   C     C_R   0.864503 0.305924 0.789051 0.032104
C66   C     C_1   0.883447 0.292822 0.836871 -0.046023
C67   C     C_1   0.804292 0.348293 0.649051 0.061481
C68   C     C_1   0.908106 0.282128 0.876424 -0.159882
C69   C     C_1   0.375037 0.761860 0.612868 -0.117540
C70   C     C_R   0.268708 0.916076 0.715885 -0.046876
C71   C     C_R   0.254565 0.935737 0.762540 0.097199
C72   C     C_R   0.419234 0.761826 0.776657 0.132493
C73   C     C_R   0.435474 0.743918 0.730209 0.142837
C74   C     C_R   0.358799 0.819960 0.699926 0.027379
C75   C     C_R   0.328445 0.857163 0.792453 0.113292
C76   C     C_1   0.311511 0.878478 0.839892 0.003549
C77   C     C_1   0.366515 0.792693 0.652035 0.061260
C78   C     C_1   0.292420 0.904880 0.878686 -0.167665
O14   O     O_R   0.167510 0.972920 0.030390 -0.517955
O15   O     O_R   0.990840 0.178580 0.027590 -0.531846
C79   C     C_R   0.950844 0.272869 0.047944 0.756598
O16   O     O_R   0.972840 0.345510 0.038590 -0.538572
O17   O     O_R   0.181550 0.320660 0.045200 -0.526527
C80   C     C_R   0.275964 0.270591 0.065126 0.837575
O18   O     O_R   0.346150 0.177650 0.050510 -0.532115
O19   O     O_R   0.314200 0.996600 0.036060 -0.550938
C81   C     C_R   0.262661 0.950747 0.048471 0.788318
O20   O     O_R   0.168690 0.969990 0.933130 -0.531793
O21   O     O_R   0.991920 0.175870 0.937430 -0.532867
C82   C     C_R   0.952134 0.269288 0.922080 0.795869
O22   O     O_R   0.974010 0.342590 0.941330 -0.546099
O23   O     O_R   0.182630 0.317940 0.955040 -0.523691
C83   C     C_R   0.276674 0.266503 0.939333 0.847938
O24   O     O_R   0.347320 0.174720 0.953250 -0.553647
O25   O     O_R   0.315290 0.993890 0.945900 -0.540829
C84   C     C_R   0.261540 0.950843 0.922937 0.814249
Cr4   Cr    Cr6+3 0.082090 0.079210 0.982490 0.975562
Cr5   Cr    Cr6+3 0.082460 0.324610 0.994920 0.978413
Cr6   Cr    Cr6+3 0.323630 0.087860 0.996130 0.953839
O26   O     O_3   0.162730 0.163890 0.991180 -0.348680
C85   C     C_2   0.272473 0.545810 0.296081 0.401187
H2    H     H_    0.237774 0.565058 0.328317 0.097319
O27   O     O_2   0.296809 0.609771 0.283029 -0.534401
C86   C     C_3   0.640346 0.414381 0.148488 -0.622516
H3    H     H_    0.623332 0.428114 0.184354 0.190730
H4    H     H_    0.605132 0.496121 0.135325 0.224152
H5    H     H_    0.597093 0.369873 0.131383 0.235304
C87   C     C_2   0.719153 0.383293 0.057327 0.400736
H6    H     H_    0.744964 0.404114 0.029072 0.037719
O28   O     O_2   0.626873 0.394344 0.054461 -0.514359
C88   C     C_3   0.788868 0.156717 0.303234 -0.768969
H7    H     H_    0.797217 0.154274 0.266929 0.223781
H8    H     H_    0.858292 0.081077 0.315928 0.206590
H9    H     H_    0.711215 0.155876 0.306352 0.206822
C89   C     C_2   0.156502 0.830234 0.079586 0.469445
H10   H     H_    0.078227 0.852115 0.091541 0.041760
O29   O     O_2   0.178377 0.781776 0.042659 -0.496739
C90   C     C_3   0.170982 0.817156 0.175668 -0.797527
H11   H     H_    0.167896 0.745153 0.157218 0.211021
H12   H     H_    0.194236 0.797264 0.211202 0.244119
H13   H     H_    0.088289 0.888514 0.173731 0.199392
C91   C     C_3   0.139638 0.893707 0.305574 -0.681973
H14   H     H_    0.072027 0.954455 0.325669 0.202993
H15   H     H_    0.137259 0.936043 0.276297 0.183462
H16   H     H_    0.124066 0.824389 0.293044 0.257009
C92   C     C_2   0.160798 0.822924 0.395741 0.445515
H17   H     H_    0.143429 0.852345 0.430386 0.072541
O30   O     O_2   0.102504 0.790620 0.372779 -0.521278
C93   C     C_2   0.522621 0.812397 0.425967 0.449924
H18   H     H_    0.504011 0.837802 0.460755 0.047953
O31   O     O_2   0.614928 0.783425 0.416170 -0.520479
C94   C     C_2   0.521963 0.835610 0.188136 0.470002
H19   H     H_    0.520787 0.864831 0.223157 0.023364
O32   O     O_2   0.610006 0.782301 0.172096 -0.499669
C95   C     C_2   0.485062 0.887689 0.093200 0.537458
H20   H     H_    0.504930 0.851848 0.059368 0.030959
O33   O     O_2   0.528488 0.940695 0.111970 -0.511899
C96   C     C_3   0.246879 0.533440 0.196753 -0.665317
H21   H     H_    0.227733 0.521349 0.160325 0.197104
H22   H     H_    0.170648 0.600107 0.210053 0.216953
H23   H     H_    0.310675 0.559730 0.200278 0.240595
C97   C     C_3   0.514560 0.863143 0.332479 -0.651853
H24   H     H_    0.492392 0.897243 0.299223 0.168358
H25   H     H_    0.525465 0.924684 0.356301 0.217893
H26   H     H_    0.592899 0.786630 0.330543 0.275664
C98   C     C_2   0.170945 0.499945 0.919404 0.426343
H27   H     H_    0.091907 0.568623 0.911562 0.033761
O34   O     O_2   0.215895 0.499237 0.956955 -0.501273
C99   C     C_2   0.143276 0.546999 0.825753 0.356112
H28   H     H_    0.138330 0.613950 0.849239 0.054459
O35   O     O_2   0.093408 0.568491 0.788934 -0.529168
C100  C     C_2   0.102518 0.485417 0.649928 0.399198
H29   H     H_    0.073438 0.492822 0.682576 0.081586
O36   O     O_2   0.035618 0.529093 0.618942 -0.516391
C101  C     C_2   0.564149 0.244442 0.622337 0.473510
H30   H     H_    0.606809 0.284785 0.612567 0.067814
O37   O     O_2   0.613619 0.146614 0.626806 -0.480905
C102  C     C_2   0.365378 0.144551 0.783523 0.370621
H31   H     H_    0.353574 0.158867 0.748205 0.073166
O38   O     O_2   0.406257 0.050100 0.793090 -0.525406
C103  C     C_3   0.458189 0.119144 0.878917 -0.595321
H32   H     H_    0.498257 0.137087 0.910623 0.198657
H33   H     H_    0.438950 0.052704 0.882914 0.231613
H34   H     H_    0.520195 0.091160 0.854051 0.221500
C104  C     C_3   0.492427 0.260545 0.711708 -0.664786
H35   H     H_    0.474121 0.320478 0.741285 0.188330
H36   H     H_    0.487830 0.188398 0.720362 0.220020
H37   H     H_    0.578019 0.234760 0.705708 0.238506
C105  C     C_3   0.849088 0.501306 0.705316 -0.718984
H38   H     H_    0.865721 0.557715 0.729921 0.232089
H39   H     H_    0.912297 0.469269 0.680819 0.220253
H40   H     H_    0.768500 0.549892 0.687335 0.209194
C106  C     C_3   0.377543 0.125012 0.198136 -0.708000
H41   H     H_    0.373634 0.124369 0.161155 0.228925
H42   H     H_    0.463083 0.068175 0.209156 0.209872
H43   H     H_    0.323686 0.092349 0.205522 0.227453
C107  C     C_3   0.881084 0.480733 0.803901 -0.742167
H44   H     H_    0.809339 0.562044 0.799408 0.208575
H45   H     H_    0.890000 0.466725 0.839957 0.213364
H46   H     H_    0.956126 0.482027 0.796688 0.237935
C108  C     C_2   0.845759 0.136094 0.778920 0.346268
H47   H     H_    0.896555 0.100277 0.808882 0.074081
O39   O     O_2   0.779702 0.105614 0.763004 -0.522086
C109  C     C_2   0.850685 0.137685 0.681337 0.451993
H48   H     H_    0.873709 0.060327 0.694417 0.106228
O40   O     O_2   0.835001 0.142290 0.640642 -0.506402
C110  C     C_2   0.186722 0.993621 0.683660 0.421737
H49   H     H_    0.100512 0.031946 0.688781 0.041154
O41   O     O_2   0.214783 0.016267 0.651338 -0.509822
C111  C     C_3   0.162704 0.040964 0.781545 -0.761464
H50   H     H_    0.118381 0.103917 0.757080 0.189202
H51   H     H_    0.103266 0.022952 0.794940 0.196227
H52   H     H_    0.196141 0.078901 0.809263 0.232506
C112  C     C_3   0.499682 0.678259 0.808789 -0.736995
H53   H     H_    0.504322 0.597597 0.798434 0.210748
H54   H     H_    0.581704 0.671717 0.808587 0.216068
H55   H     H_    0.477775 0.697980 0.844082 0.208656
C113  C     C_3   0.534117 0.641738 0.713568 -0.757875
H56   H     H_    0.544218 0.638145 0.677371 0.202000
H57   H     H_    0.609644 0.637632 0.731793 0.222619
H58   H     H_    0.527898 0.568415 0.719455 0.206734
C114  C     C_3   0.379273 0.146108 0.295375 -0.743665
H59   H     H_    0.374607 0.162981 0.332195 0.213101
H60   H     H_    0.323645 0.111046 0.283780 0.227390
H61   H     H_    0.464344 0.084193 0.289344 0.198874
C115  C     C_3   0.110212 0.181810 0.123314 -0.657365
H62   H     H_    0.132715 0.172986 0.088585 0.191188
H63   H     H_    0.147726 0.228669 0.143283 0.231210
H64   H     H_    0.148040 0.098546 0.135167 0.191347
C116  C     C_2   0.030349 0.196190 0.210285 0.358722
H65   H     H_    0.012089 0.153098 0.232750 0.054098
O42   O     O_2   0.112668 0.205943 0.219017 -0.539825
C117  C     C_2   0.825624 0.500273 0.312794 0.403263
H66   H     H_    0.862170 0.476582 0.280865 0.070209
O43   O     O_2   0.796104 0.593572 0.328607 -0.512773
C118  C     C_3   0.844687 0.500708 0.412296 -0.567710
H67   H     H_    0.918318 0.495057 0.399510 0.202225
H68   H     H_    0.779301 0.586417 0.413273 0.277253
H69   H     H_    0.869884 0.473946 0.447039 0.187066
C119  C     C_2   0.789653 0.174358 0.400431 0.447565
H70   H     H_    0.755010 0.123539 0.384063 0.059537
O44   O     O_2   0.837805 0.152484 0.437550 -0.512420

loop_
_geom_bond_atom_site_label_1
_geom_bond_atom_site_label_2
_geom_bond_distance
_ccdc_geom_bond_type
C90   H13   1.110261 S    
C107  H45   1.106353 S    
C70   C71   1.416729 A    
C25   C26   1.421580 A    
C11   C114  1.521128 S    
C80   O18   1.264651 A    
C70   C74   1.415477 A    
C96   H22   1.110615 S    
C100  O36   1.221360 D    
C109  H48   1.082840 S    
C49   C100  1.486777 S    
C115  H62   1.104068 S    
C37   C90   1.519596 S    
O25   Cr6   1.912471 S    
C103  H34   1.110215 S    
C39   C40   1.418823 A    
C41   C42   1.445951 S    
C88   H7    1.107156 S    
C59   C67   1.203018 T    
C22   C118  1.514231 S    
O15   C79   1.271711 A    
C10   C106  1.522817 S    
C115  H64   1.109984 S    
C39   C95   1.486979 S    
C72   C112  1.520813 S    
O4    Cr2   1.914503 S    
C38   C44   1.422643 A    
C60   C61   1.416095 A    
C40   C41   1.410100 A    
C112  H53   1.109954 S    
C24   C30   1.419878 A    
O8    Cr1   1.918463 S    
C10   C11   1.412879 A    
C45   C46   1.419560 A    
C45   C50   1.402533 A    
O21   Cr4   1.909029 S    
C34   C43   1.445597 S    
O22   Cr5   2.022946 S    
O20   C84   1.266940 A    
C20   C21   1.413668 A    
C98   O34   1.221400 D    
C21   C22   1.413211 A    
O7    C6    1.268482 A    
O2    C1    1.283659 A    
C94   O32   1.220939 D    
C97   H24   1.105008 S    
O16   Cr5   2.037391 S    
O4    C2    1.270818 A    
C91   H16   1.109612 S    
C107  H46   1.109575 S    
C9    C96   1.519722 S    
O21   C82   1.273835 A    
C104  H36   1.108090 S    
C92   H17   1.085338 S    
C119  O44   1.221425 D    
Cr6   O26   1.973245 S    
C90   H12   1.106274 S    
C18   C19   1.411667 A    
C56   C57   1.198205 T    
C33   C34   1.410659 A    
C18   C119  1.490057 S    
C61   C65   1.416926 A    
C85   H2    1.085116 S    
O25   C84   1.271647 A    
C86   H5    1.109684 S    
C69   C77   1.204579 T    
C106  H43   1.108650 S    
C83   O24   1.271552 A    
C116  H65   1.085571 S    
C54   C102  1.502282 S    
C51   C52   1.417076 A    
Cr5   O26   1.974552 S    
C32   C93   1.491171 S    
C111  H52   1.110580 S    
C6    C59   1.428554 S    
C25   C30   1.415416 A    
C97   H25   1.110270 S    
C108  O39   1.221075 D    
C108  H47   1.085057 S    
C14   C16   1.199710 T    
C8    C12   1.415710 A    
C118  H67   1.110550 S    
C23   C116  1.495757 S    
C26   C86   1.518729 S    
C55   C56   1.437035 S    
C11   C12   1.412263 A    
C47   C104  1.524074 S    
C107  H44   1.110475 S    
C30   C79   1.464653 S    
C76   C78   1.203344 T    
C62   C108  1.490793 S    
C119  H70   1.084227 S    
C96   H23   1.109919 S    
C99   O35   1.221043 D    
C60   C105  1.521883 S    
C109  O40   1.220031 D    
O14   Cr4   2.026675 S    
C19   C88   1.520563 S    
O17   Cr5   1.908586 S    
C73   C113  1.521142 S    
C101  O37   1.220963 D    
O6    Cr3   1.920110 S    
C96   H21   1.107437 S    
C93   O31   1.219957 D    
C116  O42   1.219843 D    
C9    C13   1.414390 A    
C21   C117  1.494966 S    
O1    Cr1   2.036076 S    
C36   C92   1.488510 S    
C24   C115  1.523142 S    
C111  H50   1.106208 S    
Cr4   O26   1.975476 S    
C31   C32   1.423984 A    
O10   Cr2   1.915176 S    
O20   Cr4   2.034457 S    
C90   H11   1.109754 S    
Cr1   O13   1.975431 S    
O1    C3    1.278814 A    
C8    C9    1.416825 A    
C102  O38   1.220499 D    
O23   C83   1.281331 A    
C113  H58   1.110025 S    
C114  H59   1.107329 S    
C37   C41   1.412230 A    
O6    C3    1.277937 A    
C23   C27   1.409349 A    
C34   C35   1.409733 A    
C42   C43   1.203877 T    
C37   C38   1.413453 A    
C65   C66   1.447044 S    
O12   Cr3   1.908102 S    
C48   C57   1.436457 S    
C35   C36   1.416225 A    
C19   C20   1.412866 A    
C7    C15   1.199552 T    
C31   C36   1.424896 A    
C113  H56   1.107144 S    
C106  H41   1.105723 S    
C13   C14   1.439877 S    
C89   H10   1.084613 S    
C25   C87   1.495242 S    
C114  H60   1.109931 S    
H1    C50   1.084001 S    
C63   C109  1.500393 S    
C60   C64   1.413638 A    
O7    Cr1   2.024291 S    
C51   C55   1.415490 A    
O12   C6    1.270966 A    
C97   H26   1.109462 S    
C44   C81   1.505120 S    
C20   C29   1.435848 S    
C100  H29   1.084172 S    
C71   C75   1.417162 A    
C4    O9    1.267057 A    
C72   C75   1.413347 A    
C117  O43   1.220661 D    
C104  H35   1.110491 S    
C118  H68   1.107774 S    
C86   H3    1.107725 S    
C53   C54   1.409575 A    
C3    C17   1.492559 S    
C32   C33   1.419046 A    
C66   C68   1.203165 T    
C95   O33   1.221122 D    
C48   C49   1.408128 A    
O14   C81   1.278332 A    
C27   C28   1.436467 S    
C61   C107  1.519903 S    
C87   H6    1.084755 S    
C62   C63   1.418802 A    
C26   C27   1.415290 A    
C82   O22   1.266004 A    
C105  H39   1.109253 S    
C1    O3    1.276794 A    
C72   C73   1.416143 A    
C88   H9    1.110382 S    
C70   C110  1.490067 S    
C23   C24   1.406900 A    
C64   C67   1.446446 S    
C101  H30   1.083682 S    
C111  H51   1.109848 S    
C93   H18   1.085438 S    
C92   O30   1.220837 D    
C58   C83   1.490439 S    
C106  H42   1.109312 S    
O9    Cr2   2.030453 S    
C112  H54   1.109839 S    
O2    Cr1   1.909238 S    
O10   C5    1.276299 A    
C46   C101  1.481540 S    
C12   C15   1.441173 S    
C53   C103  1.516255 S    
C28   C29   1.197456 T    
C52   C98   1.489826 S    
Cr2   O13   1.973539 S    
C63   C64   1.419060 A    
C88   H8    1.110348 S    
C62   C65   1.413215 A    
C103  H33   1.110731 S    
C91   H14   1.110312 S    
C115  H63   1.108237 S    
O11   Cr3   2.036161 S    
C2    O5    1.265881 A    
C38   C89   1.488639 S    
C8    C85   1.495456 S    
C17   C22   1.414354 A    
C4    C69   1.430918 S    
O24   Cr6   2.033516 S    
C47   C48   1.415755 A    
C68   C82   1.428365 S    
C105  H40   1.109481 S    
C113  H57   1.108987 S    
O19   Cr6   1.916755 S    
C105  H38   1.105236 S    
C49   C50   1.399868 A    
C54   C55   1.412633 A    
C102  H31   1.082375 S    
O5    Cr3   2.025755 S    
C94   H19   1.082156 S    
C74   C77   1.448490 S    
C110  O41   1.221023 D    
C91   H15   1.108757 S    
C73   C74   1.418704 A    
C99   H28   1.084369 S    
C78   C84   1.429089 S    
C2    C7    1.422609 S    
C1    C31   1.507327 S    
C75   C76   1.447078 S    
C5    C45   1.478564 S    
C17   C18   1.420293 A    
C52   C58   1.420579 A    
C117  H66   1.084864 S    
C118  H69   1.110289 S    
C85   O27   1.220400 D    
C86   H4    1.110595 S    
C98   H27   1.084699 S    
O18   Cr6   2.029233 S    
C39   C44   1.424039 A    
O23   Cr5   1.920153 S    
C46   C47   1.412654 A    
O3    Cr2   2.031075 S    
C112  H55   1.107253 S    
C110  H49   1.084588 S    
C53   C58   1.418266 A    
C10   C13   1.418263 A    
C89   O29   1.221389 D    
C79   O16   1.267629 A    
C40   C94   1.490119 S    
O19   C81   1.283800 A    
C87   O28   1.220191 D    
C16   C80   1.422313 S    
C33   C97   1.516645 S    
O17   C80   1.271216 A    
C95   H20   1.085383 S    
C71   C111  1.522849 S    
O15   Cr4   1.919111 S    
Cr3   O13   1.974559 S    
C104  H37   1.106887 S    
C5    O11   1.268266 A    
O8    C4    1.273379 A    
C35   C91   1.519442 S    
C103  H32   1.110217 S    
C114  H61   1.109571 S    
C51   C99   1.494754 S    
