data_mof_unit_1352.cif
_audit_creation_date              2012-12-10T16:37:48-0500
_audit_creation_method            fapswitch 2.2
_symmetry_space_group_name_H-M    P1
_symmetry_Int_Tables_number       1
_space_group_crystal_system       triclinic
_cell_length_a                    27.894591
_cell_length_b                    18.767022
_cell_length_c                    16.918487
_cell_angle_alpha                 90.14267
_cell_angle_beta                  61.03809
_cell_angle_gamma                 89.949512
_cell_volume                      7749.13939366

loop_
_atom_site_label
_atom_site_type_symbol
_atom_type_description
_atom_site_fract_x
_atom_site_fract_y
_atom_site_fract_z
_atom_type_partial_charge
C1    C     C_R   0.699813 0.264625 0.677515 0.914501
C2    C     C_R   0.300186 0.735375 0.322484 0.914488
C3    C     C_R   0.299128 0.266730 0.322643 0.913320
C4    C     C_R   0.700873 0.733270 0.677360 0.913324
C5    C     C_R   0.199813 0.764625 0.677515 0.914501
C6    C     C_R   0.800186 0.235374 0.322484 0.914488
C7    C     C_R   0.799128 0.766730 0.322643 0.913319
C8    C     C_R   0.200873 0.233270 0.677360 0.913324
C9    C     C_R   0.916716 0.499862 0.450230 -0.007522
C10   C     C_R   0.083283 0.500142 0.549776 -0.007510
C11   C     C_R   0.416716 0.999862 0.450230 -0.007521
C12   C     C_R   0.583283 0.000142 0.549776 -0.007511
C13   C     C_R   0.074020 0.372114 0.569318 0.250930
C14   C     C_R   0.925976 0.627890 0.430701 0.250936
C15   C     C_R   0.925805 0.371659 0.431502 0.252861
C16   C     C_R   0.074192 0.628345 0.568512 0.252858
C17   C     C_R   0.574020 0.872114 0.569319 0.250930
C18   C     C_R   0.425976 0.127890 0.430701 0.250936
C19   C     C_R   0.425805 0.871659 0.431503 0.252861
C20   C     C_R   0.574192 0.128345 0.568512 0.252857
C21   C     C_R   0.722832 0.269412 0.950720 -0.008303
C22   C     C_R   0.277172 0.730591 0.049275 -0.008305
C23   C     C_R   0.281965 0.262062 0.042904 -0.006329
C24   C     C_R   0.718047 0.737887 0.957111 -0.006332
C25   C     C_R   0.222832 0.769412 0.950720 -0.008304
C26   C     C_R   0.777172 0.230591 0.049275 -0.008304
C27   C     C_R   0.781965 0.762063 0.042904 -0.006329
C28   C     C_R   0.218047 0.237887 0.957110 -0.006331
C29   C     C_R   0.756095 0.207338 0.925247 -0.080534
C30   C     C_R   0.243910 0.792667 0.074747 -0.080536
C31   C     C_R   0.236082 0.216597 0.084304 -0.088069
C32   C     C_R   0.763924 0.783359 0.915725 -0.088084
C33   C     C_R   0.256095 0.707338 0.925247 -0.080534
C34   C     C_R   0.743911 0.292667 0.074746 -0.080536
C35   C     C_R   0.736082 0.716597 0.084305 -0.088069
C36   C     C_R   0.263925 0.283359 0.915724 -0.088084
C37   C     C_R   0.780782 0.186005 0.978440 0.110330
C38   C     C_R   0.219223 0.813999 0.021555 0.110342
C39   C     C_R   0.201639 0.209633 0.044185 0.116122
C40   C     C_R   0.798374 0.790309 0.955831 0.116122
C41   C     C_R   0.280782 0.686005 0.978440 0.110331
C42   C     C_R   0.719223 0.313999 0.021554 0.110342
C43   C     C_R   0.701639 0.709633 0.044185 0.116122
C44   C     C_R   0.298374 0.290309 0.955831 0.116122
C45   C     C_R   0.661114 0.349992 0.927640 0.088636
C46   C     C_R   0.338886 0.650007 0.072358 0.088628
C47   C     C_R   0.360888 0.318583 0.044460 0.092889
C48   C     C_R   0.639124 0.681385 0.955541 0.092881
C49   C     C_R   0.161114 0.849992 0.927640 0.088636
C50   C     C_R   0.838886 0.150007 0.072358 0.088627
C51   C     C_R   0.860888 0.818583 0.044460 0.092890
C52   C     C_R   0.139124 0.181385 0.955541 0.092881
C53   C     C_R   0.626124 0.361105 0.889300 -0.140131
C54   C     C_R   0.373874 0.638891 0.110701 -0.140131
C55   C     C_R   0.386146 0.342921 0.095843 -0.129788
C56   C     C_R   0.613862 0.657067 0.904158 -0.129776
C57   C     C_R   0.126124 0.861105 0.889300 -0.140131
C58   C     C_R   0.873874 0.138891 0.110701 -0.140131
C59   C     C_R   0.886146 0.842921 0.095843 -0.129788
C60   C     C_R   0.113862 0.157067 0.904158 -0.129776
C61   C     C_R   0.634477 0.324332 0.813218 -0.258263
C62   C     C_R   0.365520 0.675662 0.186786 -0.258264
C63   C     C_R   0.366870 0.321284 0.183907 -0.258403
C64   C     C_R   0.633135 0.678716 0.816099 -0.258441
C65   C     C_R   0.134477 0.824332 0.813217 -0.258263
C66   C     C_R   0.865520 0.175661 0.186786 -0.258263
C67   C     C_R   0.866870 0.821284 0.183907 -0.258402
C68   C     C_R   0.133135 0.178716 0.816098 -0.258441
C69   C     C_R   0.675580 0.274654 0.775844 -0.065246
C70   C     C_R   0.324419 0.725343 0.224156 -0.065244
C71   C     C_R   0.323079 0.275582 0.224127 -0.067477
C72   C     C_R   0.676927 0.724415 0.775880 -0.067484
C73   C     C_R   0.175580 0.774654 0.775844 -0.065246
C74   C     C_R   0.824419 0.225343 0.224156 -0.065244
C75   C     C_R   0.823079 0.775582 0.224127 -0.067477
C76   C     C_R   0.176927 0.224415 0.775879 -0.067484
C77   C     C_R   0.700194 0.248923 0.827887 -0.062835
C78   C     C_R   0.299807 0.751075 0.172111 -0.062833
C79   C     C_R   0.298087 0.248688 0.172897 -0.070722
C80   C     C_R   0.701922 0.751300 0.827112 -0.070684
C81   C     C_R   0.200194 0.748923 0.827887 -0.062835
C82   C     C_R   0.799808 0.251075 0.172111 -0.062833
C83   C     C_R   0.798087 0.748688 0.172897 -0.070722
C84   C     C_R   0.201922 0.251300 0.827112 -0.070685
C85   C     C_R   0.690909 0.129421 0.535864 0.935368
C86   C     C_R   0.309093 0.870580 0.464130 0.935334
C87   C     C_R   0.309117 0.129357 0.464032 0.938508
C88   C     C_R   0.690884 0.870643 0.535965 0.938525
C89   C     C_R   0.190909 0.629421 0.535864 0.935369
C90   C     C_R   0.809093 0.370580 0.464130 0.935334
C91   C     C_R   0.809117 0.629357 0.464032 0.938507
C92   C     C_R   0.190884 0.370643 0.535965 0.938525
C93   C     C_R   0.694897 0.289337 0.902040 0.031969
C94   C     C_R   0.305105 0.710663 0.097958 0.031972
C95   C     C_R   0.312993 0.277597 0.087502 0.030430
C96   C     C_R   0.687019 0.722369 0.912505 0.030393
C97   C     C_R   0.194896 0.789337 0.902040 0.031969
C98   C     C_R   0.805105 0.210663 0.097958 0.031972
C99   C     C_R   0.812993 0.777597 0.087502 0.030431
C100  C     C_R   0.187019 0.222369 0.912505 0.030393
C101  C     C_R   0.665383 0.398651 0.987076 -0.181986
C102  C     C_R   0.334619 0.601349 0.012920 -0.181973
C103  C     C_R   0.382788 0.330029 0.950689 -0.164009
C104  C     C_R   0.617227 0.669925 0.049313 -0.164038
C105  C     C_R   0.165382 0.898651 0.987076 -0.181986
C106  C     C_R   0.834619 0.101349 0.012920 -0.181973
C107  C     C_R   0.882788 0.830028 0.950689 -0.164009
C108  C     C_R   0.117227 0.169925 0.049312 -0.164038
C109  C     C_R   0.695630 0.381959 0.030103 -0.130267
C110  C     C_R   0.304374 0.618045 0.969890 -0.130247
C111  C     C_R   0.351916 0.316768 0.907767 -0.150833
C112  C     C_R   0.648098 0.683170 0.092240 -0.150864
C113  C     C_R   0.195629 0.881958 0.030104 -0.130266
C114  C     C_R   0.804374 0.118045 0.969890 -0.130247
C115  C     C_R   0.851916 0.816767 0.907767 -0.150833
C116  C     C_R   0.148099 0.183170 0.092240 -0.150864
C117  C     C_R   0.730011 0.185344 0.808218 0.266133
C118  C     C_R   0.269995 0.814656 0.191777 0.266138
C119  C     C_R   0.265068 0.187447 0.196409 0.267402
C120  C     C_R   0.734941 0.812546 0.803621 0.267383
C121  C     C_R   0.230011 0.685344 0.808218 0.266133
C122  C     C_R   0.769996 0.314657 0.191776 0.266138
C123  C     C_R   0.765067 0.687448 0.196409 0.267402
C124  C     C_R   0.234941 0.312546 0.803621 0.267384
C125  C     C_R   0.763405 0.170007 0.846635 0.208375
C126  C     C_R   0.236602 0.829998 0.153358 0.208379
C127  C     C_R   0.231877 0.172879 0.156212 0.192554
C128  C     C_R   0.768118 0.827105 0.843847 0.192603
C129  C     C_R   0.263406 0.670007 0.846634 0.208375
C130  C     C_R   0.736603 0.329999 0.153357 0.208379
C131  C     C_R   0.731877 0.672880 0.156213 0.192554
C132  C     C_R   0.268118 0.327105 0.843846 0.192602
C133  C     C_R   0.072688 0.101456 0.935960 0.908363
C134  C     C_R   0.927314 0.898540 0.064038 0.908339
C135  C     C_R   0.920087 0.090867 0.071707 0.918442
C136  C     C_R   0.079911 0.909129 0.928295 0.918431
C137  C     C_R   0.572688 0.601456 0.935960 0.908362
C138  C     C_R   0.427314 0.398541 0.064038 0.908339
C139  C     C_R   0.420087 0.590868 0.071707 0.918443
C140  C     C_R   0.579911 0.409129 0.928295 0.918431
C141  C     C_R   0.537377 0.129550 0.533874 0.036331
C142  C     C_R   0.462609 0.870457 0.466163 0.036308
C143  C     C_R   0.462909 0.129329 0.465118 0.034011
C144  C     C_R   0.537079 0.870675 0.534918 0.034004
C145  C     C_R   0.037377 0.629550 0.533874 0.036331
C146  C     C_R   0.962609 0.370457 0.466162 0.036308
C147  C     C_R   0.962909 0.629329 0.465118 0.034011
C148  C     C_R   0.037079 0.370676 0.534917 0.034004
C149  C     C_R   0.517894 0.193960 0.517667 -0.149780
C150  C     C_R   0.482081 0.806050 0.482392 -0.149772
C151  C     C_R   0.482690 0.193831 0.480549 -0.147887
C152  C     C_R   0.517287 0.806178 0.519510 -0.147877
C153  C     C_R   0.017894 0.693960 0.517667 -0.149780
C154  C     C_R   0.982081 0.306050 0.482391 -0.149772
C155  C     C_R   0.982689 0.693831 0.480550 -0.147886
C156  C     C_R   0.017288 0.306177 0.519509 -0.147877
C157  C     C_R   0.480344 0.064706 0.484906 0.019676
C158  C     C_R   0.519645 0.935298 0.515126 0.019688
C159  C     C_R   0.519783 0.064793 0.514624 0.019804
C160  C     C_R   0.480205 0.935212 0.485408 0.019813
C161  C     C_R   0.980344 0.564707 0.484906 0.019675
C162  C     C_R   0.019645 0.435298 0.515125 0.019688
C163  C     C_R   0.019783 0.564793 0.514624 0.019804
C164  C     C_R   0.980205 0.435212 0.485407 0.019813
C165  C     C_R   0.959932 0.499919 0.471588 -0.029850
C166  C     C_R   0.040060 0.500085 0.528435 -0.029850
C167  C     C_R   0.459932 0.999919 0.471588 -0.029850
C168  C     C_R   0.540060 0.000085 0.528435 -0.029850
C169  C     C_R   0.895166 0.434632 0.439946 -0.030567
C170  C     C_R   0.104836 0.565372 0.560051 -0.030573
C171  C     C_R   0.104766 0.434965 0.560374 -0.034170
C172  C     C_R   0.895236 0.565038 0.439627 -0.034171
C173  C     C_R   0.395166 0.934632 0.439946 -0.030567
C174  C     C_R   0.604836 0.065372 0.560051 -0.030573
C175  C     C_R   0.604765 0.934965 0.560375 -0.034170
C176  C     C_R   0.395236 0.065038 0.439627 -0.034171
C177  C     C_R   0.844018 0.435000 0.439484 -0.167665
C178  C     C_R   0.155987 0.565002 0.560499 -0.167661
C179  C     C_R   0.155949 0.435251 0.560676 -0.168525
C180  C     C_R   0.844055 0.564752 0.439312 -0.168518
C181  C     C_R   0.344018 0.935000 0.439485 -0.167666
C182  C     C_R   0.655987 0.065002 0.560500 -0.167661
C183  C     C_R   0.655949 0.935251 0.560676 -0.168525
C184  C     C_R   0.344055 0.064752 0.439313 -0.168518
C185  C     C_R   0.821357 0.499874 0.431561 0.227373
C186  C     C_R   0.178652 0.500129 0.568415 0.227334
C187  C     C_R   0.321357 0.999874 0.431562 0.227372
C188  C     C_R   0.678652 0.000129 0.568415 0.227333
H1    H     H_    0.030682 0.255521 0.532532 0.190191
H2    H     H_    0.969291 0.744490 0.467536 0.190181
H3    H     H_    0.968433 0.255320 0.469989 0.190840
H4    H     H_    0.031536 0.744692 0.530082 0.190834
H5    H     H_    0.530681 0.755521 0.532534 0.190191
H6    H     H_    0.469292 0.244489 0.467535 0.190181
H7    H     H_    0.468432 0.755320 0.469991 0.190840
H8    H     H_    0.531536 0.244692 0.530080 0.190834
H9    H     H_    0.611397 0.338207 0.779048 0.206255
H10   H     H_    0.388599 0.661785 0.220958 0.206254
H11   H     H_    0.385112 0.342467 0.222913 0.204779
H12   H     H_    0.614887 0.657545 0.777094 0.204782
H13   H     H_    0.111397 0.838207 0.779047 0.206255
H14   H     H_    0.888599 0.161784 0.220958 0.206254
H15   H     H_    0.885112 0.842467 0.222913 0.204780
H16   H     H_    0.114887 0.157545 0.777094 0.204782
H17   H     H_    0.647846 0.451523 0.997462 0.176188
H18   H     H_    0.352154 0.548477 0.002534 0.176198
H19   H     H_    0.424587 0.346330 0.907636 0.188479
H20   H     H_    0.575426 0.653634 0.092368 0.188496
H21   H     H_    0.147846 0.951523 0.997462 0.176188
H22   H     H_    0.852154 0.048477 0.002534 0.176198
H23   H     H_    0.924587 0.846330 0.907636 0.188479
H24   H     H_    0.075426 0.153633 0.092368 0.188497
H25   H     H_    0.702032 0.424358 0.066956 0.215702
H26   H     H_    0.297973 0.575648 0.933034 0.215729
H27   H     H_    0.371435 0.324363 0.835492 0.188329
H28   H     H_    0.628573 0.675578 0.164518 0.188348
H29   H     H_    0.202031 0.924357 0.066958 0.215702
H30   H     H_    0.797973 0.075648 0.933035 0.215729
H31   H     H_    0.871435 0.824363 0.835492 0.188329
H32   H     H_    0.128573 0.175577 0.164518 0.188348
O1    O     O_R   0.746490 0.236330 0.638080 -0.603895
O2    O     O_R   0.253510 0.763670 0.361920 -0.603896
O3    O     O_R   0.253510 0.236330 0.361920 -0.611886
O4    O     O_R   0.746490 0.763670 0.638080 -0.611846
O5    O     O_R   0.246490 0.736330 0.638080 -0.603895
O6    O     O_R   0.753510 0.263670 0.361920 -0.603897
O7    O     O_R   0.753510 0.736330 0.361920 -0.611887
O8    O     O_R   0.246490 0.263670 0.638080 -0.611847
O9    O     O_R   0.674170 0.186160 0.516270 -0.612447
O10   O     O_R   0.325830 0.813840 0.483730 -0.612438
O11   O     O_R   0.325830 0.186160 0.483730 -0.616189
O12   O     O_R   0.674170 0.813840 0.516270 -0.616189
O13   O     O_R   0.174170 0.686160 0.516270 -0.612447
O14   O     O_R   0.825830 0.313840 0.483730 -0.612438
O15   O     O_R   0.825830 0.686160 0.483730 -0.616189
O16   O     O_R   0.174170 0.313840 0.516270 -0.616189
O17   O     O_R   0.739960 0.127620 0.525000 -0.569501
O18   O     O_R   0.260040 0.872380 0.475000 -0.569508
O19   O     O_R   0.260040 0.127620 0.475000 -0.568991
O20   O     O_R   0.739960 0.872380 0.525000 -0.568978
O21   O     O_R   0.239960 0.627620 0.525000 -0.569501
O22   O     O_R   0.760040 0.372380 0.475000 -0.569508
O23   O     O_R   0.760040 0.627620 0.475000 -0.568991
O24   O     O_R   0.239960 0.372380 0.525000 -0.568978
O25   O     O_R   0.680700 0.294870 0.629350 -0.608978
O26   O     O_R   0.319300 0.705130 0.370650 -0.608983
O27   O     O_R   0.319300 0.294870 0.370650 -0.606249
O28   O     O_R   0.680700 0.705130 0.629350 -0.606241
O29   O     O_R   0.180700 0.794870 0.629350 -0.608978
O30   O     O_R   0.819300 0.205130 0.370650 -0.608984
O31   O     O_R   0.819300 0.794870 0.370650 -0.606248
O32   O     O_R   0.180700 0.205130 0.629350 -0.606241
O33   O     O_R   0.062020 0.072840 0.007170 -0.645688
O34   O     O_R   0.937980 0.927160 0.992830 -0.645670
O35   O     O_R   0.937980 0.072840 0.992830 -0.612837
O36   O     O_R   0.062020 0.927160 0.007170 -0.612842
O37   O     O_R   0.562020 0.572840 0.007170 -0.645688
O38   O     O_R   0.437980 0.427160 0.992830 -0.645670
O39   O     O_R   0.437980 0.572840 0.992830 -0.612837
O40   O     O_R   0.562020 0.427160 0.007170 -0.612841
O41   O     O_R   0.947860 0.073950 0.109290 -0.620633
O42   O     O_R   0.052140 0.926050 0.890710 -0.620638
O43   O     O_R   0.052140 0.073950 0.890710 -0.607716
O44   O     O_R   0.947860 0.926050 0.109290 -0.607723
O45   O     O_R   0.447860 0.573950 0.109290 -0.620634
O46   O     O_R   0.552140 0.426050 0.890710 -0.620637
O47   O     O_R   0.552140 0.573950 0.890710 -0.607716
O48   O     O_R   0.447860 0.426050 0.109290 -0.607723
Zn1   Zn    Zn3+2 0.792340 0.208750 0.507670 1.106261
Zn2   Zn    Zn3+2 0.207660 0.791250 0.492330 1.106254
Zn3   Zn    Zn3+2 0.207660 0.208750 0.492330 1.094629
Zn4   Zn    Zn3+2 0.792340 0.791250 0.507670 1.094648
Zn5   Zn    Zn3+2 0.292340 0.708750 0.507670 1.106261
Zn6   Zn    Zn3+2 0.707660 0.291250 0.492330 1.106254
Zn7   Zn    Zn3+2 0.707660 0.708750 0.492330 1.094630
Zn8   Zn    Zn3+2 0.292340 0.291250 0.507670 1.094647
Zn9   Zn    Zn3+2 0.505960 0.500000 0.080520 1.006201
Zn10  Zn    Zn3+2 0.494040 0.500000 0.919480 1.006214
Zn11  Zn    Zn3+2 0.005960 0.000000 0.080520 1.006201
Zn12  Zn    Zn3+2 0.994040 0.000000 0.919480 1.006214
Br1   Br    Br    0.758367 0.499872 0.410008 -0.294727
Br2   Br    Br    0.241642 0.500133 0.589959 -0.294756
Br3   Br    Br    0.258368 0.999872 0.410007 -0.294726
Br4   Br    Br    0.741642 0.000133 0.589958 -0.294757
Br5   Br    Br    0.065161 0.300532 0.657812 -0.461140
Br6   Br    Br    0.934847 0.699477 0.342205 -0.461106
Br7   Br    Br    0.935011 0.299487 0.342994 -0.489844
Br8   Br    Br    0.064999 0.700510 0.657023 -0.489868
Br9   Br    Br    0.565161 0.800532 0.657813 -0.461141
Br10  Br    Br    0.434847 0.199477 0.342205 -0.461107
Br11  Br    Br    0.435011 0.799487 0.342995 -0.489844
Br12  Br    Br    0.564999 0.200511 0.657023 -0.489868
Br13  Br    Br    0.708715 0.107466 0.759912 -0.314422
Br14  Br    Br    0.291300 0.892529 0.240072 -0.314424
Br15  Br    Br    0.287519 0.109625 0.243783 -0.305188
Br16  Br    Br    0.712592 0.890341 0.756126 -0.305196
Br17  Br    Br    0.208716 0.607466 0.759912 -0.314421
Br18  Br    Br    0.791303 0.392530 0.240069 -0.314426
Br19  Br    Br    0.787518 0.609625 0.243783 -0.305187
Br20  Br    Br    0.212589 0.390341 0.756128 -0.305196
Br21  Br    Br    0.828346 0.115615 0.768895 -0.387315
Br22  Br    Br    0.171666 0.884398 0.231095 -0.387299
Br23  Br    Br    0.194678 0.081780 0.182812 -0.405344
Br24  Br    Br    0.805293 0.918219 0.817345 -0.405422
Br25  Br    Br    0.328346 0.615616 0.768894 -0.387316
Br26  Br    Br    0.671668 0.384400 0.231093 -0.387297
Br27  Br    Br    0.694677 0.581781 0.182814 -0.405343
Br28  Br    Br    0.305294 0.418218 0.817343 -0.405421

loop_
_geom_bond_atom_site_label_1
_geom_bond_atom_site_label_2
_ccdc_geom_bond_type
C154  H3    S    
C85   C182  S    
C9    C169  A    
C34   C42   A    
C181  C187  A    
O46   Zn10  S    
C27   C99   A    
C170  C178  A    
C12   C174  A    
C42   C109  A    
C111  H27   S    
C24   C96   A    
C149  H8    S    
C106  H22   S    
C62   C70   A    
C1    O1    A    
O18   Zn2   S    
O7    Zn7   S    
C129  Br25  S    
C15   Br7   S    
C147  C155  A    
C143  C151  A    
C90   C177  S    
C11   C167  A    
C82   C98   A    
O12   Zn7   S    
C76   C84   A    
C81   C121  A    
C73   C81   A    
C161  C163  A    
C162  C164  A    
O9    Zn6   S    
C6    O30   A    
C84   C100  A    
C85   O9    A    
C133  O33   A    
C187  Br3   S    
C37   C114  A    
C130  Br26  S    
C27   C35   A    
C10   C171  A    
C21   C29   A    
O48   Zn9   S    
C92   O16   A    
C117  Br13  S    
C23   C31   A    
C24   C32   A    
O3    Zn3   S    
O4    Zn4   S    
C146  C154  A    
C62   H10   S    
C13   Br5   S    
C88   O12   A    
C63   C71   A    
C64   H12   S    
O10   Zn5   S    
C36   C44   A    
C140  O40   A    
C175  C183  A    
C176  C184  A    
C48   C96   A    
O5    Zn5   S    
O29   Zn2   S    
C123  Br19  S    
C78   C94   A    
C137  O37   A    
C148  C162  A    
C1    O25   A    
C183  C188  A    
O40   Zn9   S    
C108  C116  A    
C21   C93   A    
O8    Zn8   S    
C9    C165  A    
C86   O18   A    
C5    O5    A    
C67   H15   S    
C49   C97   A    
C21   C42   A    
C40   C115  A    
C51   C107  A    
C24   C43   A    
C16   C145  A    
C82   C122  A    
C161  C165  A    
C17   C175  A    
C18   C176  A    
C188  Br4   S    
O37   Zn9   S    
C29   C125  A    
C68   H16   S    
C69   C77   A    
C31   C127  A    
C45   C93   A    
C174  C182  A    
C71   C79   A    
C8    O8    A    
C105  H21   S    
C179  C186  A    
C18   Br10  S    
C30   C38   A    
C11   C176  A    
C7    O7    A    
C17   C144  A    
C151  H6    S    
C105  C113  A    
C18   C143  A    
C78   C118  A    
C103  H19   S    
C36   C132  A    
O43   Zn12  S    
C66   C74   A    
C91   O15   A    
C8    C76   S    
C49   C57   A    
C124  C132  A    
C89   O13   A    
C52   C60   A    
C59   C67   A    
C53   C61   A    
C141  C159  A    
C20   C174  A    
C23   C95   A    
C55   C63   A    
C86   C181  S    
C56   C64   A    
C116  H32   S    
C35   C43   A    
C125  Br21  S    
C156  H1    S    
C139  O45   A    
C45   C53   A    
C22   C94   A    
C171  C179  A    
C114  H30   S    
C169  C177  A    
C108  H24   S    
C50   C98   A    
C87   O19   A    
C20   Br12  S    
C119  Br15  S    
C120  Br16  S    
O28   Zn7   S    
O13   Zn2   S    
C104  C112  A    
C145  C163  A    
C146  C164  A    
C14   C147  A    
C52   C100  A    
C7    O31   A    
O25   Zn6   S    
C178  C186  A    
C25   C38   A    
C54   C139  S    
C46   C94   A    
C27   C40   A    
C10   C166  A    
C57   C65   A    
C91   C180  S    
C185  Br1   S    
C182  C188  A    
C89   C178  S    
C102  H18   S    
C28   C36   A    
C25   C97   A    
C90   O22   A    
C140  O46   A    
C67   C75   A    
O23   Zn7   S    
C133  O43   A    
C131  Br27  S    
C8    O32   A    
C3    O3    A    
C22   C30   A    
C20   C141  A    
C118  Br14  S    
O31   Zn4   S    
C15   C146  A    
O32   Zn3   S    
C58   C135  S    
C68   C76   A    
O6    Zn6   S    
O47   Zn10  S    
C184  C187  A    
C83   C123  A    
C32   C128  A    
C144  C152  A    
C56   C137  S    
C14   Br6   S    
O11   Zn8   S    
C150  C152  A    
C112  H28   S    
C5    C73   S    
C150  H7    S    
C66   H14   S    
C13   C171  A    
C51   C59   A    
O24   Zn8   S    
C83   C99   A    
O30   Zn1   S    
C117  C125  A    
C25   C33   A    
C119  C127  A    
O35   Zn12  S    
O36   Zn11  S    
C157  C167  A    
C30   C126  A    
C158  C168  A    
C164  C165  A    
C132  Br28  S    
C22   C41   A    
C107  H23   S    
C101  C109  A    
C88   O20   A    
C2    O2    A    
O44   Zn11  S    
C177  C185  A    
C103  C111  A    
O21   Zn5   S    
O33   Zn11  S    
C162  C166  A    
O34   Zn12  S    
C79   C119  A    
O38   Zn10  S    
C121  Br17  S    
C153  C155  A    
C154  C156  A    
C124  Br20  S    
C172  C180  A    
C173  C181  A    
C157  C159  A    
C19   Br11  S    
C158  C160  A    
C3    O27   A    
C74   C82   A    
C6    C74   S    
C47   C103  A    
C136  O42   A    
C86   O10   A    
C5    O29   A    
C163  C166  A    
C147  C161  A    
C38   C113  A    
C49   C105  A    
C54   C62   A    
C28   C39   A    
O15   Zn4   S    
O45   Zn9   S    
O16   Zn3   S    
C1    C69   S    
C23   C44   A    
C50   C58   A    
C3    C71   S    
C19   C173  A    
C79   C95   A    
C155  H2    S    
C126  Br22  S    
O42   Zn12  S    
C46   C54   A    
C45   C101  A    
C19   C142  A    
C102  C110  A    
C61   H9    S    
C35   C131  A    
C4    C72   S    
O14   Zn1   S    
C33   C129  A    
C134  O44   A    
C59   C134  S    
C123  C131  A    
O26   Zn5   S    
C121  C129  A    
C120  C128  A    
C26   C37   A    
C10   C170  A    
C77   C117  A    
C33   C41   A    
C142  C150  A    
C149  C151  A    
C2    O26   A    
C75   C83   A    
C138  O48   A    
C6    O6    A    
C77   C93   A    
C85   O17   A    
C104  H20   S    
C44   C111  A    
C16   C170  A    
C60   C68   A    
C72   C80   A    
C39   C116  A    
O22   Zn6   S    
C29   C37   A    
C50   C106  A    
C9    C172  A    
O17   Zn1   S    
C148  C156  A    
C135  O35   A    
O27   Zn8   S    
C2    C70   S    
C60   C133  S    
C110  H26   S    
C80   C120  A    
C70   C78   A    
C53   C140  S    
C137  O47   A    
C141  C149  A    
C46   C102  A    
C15   C169  A    
C55   C138  S    
C17   Br9   S    
C152  H5    S    
C106  C114  A    
C92   C179  S    
C109  H25   S    
C127  Br23  S    
C128  Br24  S    
C48   C104  A    
C65   C73   A    
C159  C168  A    
C90   O14   A    
C160  C167  A    
C4    O28   A    
C186  Br2   S    
C58   C66   A    
C31   C39   A    
O41   Zn11  S    
C57   C136  S    
C16   Br8   S    
C145  C153  A    
C28   C100  A    
C32   C40   A    
C52   C108  A    
C115  H31   S    
C113  H29   S    
C26   C34   A    
C143  C157  A    
C51   C99   A    
C11   C173  A    
C134  O34   A    
C14   C172  A    
C87   C184  S    
C88   C183  S    
C7    C75   S    
C4    O4    A    
C122  Br18  S    
C107  C115  A    
C101  H17   S    
C26   C98   A    
C12   C175  A    
C91   O23   A    
C135  O41   A    
C41   C110  A    
C89   O21   A    
C80   C96   A    
C43   C112  A    
C144  C158  A    
O1    Zn1   S    
C47   C55   A    
C61   C69   A    
C48   C56   A    
C136  O36   A    
C142  C160  A    
C12   C168  A    
C139  O39   A    
C84   C124  A    
O19   Zn3   S    
O20   Zn4   S    
C92   O24   A    
C81   C97   A    
C87   O11   A    
C63   H11   S    
C64   C72   A    
C180  C185  A    
O2    Zn2   S    
C65   H13   S    
C34   C130  A    
C47   C95   A    
O39   Zn10  S    
C138  O38   A    
C118  C126  A    
C13   C148  A    
C122  C130  A    
C153  H4    S    
