data_mof_unit_4902.cif
_audit_creation_date              2012-12-10T17:32:23-0500
_audit_creation_method            fapswitch 2.2
_symmetry_space_group_name_H-M    P1
_symmetry_Int_Tables_number       1
_space_group_crystal_system       triclinic
_cell_length_a                    15.484956
_cell_length_b                    15.558486
_cell_length_c                    15.525962
_cell_angle_alpha                 92.06689
_cell_angle_beta                  72.30109
_cell_angle_gamma                 111.774724
_cell_volume                      3296.78150095

loop_
_atom_site_label
_atom_site_type_symbol
_atom_type_description
_atom_site_fract_x
_atom_site_fract_y
_atom_site_fract_z
_atom_type_partial_charge
C1    C     C_R   0.462634 0.258712 0.463790 0.502717
C2    C     C_R   0.507275 0.527562 0.121105 -0.149845
C3    C     C_R   0.675312 0.617413 0.112045 -0.115700
C4    C     C_R   0.532566 0.740781 0.538250 0.490258
C5    C     C_R   0.426236 0.431690 0.840435 0.023512
C6    C     C_R   0.348112 0.013164 0.416402 -0.116457
C7    C     C_R   0.446097 0.161962 0.451903 0.042401
C8    C     C_R   0.619061 0.890466 0.591506 -0.128292
C9    C     C_R   0.643354 0.985307 0.596348 -0.148416
C10   C     C_R   0.597254 0.030673 0.561779 -0.105351
C11   C     C_R   0.520380 0.980702 0.526201 0.019288
C12   C     C_R   0.297349 0.378183 0.984299 -0.146294
C13   C     C_R   0.489654 0.882443 0.529139 -0.014748
C14   C     C_R   0.472110 0.024781 0.489009 -0.014199
C15   C     C_R   0.395275 0.970147 0.454297 0.059456
C16   C     C_R   0.756416 0.551391 0.464379 0.508713
C17   C     C_R   0.363650 0.873248 0.460922 0.246912
C18   C     C_R   0.404407 0.831027 0.506429 -0.113923
C19   C     C_R   0.496781 0.121560 0.485939 -0.118871
C20   C     C_R   0.372590 0.108432 0.416437 -0.149910
C21   C     C_R   0.544671 0.838235 0.555444 0.022382
C22   C     C_R   0.000590 0.689592 0.484371 -0.095222
C23   C     C_R   0.363604 0.424182 0.030027 -0.115633
C24   C     C_R   0.859625 0.575296 0.454117 0.017941
C25   C     C_R   0.095710 0.325589 0.519481 -0.122722
C26   C     C_R   0.008525 0.296350 0.497338 0.248871
C27   C     C_R   0.969453 0.361843 0.487380 -0.094681
C28   C     C_R   0.243350 0.448948 0.535501 0.490434
C29   C     C_R   0.012383 0.455645 0.504904 -0.006392
C30   C     C_R   0.097441 0.482459 0.532894 0.014610
C31   C     C_R   0.976894 0.524953 0.491138 0.015571
C32   C     C_R   0.028099 0.618680 0.504756 -0.001436
C33   C     C_R   0.105141 0.640981 0.540640 -0.132030
C34   C     C_R   0.464200 0.473064 0.982354 0.037777
C35   C     C_R   0.138909 0.573880 0.555278 -0.116270
C36   C     C_R   0.890658 0.504521 0.467381 -0.181231
C37   C     C_R   0.918847 0.669023 0.455877 0.258044
C38   C     C_R   0.141127 0.417978 0.535935 -0.017562
C39   C     C_R   0.552790 0.551931 0.259414 0.498699
C40   C     C_R   0.451018 0.448829 0.741640 0.491571
C41   C     C_R   0.705723 0.615026 0.017559 0.267024
C42   C     C_R   0.577615 0.571425 0.162827 -0.010568
C43   C     C_R   0.327853 0.382796 0.890372 -0.128064
C44   C     C_3   0.312216 0.761475 0.365324 0.001573
C45   C     C_R   0.496228 0.471831 0.886463 0.028740
C46   C     C_3   0.376391 0.815968 0.273067 -0.276549
C47   C     C_3   0.400018 0.751182 0.201475 -0.471111
C48   C     C_3   0.892323 0.745833 0.349129 0.018383
C49   C     C_3   0.917586 0.846291 0.316509 -0.247852
C50   C     C_3   0.022997 0.907599 0.309732 -0.414711
C51   C     C_3   0.944461 0.138511 0.536062 0.006868
C52   C     C_3   0.909582 0.044378 0.497683 -0.262540
C53   C     C_3   0.886879 0.964418 0.565676 -0.480284
C54   C     C_3   0.870432 0.645185 0.997860 0.006548
C55   C     C_3   0.931535 0.733645 0.031709 -0.258653
C56   C     C_R   0.534077 0.522487 0.026658 -0.012339
C57   C     C_3   0.999519 0.715105 0.075510 -0.491735
C58   C     C_R   0.634995 0.566618 0.974999 0.059511
C59   C     C_R   0.664930 0.557716 0.881985 -0.117754
C60   C     C_R   0.597308 0.509439 0.839005 -0.136444
H1    H     H_    0.727829 0.652107 0.147058 0.097086
H2    H     H_    0.741586 0.586483 0.841830 0.163016
H3    H     H_    0.841768 0.434046 0.466792 0.107194
H4    H     H_    0.133093 0.278303 0.515830 0.123773
H5    H     H_    0.907217 0.337544 0.462760 0.126271
H6    H     H_    0.198829 0.594722 0.583477 0.122265
H7    H     H_    0.433401 0.493656 0.165294 0.110080
H8    H     H_    0.273342 0.350780 0.856610 0.136856
H9    H     H_    0.333171 0.419021 0.102694 0.104977
H10   H     H_    0.220944 0.341019 0.022009 0.119671
H11   H     H_    0.626336 0.500197 0.768251 0.145798
H12   H     H_    0.289816 0.973070 0.389385 0.154794
H13   H     H_    0.332725 0.140188 0.390756 0.105711
H14   H     H_    0.243613 0.710034 0.356770 0.162567
H15   H     H_    0.348235 0.720232 0.387369 0.160253
H16   H     H_    0.337432 0.853839 0.250826 0.164834
H17   H     H_    0.446195 0.867597 0.279139 0.165100
H18   H     H_    0.440583 0.713868 0.221744 0.175491
H19   H     H_    0.446354 0.792357 0.135546 0.151735
H20   H     H_    0.331592 0.699703 0.192624 0.147613
H21   H     H_    0.817891 0.703653 0.345774 0.122148
H22   H     H_    0.945595 0.719893 0.301154 0.111598
H23   H     H_    0.552186 0.167550 0.512650 0.095305
H24   H     H_    0.908234 0.847849 0.248440 0.109554
H25   H     H_    0.866592 0.874398 0.363903 0.167331
H26   H     H_    0.033825 0.909474 0.377403 0.181343
H27   H     H_    0.039252 0.979473 0.284286 0.128218
H28   H     H_    0.074898 0.880879 0.261821 0.138733
H29   H     H_    0.884030 0.142425 0.595330 0.128130
H30   H     H_    0.007393 0.143266 0.558911 0.127284
H31   H     H_    0.843116 0.035057 0.478909 0.175451
H32   H     H_    0.967625 0.042719 0.435255 0.176004
H33   H     H_    0.954465 0.969282 0.580107 0.155914
H34   H     H_    0.660572 0.858356 0.614020 0.142373
H35   H     H_    0.857920 0.897232 0.536959 0.191962
H36   H     H_    0.831220 0.965949 0.630073 0.140304
H37   H     H_    0.920588 0.625288 0.940287 0.147879
H38   H     H_    0.836743 0.585728 0.051118 0.122118
H39   H     H_    0.976062 0.787312 0.973597 0.174151
H40   H     H_    0.882913 0.761758 0.082127 0.158493
H41   H     H_    0.956205 0.663171 0.135142 0.141380
H42   H     H_    0.042923 0.780560 0.098826 0.144521
H43   H     H_    0.050633 0.688886 0.025807 0.151560
H44   H     H_    0.623562 0.104806 0.564696 0.104762
H45   H     H_    0.700869 0.024788 0.624404 0.112042
H46   H     H_    0.366088 0.757513 0.525536 0.143443
H47   H     H_    0.139792 0.710997 0.557370 0.157775
H48   H     H_    0.041845 0.761408 0.491888 0.139808
O1    O     O_3   0.500000 0.500000 0.500000 -0.434039
O2    O     O_R   0.588830 0.499590 0.285390 -0.541173
O3    O     O_R   0.395900 0.395880 0.699370 -0.546018
O4    O     O_R   0.493280 0.582590 0.315890 -0.549789
O5    O     O_R   0.521980 0.521940 0.699340 -0.547570
O6    O     O_3   0.285505 0.820497 0.431009 -0.612472
O7    O     O_3   0.892478 0.741456 0.440076 -0.564383
O8    O     O_3   0.970981 0.209271 0.467491 -0.570069
O9    O     O_3   0.802414 0.663220 0.964724 -0.581992
O10   O     O_R   0.708210 0.582550 0.530770 -0.514967
O11   O     O_R   0.270260 0.395900 0.573760 -0.548043
O12   O     O_R   0.537060 0.322180 0.411040 -0.536853
O13   O     O_R   0.484470 0.699370 0.484430 -0.565666
O14   O     O_R   0.404710 0.279110 0.530840 -0.541134
O15   O     O_R   0.573760 0.699350 0.573690 -0.537891
O16   O     O_R   0.714470 0.499570 0.411000 -0.557676
O17   O     O_R   0.307050 0.521980 0.484470 -0.550192
Zn1   Zn    Zn3+2 0.574690 0.574670 0.574650 0.943415
Zn2   Zn    Zn3+2 0.583640 0.456100 0.403530 0.926530
Zn3   Zn    Zn3+2 0.447120 0.574690 0.447120 0.902707
Zn4   Zn    Zn3+2 0.394550 0.394550 0.574700 0.928599

loop_
_geom_bond_atom_site_label_1
_geom_bond_atom_site_label_2
_ccdc_geom_bond_type
C45   C60   A    
C34   C56   A    
C27   C29   A    
C23   H9    S    
C33   H47   S    
C47   H19   S    
C46   H16   S    
O12   Zn2   S    
C3    C42   A    
C52   C53   S    
C6    H12   S    
C57   H42   S    
C12   C23   A    
C26   C27   A    
C24   C36   A    
C22   C32   A    
C13   C18   A    
C49   H24   S    
C41   C58   A    
C12   C43   A    
C31   C36   A    
C51   H30   S    
C11   C14   A    
C53   H35   S    
C9    H45   S    
C48   H21   S    
C30   C38   A    
C1    O14   A    
C33   C35   A    
C6    C15   A    
C46   C47   S    
O3    Zn4   S    
C39   O2    A    
C3    C41   A    
C40   O5    A    
C48   H22   S    
C8    C9    A    
C55   H40   S    
C4    O13   A    
O17   Zn3   S    
C54   H37   S    
C56   C58   A    
C39   C42   S    
C36   H3    S    
C9    C10   A    
O14   Zn4   S    
C50   H28   S    
O2    Zn2   S    
C5    C43   A    
C44   O6    S    
C59   C60   A    
C16   C24   S    
C53   H36   S    
C47   H20   S    
C19   H23   S    
C44   C46   S    
C17   O6    S    
C24   C37   A    
C40   O3    A    
C3    H1    S    
C57   H43   S    
C53   H33   S    
C51   C52   S    
C49   H25   S    
C8    H34   S    
O13   Zn3   S    
C2    H7    S    
C43   H8    S    
O15   Zn1   S    
O5    Zn1   S    
C60   H11   S    
C58   C59   A    
C22   C37   A    
C5    C45   A    
C4    O15   A    
C25   H4    S    
C44   H15   S    
C18   H46   S    
C29   C30   A    
C27   H5    S    
C16   O10   A    
C25   C38   A    
O1    Zn3   S    
C31   C32   A    
C28   C38   S    
C23   C34   A    
C17   C18   A    
C13   C21   A    
C34   C45   A    
C44   H14   S    
C50   H27   S    
C48   O7    S    
C30   C35   A    
C39   O4    A    
C7    C20   A    
C7    C19   A    
C55   C57   S    
O1    Zn4   S    
C52   H32   S    
C55   H39   S    
C57   H41   S    
C28   O17   A    
C15   C17   A    
C12   H10   S    
C54   C55   S    
C48   C49   S    
C59   H2    S    
C1    C7    S    
C14   C19   A    
C28   O11   A    
C8    C21   A    
C46   H17   S    
C37   O7    S    
C6    C20   A    
C51   O8    S    
C35   H6    S    
C32   C33   A    
C10   H44   S    
C25   C26   A    
C29   C31   A    
C2    C56   A    
C51   H29   S    
C4    C21   S    
C11   C13   A    
C2    C42   A    
C22   H48   S    
O11   Zn4   S    
O1    Zn2   S    
C20   H13   S    
C16   O16   A    
C26   O8    S    
O4    Zn3   S    
C10   C11   A    
C50   H26   S    
O1    Zn1   S    
C49   C50   S    
C54   O9    S    
C5    C40   S    
O16   Zn2   S    
C14   C15   A    
C54   H38   S    
C52   H31   S    
O10   Zn1   S    
C47   H18   S    
C41   O9    S    
C1    O12   A    
