data_mof_unit_2786.cif
_audit_creation_date              2012-12-10T18:59:14-0500
_audit_creation_method            fapswitch 2.2
_symmetry_space_group_name_H-M    P1
_symmetry_Int_Tables_number       1
_space_group_crystal_system       triclinic
_cell_length_a                    10.777054
_cell_length_b                    10.82527
_cell_length_c                    9.561541
_cell_angle_alpha                 90.171392
_cell_angle_beta                  90.030291
_cell_angle_gamma                 89.74216
_cell_volume                      1115.4761511

loop_
_atom_site_label
_atom_site_type_symbol
_atom_type_description
_atom_site_fract_x
_atom_site_fract_y
_atom_site_fract_z
_atom_type_partial_charge
C1    C     C_R   0.497061 0.262491 0.499880 0.777497
C2    C     C_R   0.066288 0.394932 0.575421 0.096297
C3    C     C_R   0.129023 0.487881 0.499891 -0.098423
C4    C     C_R   0.063641 0.575276 0.421812 -0.211184
C5    C     C_R   0.935645 0.575491 0.422174 -0.213604
C6    C     C_R   0.871221 0.488140 0.500353 -0.097605
C7    C     C_R   0.486463 0.064141 0.625240 0.062554
C8    C     C_R   0.483991 0.129675 0.499906 -0.079769
C9    C     C_R   0.464622 0.064348 0.374329 -0.212145
C10   C     C_R   0.465094 0.935284 0.374360 -0.233995
C11   C     C_R   0.487065 0.870667 0.499554 -0.098192
C12   C     C_R   0.262668 0.496237 0.499997 0.786033
C13   C     C_R   0.492981 0.937514 0.624008 0.111265
C14   C     C_3   0.578102 0.934969 0.748440 0.064852
C15   C     C_3   0.566928 0.075594 0.752127 -0.502240
C16   C     C_R   0.608766 0.505764 0.073701 0.273148
C17   C     C_R   0.393454 0.482845 0.073994 -0.092564
C18   C     C_R   0.393454 0.482796 0.925688 -0.091209
C19   C     C_R   0.608791 0.505485 0.926438 0.256785
C20   C     C_3   0.702277 0.606291 0.921083 -0.490360
C21   C     C_3   0.702301 0.606660 0.079784 -0.522215
C22   C     C_R   0.498160 0.737561 0.499997 0.811644
C23   C     C_R   0.737407 0.496291 0.500082 0.795717
C24   C     C_R   0.130658 0.299542 0.646230 -0.194677
C25   C     C_R   0.066253 0.208150 0.718021 -0.135160
C26   C     C_R   0.937243 0.208673 0.718935 -0.152000
C27   C     C_R   0.871851 0.300378 0.647637 -0.197558
C28   C     C_R   0.935087 0.395200 0.575874 0.099034
Cu1   Cu    Cu3+1 0.499990 0.499980 0.640670 0.937648
Cu2   Cu    Cu3+1 0.500010 0.500020 0.359330 0.934721
H1    H     H_    0.112119 0.645521 0.362847 0.147155
H2    H     H_    0.513555 0.109911 0.843914 0.173096
H3    H     H_    0.654211 0.126423 0.732790 0.195593
H4    H     H_    0.306560 0.470193 0.128072 0.152452
H5    H     H_    0.306566 0.470028 0.871433 0.153544
H6    H     H_    0.791773 0.574652 0.875270 0.208194
H7    H     H_    0.663576 0.692139 0.875289 0.225286
H8    H     H_    0.791823 0.574741 0.125056 0.203101
H9    H     H_    0.664442 0.693310 0.126143 0.208517
H10   H     H_    0.230728 0.292892 0.644936 0.146069
H11   H     H_    0.116705 0.135766 0.771768 0.131293
H12   H     H_    0.887687 0.136751 0.773634 0.136387
H13   H     H_    0.771904 0.294698 0.647369 0.140758
H14   H     H_    0.886438 0.646019 0.363689 0.142470
H15   H     H_    0.454431 0.112248 0.275675 0.163556
H16   H     H_    0.454234 0.886874 0.275846 0.164148
H17   H     H_    0.535103 0.889672 0.840607 0.115213
N1    N     N_R   0.500790 0.500930 0.147930 -0.186858
N2    N     N_R   0.500790 0.500890 0.852020 -0.187351
O1    O     O_R   0.500000 0.319640 0.618810 -0.587922
O2    O     O_R   0.500010 0.319680 0.381230 -0.581677
O3    O     O_R   0.319640 0.499980 0.618820 -0.595700
O4    O     O_R   0.319650 0.500020 0.381230 -0.588647
O5    O     O_R   0.499990 0.680320 0.618770 -0.564269
O6    O     O_R   0.500000 0.680360 0.381190 -0.588271
O7    O     O_R   0.680350 0.499980 0.618770 -0.580806
O8    O     O_R   0.680360 0.500020 0.381180 -0.578847
N3    N     N_2   0.704628 0.891071 0.722524 -0.415575
H18   H     H_    0.760806 0.900812 0.809185 0.245318
C29   C     C_3   0.767864 0.919493 0.592397 -0.634564
H19   H     H_    0.868115 0.897000 0.602723 0.207414
H20   H     H_    0.759064 0.018672 0.565363 0.223528
H21   H     H_    0.731294 0.861912 0.505976 0.223099

loop_
_geom_bond_atom_site_label_1
_geom_bond_atom_site_label_2
_ccdc_geom_bond_type
C10   H16   S    
Cu2   O2    S    
C9    H15   S    
C14   H17   S    
Cu1   O7    S    
C1    C8    S    
C11   C13   A    
Cu2   O6    S    
C19   N2    A    
C11   C22   S    
C12   O4    A    
C21   H9    S    
C17   N1    A    
C7    C13   A    
Cu1   O5    S    
C16   N1    A    
C7    C15   S    
C17   C18   A    
N3    H18   S    
C22   O6    A    
C23   O7    A    
C22   O5    A    
Cu1   N2    S    
C13   C14   S    
C20   C21   S    
C20   H7    S    
C1    O2    A    
C26   C27   A    
C16   C21   S    
C29   H21   S    
C6    C23   S    
C18   H5    S    
Cu2   N1    S    
C12   O3    A    
C5    H14   S    
C1    O1    A    
C2    C3    A    
Cu1   O1    S    
C16   C19   A    
C2    C24   A    
C5    C6    A    
C14   N3    S    
Cu2   O4    S    
C4    H1    S    
C17   H4    S    
Cu1   Cu2   S    
C3    C4    A    
C20   H6    S    
Cu2   O8    S    
C27   H13   S    
C7    C8    A    
C24   C25   A    
C26   H12   S    
C29   H20   S    
C10   C11   A    
C25   H11   S    
C27   C28   A    
C23   O8    A    
C14   C15   S    
C29   H19   S    
C2    C28   A    
C3    C12   S    
C24   H10   S    
C25   C26   A    
C4    C5    A    
N3    C29   S    
C15   H3    S    
C6    C28   A    
C21   H8    S    
C19   C20   S    
C18   N2    A    
C9    C10   A    
C8    C9    A    
Cu1   O3    S    
C15   H2    S    
