data_mof_unit_4898.cif
_audit_creation_date              2012-12-10T16:48:47-0500
_audit_creation_method            fapswitch 2.2
_symmetry_space_group_name_H-M    P1
_symmetry_Int_Tables_number       1
_space_group_crystal_system       triclinic
_cell_length_a                    17.149204
_cell_length_b                    8.745113
_cell_length_c                    7.461232
_cell_angle_alpha                 103.307059
_cell_angle_beta                  89.800674
_cell_angle_gamma                 92.866292
_cell_volume                      1087.53055109

loop_
_atom_site_label
_atom_site_type_symbol
_atom_type_description
_atom_site_fract_x
_atom_site_fract_y
_atom_site_fract_z
_atom_type_partial_charge
C1    C     C_R   0.496175 0.200144 0.454324 0.831025
C2    C     C_R   0.502445 0.799612 0.545783 0.783322
C3    C     C_2   0.482678 0.033973 0.436351 -0.251104
C4    C     C_2   0.513793 0.965566 0.564111 -0.235695
C5    C     C_R   0.351514 0.506680 0.527953 0.905430
C6    C     C_R   0.649163 0.500217 0.473100 0.937166
C7    C     C_R   0.268863 0.533857 0.554433 -0.224657
C8    C     C_R   0.734245 0.506816 0.450896 -0.189245
C9    C     C_R   0.215388 0.403856 0.518467 0.265094
C10   C     C_R   0.781101 0.428075 0.551094 0.237466
C11   C     C_R   0.134719 0.429153 0.534372 0.270190
C12   C     C_R   0.863036 0.439655 0.534286 0.277425
C13   C     C_R   0.109384 0.583542 0.561474 -0.079939
C14   C     C_R   0.896504 0.522563 0.409825 -0.036992
C15   C     C_R   0.162921 0.713814 0.597766 0.433889
C16   C     C_R   0.849585 0.593627 0.301761 0.318098
C17   C     C_R   0.243229 0.689629 0.603886 0.260945
C18   C     C_R   0.767993 0.592677 0.329417 0.252746
C19   C     C_2   0.025057 0.609061 0.553534 0.018372
C20   C     C_2   0.982471 0.540802 0.399224 0.034180
Cu1   Cu    Cu3+1 0.508700 0.517250 0.683000 1.110103
Cu2   Cu    Cu3+1 0.491300 0.482750 0.317000 1.121319
N1    N     N_2   0.478180 0.456750 0.041980 0.137519
N2    N     N_2   0.521820 0.543250 0.958020 0.141273
O1    O     O_R   0.505650 0.286040 0.618880 -0.531588
O2    O     O_R   0.494350 0.713960 0.381120 -0.535877
O3    O     O_R   0.490960 0.256910 0.309800 -0.573124
O4    O     O_R   0.509040 0.743090 0.690200 -0.596090
O5    O     O_R   0.394600 0.516230 0.672450 -0.567781
O6    O     O_R   0.605400 0.483770 0.327550 -0.527475
O7    O     O_R   0.379910 0.487100 0.363380 -0.575451
O8    O     O_R   0.620090 0.512900 0.636620 -0.562156
O9    O     O_3   0.243803 0.255038 0.465737 -0.706531
H1    H     H_    0.203537 0.183322 0.390834 0.358925
O10   O     O_3   0.745256 0.339899 0.662270 -0.658127
H2    H     H_    0.778955 0.253466 0.672174 0.365041
O11   O     O_3   0.720337 0.680132 0.247362 -0.683562
H3    H     H_    0.751325 0.771060 0.221364 0.344661
O12   O     O_3   0.294264 0.820190 0.653710 -0.690596
H4    H     H_    0.346550 0.788240 0.680505 0.329338
C21   C     C_2   0.019511 0.473063 0.218558 0.995223
O13   O     O_2   0.984481 0.368742 0.105787 -0.547675
O14   O     O_R   0.092791 0.531529 0.174736 -0.738255
H5    H     H_    0.110738 0.476803 0.047523 0.352227
C22   C     C_2   0.988828 0.702710 0.723831 0.966602
O15   O     O_2   0.019792 0.712740 0.873826 -0.518456
O16   O     O_R   0.921068 0.782792 0.712555 -0.757391
H6    H     H_    0.902853 0.842181 0.837508 0.351517
O17   O     O_3   0.134471 0.862880 0.625851 -0.684890
H7    H     H_    0.178135 0.943268 0.640945 0.388962
O18   O     O_3   0.885221 0.666427 0.174928 -0.687268
H8    H     H_    0.848394 0.660428 0.071246 0.336894
O19   O     O_3   0.911948 0.372647 0.638108 -0.661450
H9    H     H_    0.887895 0.377398 0.760051 0.357065
O20   O     O_3   0.079356 0.306913 0.523370 -0.659752
H10   H     H_    0.103254 0.220299 0.565330 0.364432
C23   C     C_2   0.424018 0.953897 0.293013 0.933676
O21   O     O_2   0.368664 0.875505 0.334039 -0.547948
O22   O     O_R   0.431161 0.972557 0.112493 -0.694093
H11   H     H_    0.387841 0.913485 0.028440 0.343879
C24   C     C_2   0.573349 0.044851 0.704026 0.912545
O23   O     O_2   0.631962 0.109166 0.655818 -0.563014
O24   O     O_R   0.563424 0.040879 0.888912 -0.689754
H12   H     H_    0.607969 0.098190 0.970250 0.339716
O25   O     O_3   0.427596 0.353693 0.935762 -0.571477
H13   H     H_    0.400504 0.297825 0.021214 0.359388
O26   O     O_3   0.571111 0.648803 0.064638 -0.544228
H14   H     H_    0.597879 0.705089 0.979149 0.355984

loop_
_geom_bond_atom_site_label_1
_geom_bond_atom_site_label_2
_ccdc_geom_bond_type
C6    O8    A    
O14   H5    S    
C19   C22   S    
O19   H9    S    
C10   O10   S    
C14   C20   S    
C21   O14   S    
C21   O13   D    
C19   C20   D    
C2    C4    S    
C12   O19   S    
C16   O18   S    
N1    N2    D    
C1    O3    A    
N1    O25   S    
O20   H10   S    
C22   O16   S    
O9    H1    S    
C11   O20   S    
O22   H11   S    
C2    O2    A    
C16   C18   A    
C22   O15   D    
O25   H13   S    
C1    O1    A    
C9    C11   A    
C23   O21   D    
O11   H3    S    
C10   C12   A    
C9    O9    S    
C3    C23   S    
C8    C10   A    
C6    O6    A    
C18   O11   S    
C12   C14   A    
C20   C21   S    
C5    O5    A    
Cu2   O3    S    
C15   O17   S    
C13   C15   A    
C17   O12   S    
C24   O23   D    
Cu1   O8    S    
C14   C16   A    
C23   O22   S    
C2    O4    A    
Cu2   O7    S    
C13   C19   S    
O26   H14   S    
C7    C9    A    
C11   C13   A    
O18   H8    S    
C15   C17   A    
O17   H7    S    
Cu2   O2    S    
Cu1   N2    S    
O12   H4    S    
C5    C7    S    
Cu1   O1    S    
Cu2   N1    S    
C6    C8    S    
Cu2   O6    S    
N2    O26   S    
C1    C3    S    
Cu1   Cu2   S    
Cu1   O5    S    
C4    C24   S    
Cu1   O4    S    
C24   O24   S    
C8    C18   A    
C3    C4    D    
O16   H6    S    
O24   H12   S    
C5    O7    A    
O10   H2    S    
C7    C17   A    
