data_mof_unit_3180.cif
_audit_creation_date              2012-12-11T14:54:19-0500
_audit_creation_method            fapswitch 2.2
_symmetry_space_group_name_H-M    P1
_symmetry_Int_Tables_number       1
_space_group_crystal_system       triclinic
_cell_length_a                    19.021857
_cell_length_b                    10.893631
_cell_length_c                    18.810211
_cell_angle_alpha                 90.101902
_cell_angle_beta                  90.417441
_cell_angle_gamma                 90.716453
_cell_volume                      3897.38222187

loop_
_atom_site_label
_atom_site_type_symbol
_atom_type_description
_atom_site_fract_x
_atom_site_fract_y
_atom_site_fract_z
_atom_type_partial_charge
C1    C     C_R   0.727678 0.371930 0.643811 0.535787
C2    C     C_R   0.285628 0.336801 0.362201 0.538771
C3    C     C_R   0.227678 0.871930 0.643811 0.535787
C4    C     C_R   0.785628 0.836801 0.362201 0.538771
C5    C     C_3   0.431315 0.327071 0.481345 -0.245403
C6    C     C_3   0.452855 0.321081 0.558673 -0.251362
C7    C     C_3   0.931315 0.827071 0.481345 -0.245403
C8    C     C_3   0.952855 0.821081 0.558673 -0.251362
C9    C     C_R   0.734506 0.809421 0.552672 -0.113006
C10   C     C_R   0.308371 0.883828 0.463163 -0.150634
C11   C     C_R   0.234506 0.309421 0.552672 -0.113006
C12   C     C_R   0.808371 0.383828 0.463163 -0.150634
C13   C     C_R   0.742162 0.780891 0.480977 -0.134936
C14   C     C_R   0.302870 0.872535 0.536475 -0.160053
C15   C     C_R   0.242162 0.280891 0.480977 -0.134936
C16   C     C_R   0.802870 0.372535 0.536475 -0.160053
C17   C     C_R   0.767156 0.870911 0.433817 0.034610
C18   C     C_R   0.238514 0.895694 0.568942 0.027142
C19   C     C_R   0.267156 0.370911 0.433817 0.034610
C20   C     C_R   0.738514 0.395694 0.568942 0.027142
C21   C     C_R   0.781438 0.990274 0.457462 -0.141645
C22   C     C_R   0.179086 0.923064 0.527333 -0.142706
C23   C     C_R   0.281438 0.490274 0.457462 -0.141645
C24   C     C_R   0.679086 0.423064 0.527333 -0.142706
C25   C     C_R   0.772862 0.018749 0.527817 -0.108390
C26   C     C_R   0.184006 0.930661 0.454683 -0.154368
C27   C     C_R   0.272862 0.518749 0.527817 -0.108390
C28   C     C_R   0.684006 0.430661 0.454683 -0.154368
C29   C     C_R   0.750708 0.928383 0.575841 0.080472
C30   C     C_R   0.249235 0.917274 0.422456 0.017175
C31   C     C_R   0.250708 0.428383 0.575841 0.080472
C32   C     C_R   0.749235 0.417274 0.422456 0.017175
C33   C     C_R   0.533546 0.059266 0.972530 -0.123427
C34   C     C_R   0.524948 0.063396 0.045006 -0.137769
C35   C     C_R   0.033546 0.559266 0.972530 -0.123427
C36   C     C_R   0.024948 0.563396 0.045006 -0.137769
C37   C     C_R   0.498489 0.168963 0.076687 0.030115
C38   C     C_R   0.518207 0.162080 0.930414 0.034768
C39   C     C_R   0.998489 0.668963 0.076687 0.030115
C40   C     C_R   0.018207 0.662080 0.930414 0.034768
C41   C     C_R   0.486660 0.274695 0.035618 -0.128915
C42   C     C_R   0.497052 0.271445 0.962460 -0.135911
C43   C     C_R   0.986660 0.774695 0.035618 -0.128915
C44   C     C_R   0.997052 0.771445 0.962460 -0.135911
C45   C     C_R   0.564795 0.150492 0.638991 0.595805
C46   C     C_R   0.469368 0.156430 0.352964 0.547696
C47   C     C_R   0.064795 0.650492 0.638991 0.595805
C48   C     C_R   0.969368 0.656430 0.352964 0.547696
C49   C     C_R   0.798467 0.006626 0.970094 -0.130166
C50   C     C_R   0.203970 0.010296 0.029134 -0.125616
C51   C     C_R   0.298467 0.506626 0.970094 -0.130166
C52   C     C_R   0.703970 0.510296 0.029134 -0.125616
C53   C     C_R   0.798896 0.998578 0.042747 -0.138116
C54   C     C_R   0.203988 0.001848 0.956447 -0.131922
C55   C     C_R   0.298896 0.498578 0.042747 -0.138116
C56   C     C_R   0.703988 0.501848 0.956447 -0.131922
C57   C     C_R   0.751945 0.918772 0.076667 0.026683
C58   C     C_R   0.249005 0.919905 0.922981 0.031679
C59   C     C_R   0.251945 0.418772 0.076667 0.026683
C60   C     C_R   0.749005 0.419905 0.922981 0.031679
C61   C     C_R   0.699534 0.856513 0.037372 -0.143521
C62   C     C_R   0.299362 0.855915 0.962815 -0.130868
C63   C     C_R   0.199534 0.356512 0.037372 -0.143521
C64   C     C_R   0.799362 0.355915 0.962815 -0.130868
C65   C     C_R   0.697437 0.868198 0.963843 -0.143317
C66   C     C_R   0.301165 0.868089 0.036318 -0.134291
C67   C     C_R   0.197437 0.368198 0.963843 -0.143317
C68   C     C_R   0.801165 0.368089 0.036318 -0.134291
C69   C     C_R   0.747932 0.941654 0.929873 0.039244
C70   C     C_R   0.252210 0.943328 0.069818 0.035217
C71   C     C_R   0.247932 0.441654 0.929873 0.039244
C72   C     C_R   0.752210 0.443328 0.069818 0.035217
C73   C     C_R   0.741779 0.967329 0.648267 0.541679
C74   C     C_R   0.258567 0.967917 0.352017 0.529869
C75   C     C_R   0.241779 0.467329 0.648267 0.541679
C76   C     C_R   0.758567 0.467917 0.352017 0.529869
C77   C     C_R   0.730217 0.379309 0.852019 0.549479
C78   C     C_R   0.270099 0.378869 0.147672 0.544962
C79   C     C_R   0.230217 0.879309 0.852019 0.549479
C80   C     C_R   0.770099 0.878869 0.147672 0.544962
C81   C     C_R   0.535720 0.156257 0.855497 0.556128
C82   C     C_R   0.468374 0.157982 0.147057 0.540674
C83   C     C_R   0.035720 0.656257 0.855497 0.556128
C84   C     C_R   0.968374 0.657982 0.147057 0.540674
C85   C     C_R   0.740648 0.973755 0.855584 0.547282
C86   C     C_R   0.259334 0.974656 0.144309 0.546165
C87   C     C_R   0.240648 0.473755 0.855584 0.547282
C88   C     C_R   0.759334 0.474656 0.144309 0.546165
C89   C     C_R   0.511706 0.170744 0.417780 -0.031686
C90   C     C_R   0.550290 0.157505 0.562319 -0.017587
C91   C     C_R   0.011706 0.670744 0.417780 -0.031686
C92   C     C_R   0.050290 0.657505 0.562319 -0.017587
C93   C     C_R   0.499137 0.268038 0.464044 -0.053319
C94   C     C_R   0.519141 0.262390 0.534681 -0.049360
C95   C     C_R   0.999137 0.768038 0.464044 -0.053319
C96   C     C_R   0.019141 0.762390 0.534681 -0.049360
C97   C     C_R   0.570030 0.063346 0.514543 0.247179
C98   C     C_R   0.557841 0.078017 0.440421 0.235048
C99   C     C_R   0.070030 0.563346 0.514543 0.247179
C100  C     C_R   0.057841 0.578017 0.440421 0.235048
Cr1   Cr    Cr6+3 0.771950 0.169480 0.750100 1.002681
Cr2   Cr    Cr6+3 0.228050 0.169480 0.249900 0.997585
Cr3   Cr    Cr6+3 0.271950 0.669480 0.750100 1.002681
Cr4   Cr    Cr6+3 0.728050 0.669480 0.249900 0.997585
Cr5   Cr    Cr6+3 0.614930 0.323340 0.749170 1.005975
Cr6   Cr    Cr6+3 0.385070 0.323340 0.250830 1.000365
Cr7   Cr    Cr6+3 0.114930 0.823340 0.749170 1.005975
Cr8   Cr    Cr6+3 0.885070 0.823340 0.250830 1.000365
Cr9   Cr    Cr6+3 0.616590 0.010620 0.750610 1.010726
Cr10  Cr    Cr6+3 0.383410 0.010620 0.249390 1.002528
Cr11  Cr    Cr6+3 0.116590 0.510620 0.750610 1.010726
Cr12  Cr    Cr6+3 0.883410 0.510620 0.249390 1.002528
H1    H     H_    0.837104 0.066810 0.945830 0.126922
H2    H     H_    0.166792 0.072087 0.053081 0.129777
H3    H     H_    0.337104 0.566810 0.945830 0.126922
H4    H     H_    0.666792 0.572087 0.053081 0.129777
H5    H     H_    0.839333 0.048960 0.071851 0.124329
H6    H     H_    0.165220 0.053550 0.926930 0.127312
H7    H     H_    0.339333 0.548960 0.071851 0.124329
H8    H     H_    0.665220 0.553550 0.926930 0.127312
H9    H     H_    0.662401 0.795191 0.062980 0.115695
H10   H     H_    0.334870 0.792519 0.937696 0.123056
H11   H     H_    0.162402 0.295191 0.062980 0.115695
H12   H     H_    0.834870 0.292519 0.937696 0.123056
H13   H     H_    0.656716 0.820435 0.933769 0.111493
H14   H     H_    0.340300 0.818929 0.066754 0.119413
H15   H     H_    0.156716 0.320435 0.933769 0.111493
H16   H     H_    0.840300 0.318929 0.066754 0.119413
H17   H     H_    0.886306 0.765169 0.468628 0.135165
H18   H     H_    0.962418 0.912351 0.583006 0.146167
H19   H     H_    0.386306 0.265169 0.468628 0.135165
H20   H     H_    0.462418 0.412351 0.583006 0.146168
H21   H     H_    0.428370 0.422211 0.460409 0.152867
H22   H     H_    0.418986 0.258280 0.590521 0.147109
H23   H     H_    0.928370 0.922211 0.460409 0.152867
H24   H     H_    0.918986 0.758280 0.590521 0.147109
H25   H     H_    0.717272 0.739480 0.589682 0.101567
H26   H     H_    0.359528 0.873380 0.439118 0.136491
H27   H     H_    0.217272 0.239481 0.589682 0.101567
H28   H     H_    0.859528 0.373380 0.439118 0.136491
H29   H     H_    0.731728 0.688068 0.462863 0.126642
H30   H     H_    0.348597 0.847508 0.567643 0.119778
H31   H     H_    0.231728 0.188068 0.462863 0.126642
H32   H     H_    0.848597 0.347508 0.567643 0.119778
H33   H     H_    0.800219 0.061362 0.421859 0.124448
H34   H     H_    0.128017 0.937499 0.550690 0.144655
H35   H     H_    0.300219 0.561362 0.421859 0.124448
H36   H     H_    0.628017 0.437499 0.550690 0.144655
H37   H     H_    0.783621 0.112162 0.544863 0.133544
H38   H     H_    0.137645 0.955323 0.424332 0.135188
H39   H     H_    0.283620 0.612162 0.544863 0.133544
H40   H     H_    0.637645 0.455323 0.424332 0.135188
H41   H     H_    0.552908 0.974979 0.949695 0.134964
H42   H     H_    0.535111 0.981253 0.075651 0.121932
H43   H     H_    0.052908 0.474979 0.949695 0.134964
H44   H     H_    0.035111 0.481253 0.075651 0.121932
H45   H     H_    0.465785 0.357245 0.059213 0.132883
H46   H     H_    0.487327 0.352749 0.930991 0.121210
H47   H     H_    0.965785 0.857245 0.059213 0.132883
H48   H     H_    0.987327 0.852749 0.930991 0.121210
O1    O     O_R   0.787510 0.042610 0.670410 -0.534342
O2    O     O_R   0.212490 0.042610 0.329590 -0.529140
O3    O     O_R   0.287510 0.542610 0.670410 -0.534342
O4    O     O_R   0.712490 0.542610 0.329590 -0.529140
O5    O     O_R   0.556450 0.252890 0.823790 -0.496601
O6    O     O_R   0.443550 0.252890 0.176210 -0.504436
O7    O     O_R   0.056450 0.752890 0.823790 -0.496601
O8    O     O_R   0.943550 0.752890 0.176210 -0.504436
O9    O     O_R   0.545750 0.051070 0.830560 -0.528667
O10   O     O_R   0.454250 0.051070 0.169440 -0.535724
O11   O     O_R   0.045750 0.551070 0.830560 -0.528667
O12   O     O_R   0.954250 0.551070 0.169440 -0.535724
O13   O     O_R   0.681210 0.959150 0.825320 -0.512469
O14   O     O_R   0.318790 0.959150 0.174680 -0.500186
O15   O     O_R   0.181210 0.459150 0.825320 -0.512469
O16   O     O_R   0.818790 0.459150 0.174680 -0.500186
O17   O     O_3   0.667820 0.167810 0.749960 -0.267322
O18   O     O_3   0.332180 0.167810 0.250040 -0.254578
O19   O     O_3   0.167820 0.667810 0.749960 -0.267322
O20   O     O_3   0.832180 0.667810 0.250040 -0.254578
O21   O     O_R   0.765670 0.292090 0.675090 -0.506637
O22   O     O_R   0.234330 0.292090 0.324910 -0.499755
O23   O     O_R   0.265670 0.792090 0.675090 -0.506637
O24   O     O_R   0.734330 0.792090 0.324910 -0.499755
O25   O     O_R   0.670220 0.409020 0.668560 -0.536204
O26   O     O_R   0.329780 0.409020 0.331440 -0.535147
O27   O     O_R   0.170220 0.909020 0.668560 -0.536204
O28   O     O_R   0.829780 0.909020 0.331440 -0.535147
O29   O     O_R   0.556580 0.251590 0.674980 -0.508207
O30   O     O_R   0.443420 0.251590 0.325020 -0.515717
O31   O     O_R   0.056580 0.751590 0.674980 -0.508207
O32   O     O_R   0.943420 0.751590 0.325020 -0.515717
O33   O     O_R   0.545890 0.049670 0.670030 -0.503255
O34   O     O_R   0.454110 0.049670 0.329970 -0.499837
O35   O     O_R   0.045890 0.549670 0.670030 -0.503255
O36   O     O_R   0.954110 0.549670 0.329970 -0.499837
O37   O     O_R   0.681340 0.957860 0.676500 -0.489988
O38   O     O_R   0.318660 0.957860 0.323500 -0.508267
O39   O     O_R   0.181340 0.457860 0.676500 -0.489988
O40   O     O_R   0.818660 0.457860 0.323500 -0.508267
O41   O     O_R   0.787380 0.044010 0.830940 -0.527080
O42   O     O_R   0.212620 0.044010 0.169060 -0.528732
O43   O     O_R   0.287380 0.544010 0.830940 -0.527080
O44   O     O_R   0.712620 0.544010 0.169060 -0.528732
O45   O     O_R   0.765540 0.293390 0.823910 -0.503776
O46   O     O_R   0.234460 0.293390 0.176090 -0.509746
O47   O     O_R   0.265540 0.793390 0.823910 -0.503776
O48   O     O_R   0.734460 0.793390 0.176090 -0.509746
O49   O     O_R   0.670090 0.410410 0.829090 -0.522578
O50   O     O_R   0.329910 0.410410 0.170910 -0.523887
O51   O     O_R   0.170090 0.910410 0.829090 -0.522578
O52   O     O_R   0.829910 0.910410 0.170910 -0.523887
O53   O     O_3   0.598939 0.956817 0.541161 -0.543695
C101  C     C_3   0.555738 0.853513 0.524155 0.054917
H49   H     H_    0.583350 0.797011 0.484071 0.181161
H50   H     H_    0.502908 0.876957 0.501866 0.120418
C102  C     C_3   0.543787 0.777136 0.591121 -0.261957
H51   H     H_    0.594997 0.753723 0.615902 0.175657
H52   H     H_    0.513267 0.831236 0.629974 0.187015
C103  C     C_3   0.503146 0.659073 0.574538 -0.501093
H53   H     H_    0.450979 0.679908 0.550823 0.143141
H54   H     H_    0.494942 0.607570 0.624716 0.150848
H55   H     H_    0.533151 0.601124 0.537080 0.144011
O54   O     O_3   0.584666 0.994165 0.392371 -0.555879
C104  C     C_3   0.628164 0.056012 0.342299 0.028162
H56   H     H_    0.683820 0.041138 0.356832 0.161482
H57   H     H_    0.621297 0.157651 0.340291 0.102363
C105  C     C_3   0.615165 0.003816 0.267727 -0.248711
H58   H     H_    0.633727 0.907849 0.265060 0.192727
H59   H     H_    0.558221 0.002364 0.255520 0.204654
C106  C     C_3   0.652462 0.080970 0.211426 -0.471727
H60   H     H_    0.631574 0.175756 0.210929 0.146967
H61   H     H_    0.643132 0.039658 0.158193 0.143129
H62   H     H_    0.709915 0.084927 0.222285 0.160889
O55   O     O_3   0.098938 0.456817 0.541161 -0.543695
C107  C     C_3   0.055738 0.353513 0.524155 0.054916
H63   H     H_    0.083350 0.297011 0.484071 0.181161
H64   H     H_    0.002908 0.376957 0.501866 0.120418
C108  C     C_3   0.043787 0.277136 0.591121 -0.261957
H65   H     H_    0.094997 0.253723 0.615902 0.175657
H66   H     H_    0.013267 0.331236 0.629974 0.187015
C109  C     C_3   0.003146 0.159073 0.574538 -0.501093
H67   H     H_    0.950979 0.179908 0.550823 0.143141
H68   H     H_    0.994942 0.107570 0.624716 0.150848
H69   H     H_    0.033151 0.101124 0.537080 0.144011
O56   O     O_3   0.084666 0.494165 0.392371 -0.555879
C110  C     C_3   0.128164 0.556012 0.342299 0.028162
H70   H     H_    0.183820 0.541138 0.356832 0.161482
H71   H     H_    0.121297 0.657651 0.340291 0.102363
C111  C     C_3   0.115165 0.503816 0.267727 -0.248711
H72   H     H_    0.133727 0.407849 0.265060 0.192727
H73   H     H_    0.058221 0.502364 0.255520 0.204654
C112  C     C_3   0.152462 0.580970 0.211426 -0.471727
H74   H     H_    0.131574 0.675755 0.210929 0.146967
H75   H     H_    0.143132 0.539658 0.158193 0.143129
H76   H     H_    0.209915 0.584927 0.222285 0.160889

loop_
_geom_bond_atom_site_label_1
_geom_bond_atom_site_label_2
_ccdc_geom_bond_type
C58   C62   A    
C49   H1    S    
C14   H30   S    
C93   C94   A    
C48   O36   A    
C55   C59   A    
C63   H11   S    
C8    H24   S    
C34   C37   A    
C41   C42   A    
C14   C18   A    
Cr9   O37   S    
C95   C96   A    
C8    C96   S    
C86   O42   A    
O54   C104  S    
C105  H59   S    
C97   C98   A    
C103  H53   S    
C7    C8    S    
C46   C89   S    
C55   H7    S    
O53   C101  S    
C102  C103  S    
C79   O51   A    
C50   C54   A    
C51   C71   A    
C37   C41   A    
Cr11  O15   S    
C64   C68   A    
C75   O3    A    
C16   H32   S    
C108  H65   S    
Cr3   O47   S    
C39   C84   S    
C38   C42   A    
C52   H4    S    
C43   H47   S    
C71   C87   S    
C112  H74   S    
C30   C74   S    
C53   H5    S    
C82   O10   A    
Cr3   O19   S    
Cr10  O38   S    
Cr10  O18   S    
C111  H73   S    
C2    O26   A    
Cr6   O50   S    
Cr7   O27   S    
C103  H55   S    
C92   C96   A    
C104  C105  S    
Cr5   O49   S    
C107  H63   S    
Cr8   O20   S    
C3    C18   S    
C61   H9    S    
C47   C92   S    
C5    H19   S    
Cr5   O25   S    
Cr8   O52   S    
C9    C13   A    
Cr12  O36   S    
C11   H27   S    
C75   O39   A    
Cr11  O39   S    
C52   C56   A    
C9    H25   S    
C22   H34   S    
C107  H64   S    
C6    C94   S    
C48   C91   S    
C83   O11   A    
Cr10  O34   S    
C85   O13   A    
O55   C107  S    
C12   H28   S    
Cr9   O33   S    
C23   C27   A    
C91   C100  A    
C108  C109  S    
Cr3   O43   S    
C78   O50   A    
C90   C97   A    
C67   C71   A    
C77   O49   A    
Cr12  O20   S    
Cr7   O19   S    
C111  C112  S    
Cr10  O14   S    
Cr8   O8    S    
C11   C31   A    
C49   C69   A    
C12   C32   A    
C25   C29   A    
C56   H8    S    
C40   C83   S    
C87   O15   A    
C103  H54   S    
C42   H46   S    
C11   C15   A    
C46   O30   A    
C59   C78   S    
C87   O43   A    
C105  H58   S    
C72   C88   S    
Cr9   O9    S    
C90   C94   A    
C63   C67   A    
C110  H71   S    
C45   O33   A    
Cr7   O7    S    
C60   C77   S    
C59   C63   A    
C109  H69   S    
C7    H17   S    
C62   C66   A    
C27   C31   A    
Cr2   O22   S    
C12   C16   A    
C28   C32   A    
C100  O56   S    
Cr11  O19   S    
Cr6   O26   S    
C6    H20   S    
C76   O40   A    
C109  H68   S    
C112  H75   S    
C53   C57   A    
C101  H49   S    
C39   C43   A    
C51   C55   A    
C111  H72   S    
C64   H12   S    
C83   O7    A    
C1    O21   A    
C88   O44   A    
C74   O38   A    
C66   H14   S    
C46   O34   A    
C73   O37   A    
C68   C72   A    
C86   O14   A    
C35   C36   A    
C65   H13   S    
Cr4   O20   S    
C15   C19   A    
C43   C44   A    
C78   O46   A    
C7    H23   S    
C15   H31   S    
C52   C72   A    
C69   C85   S    
C77   O45   A    
C99   O55   S    
C2    O22   A    
C10   C30   A    
C73   O1    A    
C99   C100  A    
C26   H38   S    
C16   C20   A    
C54   C58   A    
C33   C34   A    
C5    H21   S    
C108  H66   S    
C98   O54   S    
C4    O24   A    
C57   C61   A    
C45   C90   S    
Cr2   O46   S    
Cr1   O45   S    
C85   O41   A    
C41   H45   S    
C4    C17   S    
C58   C79   S    
C45   O29   A    
C80   O48   A    
C57   C80   S    
C26   C30   A    
C34   H42   S    
C81   O9    A    
C106  H61   S    
C38   C81   S    
C8    H18   S    
C68   H16   S    
C44   H48   S    
Cr3   O23   S    
C37   C82   S    
C76   O4    A    
C21   H33   S    
Cr6   O30   S    
Cr12  O16   S    
C70   C86   S    
Cr4   O44   S    
C31   C75   S    
C62   H10   S    
Cr1   O21   S    
Cr2   O2    S    
C36   H44   S    
C74   O2    A    
C82   O6    A    
C110  C111  S    
C47   O35   A    
C65   C69   A    
C21   C25   A    
O56   C110  S    
C1    C20   S    
C27   H39   S    
C109  H67   S    
C2    C19   S    
C18   C22   A    
Cr3   O3    S    
C13   H29   S    
Cr8   O28   S    
C36   C39   A    
C24   C28   A    
C25   H37   S    
Cr5   O17   S    
C84   O12   A    
C101  C102  S    
C3    O27   A    
C32   C76   S    
C112  H76   S    
C5    C93   S    
C110  H70   S    
C47   O31   A    
C28   H40   S    
C9    C29   A    
C102  H52   S    
Cr12  O40   S    
C7    C95   S    
C66   C70   A    
C67   H15   S    
C33   C38   A    
C88   O16   A    
C107  C108  S    
C13   C17   A    
C89   C98   A    
C60   C64   A    
C1    O25   A    
C4    O28   A    
C54   H6    S    
C35   C40   A    
C102  H51   S    
C101  H50   S    
C6    H22   S    
Cr1   O41   S    
C79   O47   A    
C56   C60   A    
Cr7   O51   S    
Cr4   O4    S    
C5    C6    S    
C23   H35   S    
Cr6   O6    S    
Cr2   O18   S    
Cr1   O1    S    
C104  H57   S    
Cr5   O29   S    
Cr5   O5    S    
C106  H62   S    
Cr9   O13   S    
Cr4   O48   S    
C89   C93   A    
C80   O52   A    
C20   C24   A    
C51   H3    S    
C50   C70   A    
C48   O32   A    
C49   C53   A    
Cr1   O17   S    
C91   C95   A    
C10   C14   A    
C61   C65   A    
C19   C23   A    
C40   C44   A    
C29   C73   S    
C84   O8    A    
Cr10  O10   S    
Cr2   O42   S    
C22   C26   A    
Cr7   O31   S    
C106  H60   S    
Cr9   O17   S    
C81   O5    A    
Cr8   O32   S    
Cr4   O24   S    
C97   O53   S    
C10   H26   S    
C50   H2    S    
C33   H41   S    
C3    O23   A    
Cr6   O18   S    
C105  C106  S    
C24   H36   S    
C35   H43   S    
C92   C99   A    
Cr11  O35   S    
Cr11  O11   S    
C104  H56   S    
Cr12  O12   S    
C17   C21   A    
