data_mof_unit_4848.cif
_audit_creation_date              2012-10-26T19:07:27-0400
_audit_creation_method            fapswitch 2.2
_symmetry_space_group_name_H-M    P1
_symmetry_Int_Tables_number       1
_space_group_crystal_system       triclinic
_cell_length_a                    15.095199
_cell_length_b                    13.69844
_cell_length_c                    10.634257
_cell_angle_alpha                 89.768298
_cell_angle_beta                  89.873917
_cell_angle_gamma                 89.963905
_cell_volume                      2198.93514151

loop_
_atom_site_label
_atom_site_type_symbol
_atom_type_description
_atom_site_fract_x
_atom_site_fract_y
_atom_site_fract_z
_atom_type_partial_charge
C1    C     C_R   0.328509 0.500006 0.500266 0.547697
C2    C     C_R   0.954835 0.678959 0.486734 -0.010756
C3    C     C_R   0.441316 0.793142 0.574591 0.037917
C4    C     C_R   0.558683 0.206858 0.425409 0.037917
C5    C     C_R   0.558700 0.793518 0.425429 0.039778
C6    C     C_R   0.441300 0.206482 0.574571 0.039778
C7    C     C_R   0.560187 0.896582 0.423781 -0.013253
C8    C     C_R   0.439813 0.103417 0.576218 -0.013254
C9    C     C_R   0.439839 0.896199 0.576251 -0.015839
C10   C     C_R   0.560161 0.103801 0.423749 -0.015839
C11   C     C_R   0.500006 0.948183 0.500007 0.054711
C12   C     C_R   0.671490 0.499994 0.499733 0.547697
C13   C     C_R   0.499994 0.051817 0.499993 0.054711
C14   C     C_R   0.620134 0.949059 0.348042 -0.129903
C15   C     C_R   0.379866 0.050941 0.651958 -0.129903
C16   C     C_R   0.379894 0.948294 0.651997 -0.136816
C17   C     C_R   0.620106 0.051706 0.348003 -0.136816
C18   C     C_R   0.500017 0.500237 0.259068 0.554548
C19   C     C_R   0.499982 0.499763 0.740931 0.554548
C20   C     C_3   0.500579 0.592938 0.039946 -0.112068
C21   C     C_3   0.499421 0.407062 0.960054 -0.112068
C22   C     C_3   0.573070 0.545451 0.957470 -0.122500
C23   C     C_R   0.953501 0.500431 0.499766 0.045506
C24   C     C_3   0.426930 0.454548 0.042530 -0.122500
C25   C     C_3   0.427492 0.546645 0.957934 -0.125386
C26   C     C_3   0.572508 0.453355 0.042066 -0.125386
C27   C     C_3   0.499985 0.499249 0.877737 0.042907
C28   C     C_3   0.500015 0.500751 0.122263 0.042907
C29   C     C_R   0.814370 0.588734 0.493067 -0.135212
C30   C     C_R   0.185630 0.411266 0.506933 -0.135212
C31   C     C_R   0.768274 0.500111 0.499414 -0.017251
C32   C     C_R   0.231726 0.499889 0.500586 -0.017252
C33   C     C_R   0.814646 0.411767 0.505591 -0.135184
C34   C     C_R   0.046499 0.499569 0.500234 0.045506
C35   C     C_R   0.185354 0.588233 0.494409 -0.135184
C36   C     C_R   0.906853 0.411277 0.505963 -0.001543
C37   C     C_R   0.093147 0.588723 0.494037 -0.001543
C38   C     C_1   0.088985 0.227284 0.520647 0.181715
C39   C     C_1   0.911014 0.772716 0.479354 0.181715
C40   C     C_R   0.907142 0.590272 0.493098 0.000611
C41   C     C_R   0.092858 0.409728 0.506902 0.000611
C42   C     C_R   0.952746 0.322643 0.512653 -0.131911
C43   C     C_R   0.047254 0.677357 0.487347 -0.131911
C44   C     C_R   0.045165 0.321041 0.513266 -0.010756
Cu1   Cu    Cu3+1 0.500000 0.597420 0.500000 0.935782
Cu2   Cu    Cu3+1 0.500000 0.402580 0.500000 0.935782
H1    H     H_    0.368210 0.584733 0.920287 0.111379
H2    H     H_    0.220973 0.656882 0.489498 0.128671
H3    H     H_    0.916393 0.254391 0.517503 0.121205
H4    H     H_    0.083607 0.745609 0.482497 0.121205
H5    H     H_    0.395603 0.752107 0.632876 0.119971
H6    H     H_    0.604397 0.247893 0.367124 0.119971
H7    H     H_    0.604411 0.752779 0.367143 0.121816
H8    H     H_    0.395589 0.247221 0.632857 0.121816
H9    H     H_    0.667043 0.910740 0.288830 0.118917
H10   H     H_    0.332957 0.089260 0.711170 0.118917
H11   H     H_    0.333020 0.909676 0.711266 0.110389
H12   H     H_    0.631790 0.415266 0.079713 0.111379
H13   H     H_    0.666980 0.090324 0.288734 0.110389
H14   H     H_    0.501082 0.669092 0.075281 0.124025
H15   H     H_    0.498918 0.330907 0.924719 0.124025
H16   H     H_    0.632828 0.582551 0.919475 0.118634
H17   H     H_    0.367172 0.417449 0.080525 0.118633
H18   H     H_    0.777533 0.656482 0.487994 0.144084
H19   H     H_    0.222467 0.343518 0.512007 0.144084
H20   H     H_    0.779027 0.343118 0.510502 0.128671
N1    N     N_R   0.500000 0.743810 0.500000 -0.239502
N2    N     N_R   0.500000 0.256190 0.500000 -0.239502
N3    N     N_1   0.124078 0.152265 0.526587 -0.302911
N4    N     N_1   0.875922 0.847735 0.473414 -0.302911
O1    O     O_R   0.370260 0.582280 0.500030 -0.510486
O2    O     O_R   0.629740 0.417720 0.499970 -0.510486
O3    O     O_R   0.629740 0.582280 0.499970 -0.509118
O4    O     O_R   0.370260 0.417720 0.500030 -0.509118
O5    O     O_R   0.499980 0.582260 0.316850 -0.507699
O6    O     O_R   0.500020 0.417740 0.683150 -0.507699
O7    O     O_R   0.500020 0.582260 0.683150 -0.502923
O8    O     O_R   0.499980 0.417740 0.316850 -0.502923

loop_
_geom_bond_atom_site_label_1
_geom_bond_atom_site_label_2
_ccdc_geom_bond_type
C21   C26   S    
C18   O5    A    
Cu1   O1    S    
C34   C37   A    
C36   C42   A    
C5    N1    A    
Cu2   O6    S    
Cu1   Cu2   S    
C7    C11   A    
C1    O1    A    
C4    H6    S    
C1    O4    A    
C5    H7    S    
C19   O6    A    
C35   C37   A    
C9    C16   A    
C24   H17   S    
C20   C25   S    
C10   C17   A    
C23   C40   A    
C33   C36   A    
Cu1   O3    S    
C19   O7    A    
Cu2   N2    S    
C2    C39   S    
C7    C14   A    
Cu1   N1    S    
C31   C33   A    
C30   C41   A    
C20   H14   S    
C19   C27   S    
C25   H1    S    
C21   H15   S    
C6    N2    A    
C14   H9    S    
C12   O2    A    
C38   N3    T    
C12   O3    A    
C14   C17   A    
C34   C41   A    
C42   C44   A    
C6    H8    S    
C35   H2    S    
C33   H20   S    
C5    C7    A    
C32   C35   A    
C18   C28   S    
C24   C25   S    
Cu2   O8    S    
C3    H5    S    
C6    C8    A    
C20   C28   S    
C1    C32   S    
C37   C43   A    
C38   C44   S    
C3    C9    A    
C22   H16   S    
C9    C11   A    
C2    C43   A    
C18   O8    A    
C23   C34   A    
C26   H12   S    
C17   H13   S    
C20   C22   S    
C8    C15   A    
C22   C27   S    
C12   C31   S    
C41   C44   A    
C4    C10   A    
Cu2   O4    S    
C4    N2    A    
Cu2   O2    S    
C3    N1    A    
C24   C28   S    
C10   C13   A    
C43   H4    S    
C25   C27   S    
C26   C28   S    
Cu1   O5    S    
C15   H10   S    
C29   C31   A    
C30   C32   A    
C11   C13   A    
C29   C40   A    
C39   N4    T    
C16   H11   S    
C21   C27   S    
C29   H18   S    
C30   H19   S    
C42   H3    S    
C8    C13   A    
C2    C40   A    
C23   C36   A    
C22   C26   S    
C21   C24   S    
Cu1   O7    S    
C15   C16   A    
