data_mof_unit_2540.cif
_audit_creation_date              2012-12-11T15:23:28-0500
_audit_creation_method            fapswitch 2.2
_symmetry_space_group_name_H-M    P1
_symmetry_Int_Tables_number       1
_space_group_crystal_system       triclinic
_cell_length_a                    6.932425
_cell_length_b                    17.494873
_cell_length_c                    19.31313
_cell_angle_alpha                 109.564135
_cell_angle_beta                  90.358761
_cell_angle_gamma                 90.79107
_cell_volume                      2206.74603322

loop_
_atom_site_label
_atom_site_type_symbol
_atom_type_description
_atom_site_fract_x
_atom_site_fract_y
_atom_site_fract_z
_atom_type_partial_charge
O1    O     O_R   0.505810 0.439670 0.562310 -0.546362
O2    O     O_R   0.169070 0.404920 0.411210 -0.534725
O3    O     O_R   0.005550 0.560330 0.437690 -0.541501
C1    C     C_R   0.337433 0.381570 0.382798 0.681934
O4    O     O_R   0.175650 0.430000 0.560110 -0.518651
O5    O     O_R   0.012170 0.585580 0.587650 -0.544140
C2    C     C_R   0.344211 0.414383 0.581314 0.743393
O6    O     O_R   0.499180 0.414420 0.412350 -0.536216
O7    O     O_3   0.341430 0.551020 0.508860 -0.375415
V1    V     V_3+5 0.063930 0.490540 0.498360 1.434463
O8    O     O_R   0.682850 0.595080 0.588790 -0.544292
C3    C     C_R   0.853120 0.617688 0.617282 0.694334
O9    O     O_R   0.676280 0.570000 0.439890 -0.543033
C4    C     C_R   0.845247 0.584898 0.417986 0.706876
V2    V     V_3+5 0.564760 0.509460 0.501640 1.402785
O10   O     O_3   0.837130 0.448980 0.491140 -0.359584
C5    C     C_R   0.752758 0.870324 0.175937 -0.191325
C6    C     C_R   0.913790 0.864947 0.130714 -0.108024
C7    C     C_R   0.063094 0.811914 0.132464 -0.214206
C8    C     C_R   0.051712 0.763214 0.177684 0.058401
C9    C     C_R   0.890974 0.770897 0.224265 -0.014427
C10   C     C_R   0.741440 0.824596 0.223230 0.114186
C11   C     C_R   0.197582 0.707382 0.177925 0.293783
C12   C     C_R   0.186374 0.663631 0.227065 -0.266450
C13   C     C_R   0.028864 0.671979 0.274069 0.053167
C14   C     C_R   0.879185 0.724895 0.272034 0.044066
C15   C     C_R   0.717632 0.731984 0.317903 0.104221
C16   C     C_R   0.570338 0.785537 0.316198 -0.200583
C17   C     C_R   0.582449 0.831623 0.269510 -0.177830
C18   C     C_R   0.017779 0.627466 0.322529 -0.198326
C19   C     C_R   0.856565 0.633550 0.368008 -0.088183
C20   C     C_R   0.706271 0.685611 0.364824 -0.225854
H1    H     H_    0.637315 0.911294 0.175306 0.120668
H2    H     H_    0.187331 0.808289 0.097865 0.168061
H3    H     H_    0.300316 0.622014 0.227677 0.130954
H4    H     H_    0.133490 0.586895 0.323886 0.122566
H5    H     H_    0.581621 0.690978 0.399663 0.127207
H6    H     H_    0.445278 0.791693 0.350915 0.132196
H7    H     H_    0.466280 0.872303 0.269118 0.125961
C21   C     C_3   0.776839 0.811024 0.746402 -0.119590
C22   C     C_3   0.945598 0.773083 0.694291 -0.194602
H8    H     H_    0.993405 0.791994 0.647621 0.114550
H9    H     H_    0.687023 0.861998 0.743648 0.105572
C23   C     C_3   0.868906 0.687729 0.687960 -0.065169
C24   C     C_3   0.700157 0.724941 0.739483 -0.166952
C25   C     C_3   0.825827 0.726397 0.806918 -0.152332
C26   C     C_3   0.992742 0.690383 0.754633 0.357355
C27   C     C_3   0.072551 0.774968 0.761451 -0.163730
C28   C     C_3   0.902898 0.811592 0.812729 -0.048013
H10   H     H_    0.547006 0.704445 0.729936 0.120862
H11   H     H_    0.778374 0.707003 0.853367 0.099412
H12   H     H_    0.226069 0.794971 0.770821 0.110676
C29   C     C_3   0.526638 0.253878 0.297411 -0.146561
C30   C     C_3   0.389146 0.180027 0.262275 -0.204871
H13   H     H_    0.393764 0.121986 0.273725 0.099930
H14   H     H_    0.640665 0.257945 0.339091 0.145794
C31   C     C_3   0.418023 0.190368 0.186669 -0.058616
C32   C     C_3   0.557089 0.263080 0.220949 -0.086681
C33   C     C_3   0.383696 0.321576 0.235524 -0.203849
C34   C     C_3   0.244525 0.248178 0.199979 -0.123014
C35   C     C_3   0.219383 0.238540 0.275579 0.363855
C36   C     C_3   0.352880 0.311618 0.311347 -0.083414
H15   H     H_    0.698530 0.272745 0.198263 0.121090
H16   H     H_    0.380577 0.379831 0.224410 0.111357
H17   H     H_    0.126512 0.245955 0.160163 0.105236
C37   C     C_R   0.269792 0.123061 0.819368 -0.292971
C38   C     C_R   0.416607 0.138678 0.872717 -0.117062
C39   C     C_R   0.550009 0.203256 0.880717 0.249632
C40   C     C_R   0.534028 0.251356 0.834275 -0.001070
C41   C     C_R   0.389196 0.232519 0.778908 0.024805
C42   C     C_R   0.256779 0.168386 0.772153 0.108394
C43   C     C_R   0.655250 0.319192 0.843259 -0.219218
C44   C     C_R   0.640387 0.366330 0.797238 0.150693
C45   C     C_R   0.504786 0.343660 0.738107 0.069029
C46   C     C_R   0.375631 0.277790 0.730266 -0.012160
C47   C     C_R   0.230902 0.257405 0.674351 0.039545
C48   C     C_R   0.100228 0.193274 0.669490 -0.184170
C49   C     C_R   0.112629 0.149862 0.717913 -0.173668
C50   C     C_R   0.493252 0.385519 0.687270 -0.293047
C51   C     C_R   0.352789 0.365541 0.631193 -0.112686
C52   C     C_R   0.219368 0.301731 0.624914 0.237260
H18   H     H_    0.167433 0.073707 0.813325 0.137723
H19   H     H_    0.761378 0.337456 0.887238 0.134605
H20   H     H_    0.591920 0.435118 0.690969 0.151537
H21   H     H_    0.987302 0.175327 0.628112 0.135880
H22   H     H_    0.009620 0.100932 0.712400 0.120060
O11   O     O_R   0.271890 0.085690 0.087580 -0.540279
O12   O     O_R   0.595690 0.070020 0.939870 -0.517737
O13   O     O_R   0.758900 0.914390 0.912370 -0.538962
C53   C     C_R   0.426913 0.086597 0.919548 0.745259
O14   O     O_R   0.602020 0.095100 0.088770 -0.541870
O15   O     O_R   0.765280 0.939660 0.062330 -0.539046
C54   C     C_R   0.433512 0.119326 0.116377 0.684407
O16   O     O_R   0.265520 0.060430 0.937620 -0.545184
O17   O     O_3   0.429560 0.949050 0.991100 -0.370478
V3    V     V_3+5 0.707160 0.009450 0.001650 1.421659
O18   O     O_R   0.094540 0.929890 0.060190 -0.544321
C55   C     C_R   0.925454 0.914801 0.081828 0.703530
O19   O     O_R   0.088200 0.904800 0.911290 -0.544007
C56   C     C_R   0.918014 0.881845 0.883096 0.692006
V4    V     V_3+5 0.206300 0.990390 0.998440 1.397066
O20   O     O_3   0.934030 0.050940 0.008900 -0.363129
N1    N     N_2   0.112358 0.624583 0.758205 -0.533276
H23   H     H_    0.200784 0.602844 0.713380 0.253614
C57   C     C_3   0.214732 0.639974 0.827156 -0.604732
H24   H     H_    0.299816 0.585944 0.825098 0.195410
H25   H     H_    0.111246 0.652029 0.873115 0.207321
H26   H     H_    0.315583 0.692636 0.837426 0.195882
N2    N     N_2   0.034690 0.223342 0.303182 -0.530679
H27   H     H_    0.035562 0.236782 0.359222 0.249519
C58   C     C_3   0.949284 0.144610 0.263566 -0.565013
H28   H     H_    0.810146 0.136980 0.288623 0.187948
H29   H     H_    0.045096 0.095272 0.266205 0.183684
H30   H     H_    0.922339 0.138796 0.205235 0.215983
N3    N     N_2   0.697972 0.219019 0.935592 -0.505347
H31   H     H_    0.832849 0.231824 0.919711 0.252644
C59   C     C_3   0.642894 0.271710 0.007737 -0.542672
H32   H     H_    0.613142 0.333529 0.006631 0.181805
H33   H     H_    0.762018 0.275760 0.047582 0.187491
H34   H     H_    0.512525 0.247095 0.026676 0.184770
C60   C     C_3   0.768770 0.441463 0.814780 -0.375325
C61   C     C_3   0.952696 0.423297 0.769948 -0.721150
H35   H     H_    0.035019 0.376297 0.783743 0.228193
H36   H     H_    0.918780 0.401949 0.710245 0.228517
H37   H     H_    0.043999 0.478871 0.783406 0.242358
H38   H     H_    0.691285 0.492537 0.805835 0.173934
H39   H     H_    0.810120 0.463542 0.874018 0.172606
N4    N     N_2   0.074342 0.282830 0.568860 -0.506482
H40   H     H_    0.936587 0.276984 0.586478 0.251310
C62   C     C_3   0.124924 0.219255 0.501785 -0.561869
H41   H     H_    0.164184 0.163174 0.513090 0.191793
H42   H     H_    0.248092 0.239484 0.475278 0.189036
H43   H     H_    0.999223 0.204755 0.463541 0.186678
N5    N     N_2   0.356322 0.694766 0.129085 -0.516696
H44   H     H_    0.481876 0.679631 0.150003 0.268208
C63   C     C_3   0.314390 0.639823 0.055647 -0.581296
H45   H     H_    0.282652 0.577862 0.056941 0.194583
H46   H     H_    0.441330 0.637200 0.020186 0.199284
H47   H     H_    0.189187 0.660889 0.031140 0.201551

loop_
_geom_bond_atom_site_label_1
_geom_bond_atom_site_label_2
_ccdc_geom_bond_type
C9    C14   A    
O12   V3    S    
V4    O20   S    
C10   C17   A    
V3    O20   S    
C22   H8    S    
C30   H13   S    
C62   H42   S    
O17   V3    S    
C4    C19   S    
C1    O6    A    
C35   N2    S    
N4    H40   S    
O18   C55   A    
O15   C55   A    
C58   H29   S    
C24   C25   S    
C57   H25   S    
C25   C28   S    
C33   H16   S    
C9    C10   A    
C16   C17   A    
C60   H39   S    
N2    C58   S    
O5    C3    A    
C18   C19   A    
O14   C54   A    
C21   C28   S    
C1    C36   S    
O15   V3    S    
C6    C7    A    
C44   C45   A    
O14   V3    S    
O11   V4    S    
O8    V2    S    
C21   H9    S    
C26   C27   S    
O16   V4    S    
C39   C40   A    
N3    C59   S    
C11   C12   A    
C41   C42   A    
O1    V2    S    
O7    V1    S    
C11   N5    S    
C23   C26   S    
C43   C44   A    
C49   H22   S    
C37   C38   A    
C48   H21   S    
C33   C34   S    
C31   C54   S    
O9    C4    A    
C35   C36   S    
C5    H1    S    
C63   H47   S    
O4    V1    S    
C53   O16   A    
C21   C24   S    
C57   H26   S    
C12   H3    S    
C26   N1    S    
C45   C46   A    
O13   C56   A    
C38   C39   A    
C12   C13   A    
C63   H46   S    
C59   H34   S    
O4    C2    A    
C13   C18   A    
C31   C34   S    
N5    C63   S    
C13   C14   A    
C48   C49   A    
C25   H11   S    
C38   C53   S    
C34   C35   S    
C40   C43   A    
O2    C1    A    
C46   C47   A    
C37   H18   S    
C29   C36   S    
C37   C42   A    
C8    C11   A    
C16   H6    S    
C29   C32   S    
C17   H7    S    
C5    C6    A    
C14   C15   A    
N1    C57   S    
C20   H5    S    
C47   C48   A    
C60   C61   S    
O3    C4    A    
C21   C22   S    
O19   V4    S    
O12   C53   A    
C34   H17   S    
O6    V2    S    
C44   C60   S    
C45   C50   A    
O9    V2    S    
C52   N4    S    
C22   C23   S    
C62   H43   S    
C61   H36   S    
O2    V1    S    
C41   C46   A    
C23   C24   S    
C29   H14   S    
C32   H15   S    
C25   C26   S    
C27   C28   S    
C33   C36   S    
C58   H28   S    
C15   C20   A    
O1    C2    A    
C19   C20   A    
C51   C52   A    
C7    H2    S    
N4    C62   S    
C47   C52   A    
O5    V1    S    
O8    C3    A    
C29   C30   S    
N5    H44   S    
C30   C35   S    
C57   H24   S    
C5    C10   A    
O19   C56   A    
C18   H4    S    
C7    C8    A    
C59   H33   S    
C62   H41   S    
C32   C33   S    
C60   H38   S    
C3    C23   S    
O3    V1    S    
V1    O10   S    
C59   H32   S    
C28   C56   S    
C31   C32   S    
C50   H20   S    
C24   H10   S    
C61   H37   S    
V2    O10   S    
O11   C54   A    
C22   C27   S    
C58   H30   S    
O7    V2    S    
C40   C41   A    
C43   H19   S    
C39   N3    S    
C50   C51   A    
C27   H12   S    
C8    C9    A    
N1    H23   S    
C63   H45   S    
C6    C55   S    
N3    H31   S    
C61   H35   S    
N2    H27   S    
O13   V3    S    
C42   C49   A    
O18   V4    S    
O17   V4    S    
C2    C51   S    
C15   C16   A    
C30   C31   S    
