data_mof_unit_277.cif
_audit_creation_date              2012-12-10T18:45:05-0500
_audit_creation_method            fapswitch 2.2
_symmetry_space_group_name_H-M    P1
_symmetry_Int_Tables_number       1
_space_group_crystal_system       triclinic
_cell_length_a                    10.742991
_cell_length_b                    9.908801
_cell_length_c                    10.71456
_cell_angle_alpha                 91.080916
_cell_angle_beta                  92.680598
_cell_angle_gamma                 91.605354
_cell_volume                      1138.63891846

loop_
_atom_site_label
_atom_site_type_symbol
_atom_type_description
_atom_site_fract_x
_atom_site_fract_y
_atom_site_fract_z
_atom_type_partial_charge
C1    C     C_R   0.259518 0.497432 0.500471 0.860895
C2    C     C_R   0.738934 0.501431 0.492206 0.923257
C3    C     C_R   0.939922 0.613177 0.529374 -0.197919
C4    C     C_R   0.067126 0.608875 0.536142 -0.209064
C5    C     C_R   0.575731 0.075817 0.583692 -0.038813
C6    C     C_R   0.427934 0.067563 0.413049 0.032832
C7    C     C_R   0.583147 0.932481 0.575870 -0.005155
C8    C     C_R   0.420950 0.923587 0.420041 -0.017558
C9    C     C_R   0.512720 0.499948 0.261350 0.914101
C10   C     C_R   0.491730 0.501788 0.739898 0.910806
C11   C     C_R   0.596026 0.744504 0.126045 -0.106595
C12   C     C_R   0.471784 0.759250 0.894064 -0.086485
C13   C     C_R   0.579753 0.869752 0.071513 -0.050750
C14   C     C_R   0.511661 0.877471 0.958511 -0.015372
C15   C     C_R   0.499682 0.630734 0.942780 0.091420
C16   C     C_R   0.543830 0.625259 0.067153 0.101626
C17   C     C_R   0.528991 0.501320 0.129071 -0.096811
C18   C     C_R   0.485914 0.506792 0.873922 -0.141463
C19   C     C_R   0.505077 0.380786 0.062009 -0.149046
C20   C     C_R   0.487913 0.383171 0.934826 -0.180401
C21   C     C_R   0.054792 0.377923 0.449338 -0.048642
C22   C     C_R   0.927231 0.390531 0.425836 -0.076857
C23   C     C_R   0.870199 0.503738 0.477492 -0.050566
C24   C     C_R   0.125496 0.491948 0.497984 -0.038314
H1    H     H_    0.497464 0.284523 0.107673 0.204827
H2    H     H_    0.474887 0.287539 0.884516 0.198270
H3    H     H_    0.648643 0.742051 0.214547 0.146932
H4    H     H_    0.416110 0.770938 0.808650 0.158234
H5    H     H_    0.615663 0.960971 0.119274 0.153337
H6    H     H_    0.491438 0.974916 0.919649 0.169932
H7    H     H_    0.896242 0.700809 0.567725 0.170252
H8    H     H_    0.119720 0.695860 0.575338 0.165062
N1    N     N_R   0.500000 0.857200 0.500000 -0.165404
N2    N     N_R   0.500000 0.142810 0.500000 -0.156942
O1    O     O_R   0.316770 0.614620 0.499990 -0.656999
O2    O     O_R   0.683230 0.614620 0.500010 -0.627827
O3    O     O_R   0.316800 0.385290 0.500000 -0.602163
O4    O     O_R   0.683200 0.385290 0.500000 -0.640484
O5    O     O_R   0.500010 0.614690 0.316770 -0.608961
O6    O     O_R   0.499990 0.614690 0.683230 -0.580516
O7    O     O_R   0.500040 0.385360 0.316770 -0.635324
O8    O     O_R   0.499960 0.385360 0.683230 -0.641587
Zn1   Zn    Zn3+2 0.500000 0.653120 0.500000 0.974392
Zn2   Zn    Zn3+2 0.500000 0.346880 0.500000 0.970709
C25   C     C_2   0.108897 0.244861 0.424930 0.330617
H9    H     H_    0.101660 0.200322 0.331450 0.057115
O9    O     O_2   0.153689 0.180160 0.511029 -0.559032
C26   C     C_2   0.855327 0.286110 0.347499 0.402526
H10   H     H_    0.877892 0.180260 0.352738 0.050383
O10   O     O_2   0.772585 0.318667 0.272987 -0.566608
C27   C     C_2   0.649474 0.151593 0.684315 0.376904
H11   H     H_    0.685965 0.251891 0.671408 0.146048
O11   O     O_2   0.669376 0.101822 0.786453 -0.599685
C28   C     C_2   0.359980 0.136443 0.310219 0.401995
H12   H     H_    0.327711 0.236959 0.323035 0.125447
O12   O     O_2   0.341909 0.082758 0.207261 -0.587439
C29   C     C_2   0.692862 0.869708 0.636623 0.549952
H13   H     H_    0.785154 0.910539 0.619525 0.007094
O13   O     O_2   0.682569 0.780842 0.712499 -0.540612
C30   C     C_2   0.323156 0.845652 0.346796 0.595324
H14   H     H_    0.233841 0.825642 0.386901 0.027206
O14   O     O_2   0.339912 0.807073 0.240299 -0.538104

loop_
_geom_bond_atom_site_label_1
_geom_bond_atom_site_label_2
_ccdc_geom_bond_type
C15   C18   A    
C22   C26   S    
O8    Zn2   S    
O4    Zn2   S    
C11   H3    S    
C10   O8    A    
O1    Zn1   S    
C11   C16   A    
C2    O4    A    
C9    O7    A    
C19   C20   A    
C1    C24   S    
C12   C15   A    
C1    O3    A    
C5    N2    A    
O6    Zn1   S    
O3    Zn2   S    
C26   O10   D    
C21   C22   A    
C8    C30   S    
C3    H7    S    
C11   C13   A    
C29   H13   S    
C4    H8    S    
C20   H2    S    
C14   H6    S    
C4    C24   A    
C9    C17   S    
C26   H10   S    
C17   C19   A    
C10   C18   S    
C6    C28   S    
C21   C25   S    
C8    N1    A    
C25   O9    D    
O5    Zn1   S    
C19   H1    S    
O7    Zn2   S    
C28   O12   D    
C29   O13   D    
C16   C17   A    
C7    N1    A    
C27   O11   D    
C2    O2    A    
C15   C16   A    
N1    Zn1   S    
C6    N2    A    
C9    O5    A    
N2    Zn2   S    
C1    O1    A    
C18   C20   A    
C30   O14   D    
C21   C24   A    
C13   H5    S    
C2    C23   S    
C5    C7    A    
C28   H12   S    
C5    C27   S    
C10   O6    A    
C6    C8    A    
C13   C14   A    
C12   H4    S    
C25   H9    S    
C3    C23   A    
C7    C29   S    
C22   C23   A    
C3    C4    A    
C27   H11   S    
C12   C14   A    
C30   H14   S    
O2    Zn1   S    
