data_mof_unit_1765.cif
_audit_creation_date              2012-12-10T18:21:19-0500
_audit_creation_method            fapswitch 2.2
_symmetry_space_group_name_H-M    P1
_symmetry_Int_Tables_number       1
_space_group_crystal_system       triclinic
_cell_length_a                    9.524716
_cell_length_b                    10.827403
_cell_length_c                    17.454297
_cell_angle_alpha                 89.902274
_cell_angle_beta                  85.263061
_cell_angle_gamma                 89.100625
_cell_volume                      1793.65626721

loop_
_atom_site_label
_atom_site_type_symbol
_atom_type_description
_atom_site_fract_x
_atom_site_fract_y
_atom_site_fract_z
_atom_type_partial_charge
C1    C     C_R   0.498821 0.739997 0.502406 0.812014
C2    C     C_R   0.501216 0.260030 0.496560 0.819587
C3    C     C_3   0.450624 0.954240 0.435398 0.146945
C4    C     C_3   0.549214 0.045053 0.561302 0.146370
C5    C     C_3   0.583188 0.034142 0.436432 0.147963
C6    C     C_3   0.416219 0.966021 0.560315 0.151708
C7    C     C_3   0.502045 0.123348 0.494074 -0.131357
C8    C     C_3   0.497657 0.876557 0.503044 -0.127743
C9    C     C_3   0.369354 0.043371 0.492570 0.160456
C10   C     C_3   0.630329 0.956415 0.503995 0.158850
C11   C     C_3   0.955010 0.391120 0.488307 0.246544
C12   C     C_3   0.045053 0.608693 0.512044 0.250922
C13   C     C_3   0.043064 0.428882 0.553025 0.266146
C14   C     C_3   0.957374 0.571280 0.447130 0.275055
C15   C     C_3   0.061814 0.461915 0.434693 -0.121491
C16   C     C_3   0.938199 0.537924 0.565435 -0.121982
C17   C     C_R   0.480536 0.503644 0.649442 0.835121
C18   C     C_R   0.519089 0.499311 0.350085 0.831599
C19   C     C_R   0.465585 0.509832 0.734125 -0.156783
C20   C     C_R   0.526909 0.489565 0.264860 -0.167476
C21   C     C_R   0.550647 0.433153 0.777453 -0.000679
C22   C     C_R   0.409203 0.529975 0.225936 0.003935
C23   C     C_R   0.515591 0.420795 0.856363 0.462675
C24   C     C_R   0.400535 0.496735 0.149517 0.462480
C25   C     C_R   0.428764 0.510698 0.895623 -0.155644
C26   C     C_R   0.523351 0.459534 0.104598 -0.156674
C27   C     C_R   0.330822 0.575185 0.853159 0.125242
C28   C     C_R   0.631100 0.400799 0.143193 0.133855
C29   C     C_R   0.353655 0.580270 0.772303 0.117059
C30   C     C_R   0.637693 0.421278 0.223119 0.113674
C31   C     C_2   0.441140 0.537501 0.979308 0.381996
C32   C     C_2   0.542422 0.482871 0.019076 0.381793
Cu1   Cu    Cu3+1 0.356850 0.500010 0.499980 0.932129
Cu2   Cu    Cu3+1 0.643150 0.499990 0.500020 0.930679
H1    H     H_    0.115937 0.423700 0.381075 0.123036
H2    H     H_    0.883505 0.571539 0.620259 0.128828
N1    N     N_3   0.141720 0.500030 0.499940 -0.180144
N2    N     N_3   0.858280 0.499970 0.500060 -0.182769
O1    O     O_R   0.379130 0.683150 0.499960 -0.580538
O2    O     O_R   0.620870 0.316850 0.500040 -0.577925
O3    O     O_R   0.620910 0.683140 0.500000 -0.584952
O4    O     O_R   0.379090 0.316860 0.500000 -0.583442
O5    O     O_R   0.365090 0.500030 0.613580 -0.575349
O6    O     O_R   0.634910 0.499970 0.386420 -0.581888
O7    O     O_R   0.606870 0.500020 0.613610 -0.581447
O8    O     O_R   0.393130 0.499980 0.386390 -0.576971
C33   C     C_3   0.680118 0.366057 0.741893 -0.788651
H3    H     H_    0.726835 0.300802 0.782162 0.261683
H4    H     H_    0.654493 0.313721 0.691200 0.230695
H5    H     H_    0.761910 0.434441 0.723819 0.228697
C34   C     C_3   0.289495 0.608971 0.262662 -0.768159
H6    H     H_    0.246682 0.672177 0.219886 0.241541
H7    H     H_    0.202729 0.549546 0.285899 0.229431
H8    H     H_    0.324886 0.669061 0.308113 0.228913
C35   C     C_3   0.906007 0.264704 0.467708 -0.846634
H9    H     H_    0.995461 0.206772 0.444796 0.207992
H10   H     H_    0.853094 0.219534 0.518872 0.246259
H11   H     H_    0.835439 0.276371 0.421226 0.252187
C36   C     C_3   0.093887 0.734962 0.533077 -0.850445
H12   H     H_    0.004137 0.793078 0.555508 0.210138
H13   H     H_    0.163447 0.722646 0.579897 0.253241
H14   H     H_    0.148085 0.780335 0.482358 0.246533
C37   C     C_3   0.760500 0.369259 0.263641 -0.836685
H15   H     H_    0.819481 0.445540 0.286805 0.243600
H16   H     H_    0.720619 0.308108 0.310917 0.231190
H17   H     H_    0.839486 0.315979 0.226721 0.220094
C38   C     C_3   0.262710 0.666432 0.728307 -0.852285
H18   H     H_    0.319973 0.697689 0.674390 0.233193
H19   H     H_    0.164858 0.619498 0.715107 0.234339
H20   H     H_    0.234601 0.751803 0.761601 0.231489
O9    O     O_3   0.674548 0.462247 0.980548 -0.588056
C39   C     C_3   0.766406 0.559558 0.995213 0.059396
H21   H     H_    0.871802 0.518376 0.003130 0.165223
H22   H     H_    0.734996 0.611776 0.049201 0.123649
C40   C     C_3   0.781825 0.647106 0.926119 -0.356195
H23   H     H_    0.841201 0.599063 0.877095 0.222839
H24   H     H_    0.676729 0.673696 0.907741 0.204380
C41   C     C_3   0.858787 0.763982 0.945734 -0.965610
H25   H     H_    0.794511 0.818058 0.990239 0.252033
H26   H     H_    0.878119 0.821780 0.893435 0.263544
H27   H     H_    0.961019 0.740174 0.968362 0.269255
O10   O     O_3   0.356671 0.629959 0.014530 -0.559968
C42   C     C_3   0.426880 0.744145 0.010323 0.070885
H28   H     H_    0.426465 0.783311 0.951387 0.137037
H29   H     H_    0.537601 0.735088 0.025378 0.082452
C43   C     C_3   0.352926 0.834576 0.068260 -0.326380
H30   H     H_    0.368183 0.802012 0.127390 0.209979
H31   H     H_    0.402246 0.926624 0.060970 0.161673
C44   C     C_3   0.195314 0.847679 0.059007 -0.772956
H32   H     H_    0.177813 0.886406 0.001574 0.224919
H33   H     H_    0.146059 0.910654 0.103877 0.224521
H34   H     H_    0.143010 0.756983 0.066214 0.290532
C45   C     C_3   0.193119 0.624352 0.891722 -0.776347
H35   H     H_    0.161553 0.573442 0.945460 0.258789
H36   H     H_    0.200948 0.724562 0.903026 0.236975
H37   H     H_    0.105512 0.609559 0.854803 0.218910
C46   C     C_3   0.725303 0.303194 0.102132 -0.785593
H38   H     H_    0.684689 0.271927 0.047835 0.275725
H39   H     H_    0.833724 0.338368 0.090449 0.224605
H40   H     H_    0.727349 0.218058 0.137607 0.208486
O11   O     O_3   0.269628 0.498806 0.120284 -0.569306
C47   C     C_3   0.202021 0.384844 0.135225 0.053998
H41   H     H_    0.087436 0.404565 0.147019 0.158146
H42   H     H_    0.236301 0.335705 0.187058 0.122891
C48   C     C_3   0.223655 0.301746 0.064397 -0.358206
H43   H     H_    0.181374 0.349269 0.014485 0.221778
H44   H     H_    0.337945 0.283613 0.050850 0.212600
C49   C     C_3   0.150473 0.178619 0.077671 -0.953714
H45   H     H_    0.195117 0.128407 0.125838 0.258396
H46   H     H_    0.167275 0.121680 0.024790 0.258872
H47   H     H_    0.035546 0.193107 0.091348 0.260842
O12   O     O_3   0.556929 0.315284 0.893958 -0.556376
C50   C     C_3   0.456489 0.223037 0.883886 0.063055
H48   H     H_    0.452297 0.200061 0.821862 0.141784
H49   H     H_    0.349450 0.254475 0.907104 0.091637
C51   C     C_3   0.493906 0.105844 0.927080 -0.346590
H50   H     H_    0.505536 0.128118 0.988327 0.212156
H51   H     H_    0.406600 0.039281 0.925029 0.167379
C52   C     C_3   0.629570 0.045154 0.891706 -0.799706
H52   H     H_    0.620496 0.023402 0.830154 0.237709
H53   H     H_    0.648650 0.957794 0.922598 0.224153
H54   H     H_    0.720347 0.106898 0.896806 0.279650
C53   C     C_3   0.673490 0.059614 0.362344 -0.889306
H55   H     H_    0.697842 0.971345 0.331473 0.241033
H56   H     H_    0.614672 0.121244 0.325120 0.230367
H57   H     H_    0.774479 0.100255 0.374703 0.239126
C54   C     C_3   0.324842 0.946645 0.634813 -0.903048
H58   H     H_    0.292828 0.037862 0.660046 0.238089
H59   H     H_    0.227941 0.897728 0.624280 0.245098
H60   H     H_    0.386498 0.896294 0.676339 0.234997
C55   C     C_3   0.394290 0.904683 0.362513 -0.882685
H61   H     H_    0.373919 0.982433 0.323227 0.239964
H62   H     H_    0.473127 0.840293 0.333333 0.223984
H63   H     H_    0.294491 0.855677 0.377184 0.231195
C56   C     C_3   0.606264 0.089812 0.634890 -0.885593
H64   H     H_    0.630058 0.009480 0.671471 0.238046
H65   H     H_    0.704573 0.141194 0.620802 0.233868
H66   H     H_    0.525408 0.149241 0.666627 0.225811
C57   C     C_3   0.219928 0.084776 0.481354 -0.844135
H67   H     H_    0.154223 0.003696 0.471351 0.228999
H68   H     H_    0.173522 0.133157 0.533195 0.245715
H69   H     H_    0.222222 0.146548 0.430523 0.235649
C58   C     C_3   0.779744 0.914257 0.514357 -0.843133
H70   H     H_    0.847397 0.995153 0.521385 0.229755
H71   H     H_    0.778524 0.855611 0.566551 0.237449
H72   H     H_    0.822335 0.861884 0.463274 0.249512
C59   C     C_3   0.088813 0.352697 0.620314 -0.849186
H73   H     H_    0.004695 0.287002 0.639387 0.207112
H74   H     H_    0.187684 0.301203 0.604403 0.260271
H75   H     H_    0.106572 0.414646 0.668977 0.228117
C60   C     C_3   0.915265 0.654745 0.382102 -0.862952
H76   H     H_    0.982156 0.737844 0.378623 0.210647
H77   H     H_    0.933565 0.606178 0.326432 0.208536
H78   H     H_    0.803430 0.683663 0.390704 0.271090

loop_
_geom_bond_atom_site_label_1
_geom_bond_atom_site_label_2
_ccdc_geom_bond_type
C28   C46   S    
C25   C31   S    
C58   H72   S    
C35   H9    S    
C37   H16   S    
C26   C32   S    
O11   C47   S    
C27   C29   A    
C1    C8    S    
C9    C57   S    
C2    C7    S    
C55   H63   S    
C6    C9    S    
C17   O5    A    
C46   H38   S    
C56   H64   S    
C33   H4    S    
C20   C30   A    
C49   H45   S    
C23   O12   S    
C48   H44   S    
C45   H35   S    
C31   O10   S    
C42   H28   S    
C3    C55   S    
Cu1   O4    S    
C59   H74   S    
C17   O7    A    
C6    C54   S    
C4    C7    S    
C57   H69   S    
C41   H26   S    
C53   H56   S    
C58   H70   S    
C58   H71   S    
C11   C13   S    
C51   H50   S    
C47   C48   S    
C56   H65   S    
C24   O11   S    
C60   H78   S    
C12   N1    S    
C15   N1    S    
C59   H73   S    
C29   C38   S    
C12   C36   S    
C11   C15   S    
C12   C16   S    
C51   H51   S    
C14   C60   S    
C60   H76   S    
C32   O9    S    
C13   N1    S    
C50   C51   S    
C23   C25   A    
C37   H17   S    
C36   H12   S    
C45   H36   S    
Cu2   N2    S    
C30   C37   S    
Cu1   O8    S    
Cu2   O3    S    
C39   C40   S    
C18   O8    A    
C15   H1    S    
O12   C50   S    
C46   H39   S    
C33   H5    S    
C52   H53   S    
C48   C49   S    
C36   H13   S    
C38   H18   S    
Cu1   O5    S    
C53   H55   S    
C59   H75   S    
Cu2   O6    S    
C4    C6    S    
C3    C8    S    
C5    C7    S    
C41   H25   S    
C53   H57   S    
C6    C8    S    
C55   H62   S    
Cu1   N1    S    
C34   H6    S    
C34   H7    S    
C11   N2    S    
C40   H23   S    
C54   H59   S    
C3    C9    S    
C18   O6    A    
C14   N2    S    
C33   H3    S    
C20   C22   A    
C57   H67   S    
Cu1   Cu2   S    
Cu2   O7    S    
Cu1   O1    S    
C44   H34   S    
C47   H42   S    
C40   H24   S    
C56   H66   S    
C4    C56   S    
C39   H22   S    
C42   H29   S    
C12   C14   S    
C45   H37   S    
C21   C23   A    
C22   C24   A    
C27   C45   S    
C44   H33   S    
C13   C59   S    
C4    C10   S    
C54   H58   S    
C19   C29   A    
C46   H40   S    
C11   C35   S    
C50   H48   S    
C52   H54   S    
C1    O3    A    
C7    C9    S    
C36   H14   S    
C19   C21   A    
C43   H30   S    
C31   C32   D    
C24   C26   A    
C39   H21   S    
C3    C5    S    
C43   C44   S    
C18   C20   S    
C52   H52   S    
C49   H47   S    
C25   C27   A    
C48   H43   S    
C5    C53   S    
C26   C28   A    
C51   C52   S    
C38   H20   S    
C34   H8    S    
C35   H10   S    
C54   H60   S    
O9    C39   S    
C16   H2    S    
C57   H68   S    
C41   H27   S    
C35   H11   S    
C2    O4    A    
C28   C30   A    
C17   C19   S    
C49   H46   S    
C43   H31   S    
C10   C58   S    
C60   H77   S    
C47   H41   S    
C40   C41   S    
C21   C33   S    
C1    O1    A    
C37   H15   S    
C2    O2    A    
C5    C10   S    
C42   C43   S    
C8    C10   S    
O10   C42   S    
C13   C16   S    
C14   C15   S    
Cu2   O2    S    
C38   H19   S    
C44   H32   S    
C55   H61   S    
C16   N2    S    
C22   C34   S    
C50   H49   S    
