data_mof_unit_959.cif
_audit_creation_date              2012-12-10T22:11:05-0500
_audit_creation_method            fapswitch 2.2
_symmetry_space_group_name_H-M    P1
_symmetry_Int_Tables_number       1
_space_group_crystal_system       triclinic
_cell_length_a                    12.163873
_cell_length_b                    12.336406
_cell_length_c                    22.941466
_cell_angle_alpha                 91.228718
_cell_angle_beta                  90.473962
_cell_angle_gamma                 91.448579
_cell_volume                      3440.5361037

loop_
_atom_site_label
_atom_site_type_symbol
_atom_type_description
_atom_site_fract_x
_atom_site_fract_y
_atom_site_fract_z
_atom_type_partial_charge
C1    C     C_R   0.657732 0.998976 0.578635 0.881381
C2    C     C_R   0.342276 0.001025 0.421359 0.881366
C3    C     C_R   0.898648 0.763925 0.152469 -0.205037
C4    C     C_R   0.101346 0.236080 0.847526 -0.205030
C5    C     C_R   0.086312 0.895411 0.170395 -0.188881
C6    C     C_R   0.913682 0.104589 0.829609 -0.188886
C7    C     C_R   0.085863 0.814447 0.127888 -0.189802
C8    C     C_R   0.914136 0.185553 0.872115 -0.189805
C9    C     C_R   0.912110 0.120122 0.169293 0.588708
C10   C     C_R   0.087884 0.879881 0.830710 0.588703
C11   C     C_R   0.911968 0.202035 0.129736 -0.316031
C12   C     C_R   0.088032 0.797965 0.870265 -0.316038
C13   C     C_R   0.149842 0.915348 0.301335 -0.265779
C14   C     C_R   0.850142 0.084644 0.698670 -0.265792
C15   C     C_R   0.233144 0.912362 0.342423 -0.195658
C16   C     C_R   0.766854 0.087636 0.657574 -0.195652
C17   C     C_R   0.817889 0.091551 0.292649 -0.067892
C18   C     C_R   0.182087 0.908442 0.707341 -0.067866
C19   C     C_R   0.739317 0.090165 0.336058 -0.224988
C20   C     C_R   0.260654 0.909826 0.663931 -0.224837
C21   C     C_3   0.994112 0.009234 0.248718 -0.055939
C22   C     C_3   0.005871 0.990763 0.751286 -0.056001
C23   C     C_R   0.652549 0.001792 0.419843 0.872417
C24   C     C_R   0.347443 0.998207 0.580154 0.872410
C25   C     C_R   0.085821 0.008852 0.295152 0.116613
C26   C     C_R   0.914154 0.991135 0.704859 0.116654
C27   C     C_R   0.252894 0.001101 0.379646 -0.063224
C28   C     C_R   0.747120 0.998905 0.620344 -0.063193
C29   C     C_R   0.890936 0.005094 0.286557 0.178377
C30   C     C_R   0.109039 0.994898 0.713437 0.178364
C31   C     C_R   0.731299 0.002049 0.373211 -0.024816
C32   C     C_R   0.268676 0.997946 0.626779 -0.024826
C33   C     C_R   0.002339 0.106987 0.207847 -0.093573
C34   C     C_R   0.997649 0.893017 0.792161 -0.093622
C35   C     C_R   0.997930 0.277959 0.128901 -0.182209
C36   C     C_R   0.002071 0.722038 0.871100 -0.182217
C37   C     C_R   0.994121 0.910929 0.206135 0.131151
C38   C     C_R   0.005868 0.089071 0.793866 0.131179
C39   C     C_R   0.992033 0.748580 0.118819 -0.025978
C40   C     C_R   0.007966 0.251422 0.881180 -0.025974
C41   C     C_R   0.993156 0.662173 0.075283 0.862841
C42   C     C_R   0.006844 0.337828 0.924717 0.862838
C43   C     C_R   0.998565 0.356189 0.082593 0.924822
C44   C     C_R   0.001435 0.643810 0.917407 0.924829
C45   C     C_R   0.101534 0.096154 0.337160 0.268034
C46   C     C_R   0.898446 0.903834 0.662850 0.268024
C47   C     C_R   0.185876 0.090578 0.378053 -0.215680
C48   C     C_R   0.814144 0.909432 0.621936 -0.215783
C49   C     C_R   0.877342 0.914779 0.322950 -0.215702
C50   C     C_R   0.122626 0.085210 0.677039 -0.215655
C51   C     C_R   0.798187 0.913064 0.365440 -0.193181
C52   C     C_R   0.201782 0.086927 0.634549 -0.193185
C53   C     C_R   0.096968 0.178922 0.201969 0.149443
C54   C     C_R   0.903023 0.821078 0.798039 0.149561
C55   C     C_R   0.085816 0.273051 0.168964 0.169207
C56   C     C_R   0.914184 0.726945 0.831038 0.169207
C57   C     C_R   0.899239 0.844220 0.195453 -0.063414
C58   C     C_R   0.100750 0.155783 0.804541 -0.063417
H1    H     H_    0.198900 0.156670 0.409513 0.160691
H2    H     H_    0.801130 0.843338 0.590476 0.160735
H3    H     H_    0.931388 0.846543 0.319573 0.140976
H4    H     H_    0.068580 0.153445 0.680417 0.140970
H5    H     H_    0.822806 0.855592 0.218096 0.172229
H6    H     H_    0.177178 0.144411 0.781893 0.172214
H7    H     H_    0.159049 0.946297 0.174793 0.151827
H8    H     H_    0.840946 0.053703 0.825215 0.151823
H9    H     H_    0.135994 0.842468 0.275198 0.158684
H10   H     H_    0.863985 0.157523 0.724808 0.158684
H11   H     H_    0.824868 0.163888 0.267211 0.136943
H12   H     H_    0.175139 0.836121 0.732793 0.136879
H13   H     H_    0.792162 0.843772 0.393581 0.157661
H14   H     H_    0.207808 0.156219 0.606409 0.157651
H15   H     H_    0.824980 0.713912 0.145607 0.157230
H16   H     H_    0.175013 0.286095 0.854384 0.157225
H17   H     H_    0.158590 0.804516 0.101547 0.164244
H18   H     H_    0.841413 0.195483 0.898460 0.164245
H19   H     H_    0.843784 0.205378 0.099159 0.205686
H20   H     H_    0.156218 0.794621 0.900841 0.205686
H21   H     H_    0.282640 0.840755 0.344759 0.163677
H22   H     H_    0.717356 0.159242 0.655239 0.163676
H23   H     H_    0.686210 0.158836 0.341266 0.156296
H24   H     H_    0.313768 0.841160 0.658726 0.156261
O1    O     O_R   0.621380 0.090460 0.561410 -0.625416
O2    O     O_R   0.378620 0.909540 0.438590 -0.625413
O3    O     O_R   0.617150 0.909540 0.438590 -0.631030
O4    O     O_R   0.382850 0.090460 0.561410 -0.631017
O5    O     O_R   0.619720 0.093230 0.440890 -0.626211
O6    O     O_R   0.380280 0.906770 0.559110 -0.626205
O7    O     O_R   0.618800 0.906770 0.559110 -0.632146
O8    O     O_R   0.381200 0.093230 0.440890 -0.632152
O9    O     O_R   0.087590 0.627480 0.058790 -0.633445
O10   O     O_R   0.912410 0.372520 0.941210 -0.633446
O11   O     O_R   0.905660 0.383870 0.059980 -0.630628
O12   O     O_R   0.094340 0.616130 0.940020 -0.630632
O13   O     O_R   0.092570 0.390420 0.063230 -0.611380
O14   O     O_R   0.907430 0.609580 0.936770 -0.611381
O15   O     O_R   0.900680 0.620930 0.055550 -0.621177
O16   O     O_R   0.099320 0.379070 0.944450 -0.621174
Zn1   Zn    Zn3+2 0.501730 0.123520 0.501540 0.943170
Zn2   Zn    Zn3+2 0.498270 0.876480 0.498460 0.943169
Zn3   Zn    Zn3+2 0.125690 0.504390 0.002180 0.952714
Zn4   Zn    Zn3+2 0.874310 0.495610 0.997820 0.952713
C59   C     C_3   0.212792 0.157613 0.223981 -0.854815
H25   H     H_    0.274060 0.182865 0.190982 0.239636
H26   H     H_    0.230970 0.205019 0.264676 0.248236
H27   H     H_    0.230911 0.071902 0.230142 0.234621
C60   C     C_3   0.787192 0.842388 0.776036 -0.854790
H28   H     H_    0.725935 0.817137 0.809040 0.239622
H29   H     H_    0.769071 0.928098 0.769874 0.234608
H30   H     H_    0.769000 0.794981 0.735343 0.248219
F1    F     F_    0.823316 0.051172 0.168561 -0.681901
F2    F     F_    0.176677 0.948832 0.831439 -0.681901
C61   C     C_3   0.167130 0.367830 0.176974 -0.846871
H31   H     H_    0.198374 0.373953 0.222536 0.231366
H32   H     H_    0.237491 0.358402 0.146933 0.253018
H33   H     H_    0.126975 0.446095 0.169069 0.229887
C62   C     C_3   0.832876 0.632162 0.823024 -0.846871
H34   H     H_    0.801643 0.626038 0.777460 0.231353
H35   H     H_    0.873032 0.553899 0.830932 0.229888
H36   H     H_    0.762508 0.641587 0.853060 0.253013
C63   C     C_3   0.032224 0.196104 0.342110 -0.945516
H37   H     H_    0.964592 0.181107 0.373300 0.253561
H38   H     H_    0.082080 0.266788 0.359107 0.231795
H39   H     H_    0.998348 0.222572 0.300382 0.241155
C64   C     C_3   0.967667 0.803818 0.657933 -0.945358
H40   H     H_    0.035101 0.818594 0.626590 0.253486
H41   H     H_    0.001829 0.777559 0.699636 0.241088
H42   H     H_    0.917619 0.733079 0.641158 0.231798

loop_
_geom_bond_atom_site_label_1
_geom_bond_atom_site_label_2
_ccdc_geom_bond_type
C16   C28   A    
C9    F1    S    
O14   Zn4   S    
C17   C29   A    
C56   C62   S    
C46   C64   S    
C2    O2    A    
C19   C31   A    
C39   C41   S    
C29   C49   A    
C17   H11   S    
C54   C60   S    
C52   H14   S    
C7    C39   A    
C5    C37   A    
C62   H35   S    
C20   C32   A    
C21   C33   S    
C22   C38   S    
C8    H18   S    
C2    O8    A    
C32   C52   A    
C63   H39   S    
C11   H19   S    
C17   C19   A    
C38   C58   A    
C15   C27   A    
C59   H26   S    
C15   H21   S    
C4    C40   A    
O12   Zn3   S    
C49   C51   A    
C12   H20   S    
C1    C28   S    
C50   C52   A    
C60   H28   S    
C6    C38   A    
C48   H2    S    
C2    C27   S    
C18   C30   A    
C14   C16   A    
C12   C36   A    
C35   C43   S    
C4    H16   S    
O15   Zn4   S    
O10   Zn4   S    
C61   H33   S    
C40   C42   S    
C30   C50   A    
C3    C39   A    
O1    Zn1   S    
C9    C33   A    
C60   H29   S    
C13   C25   A    
C51   H13   S    
O9    Zn3   S    
C57   H5    S    
C46   C48   A    
C45   C47   A    
C33   C53   A    
C22   C34   S    
C54   C56   A    
C49   H3    S    
O7    Zn2   S    
C35   C55   A    
O2    Zn2   S    
C5    H7    S    
C62   H36   S    
C5    C7    A    
C7    H17   S    
C55   C61   S    
C58   H6    S    
C45   C63   S    
C21   C29   S    
C16   H22   S    
C23   C31   S    
C24   C32   S    
C36   C56   A    
C64   H42   S    
C24   O6    A    
C43   O13   A    
C10   C34   A    
C14   C26   A    
C10   F2    S    
O4    Zn1   S    
C9    C11   A    
C63   H37   S    
O6    Zn2   S    
C10   C12   A    
C3    C57   A    
C41   O9    A    
C34   C54   A    
C13   C15   A    
C23   O3    A    
C64   H40   S    
C50   H4    S    
C60   H30   S    
C41   O15   A    
C36   C44   S    
C53   C55   A    
C25   C45   A    
O8    Zn1   S    
C61   H31   S    
C13   H9    S    
C27   C47   A    
C21   C25   S    
C28   C48   A    
C1    O7    A    
C44   O14   A    
C22   C30   S    
C42   O10   A    
C31   C51   A    
O11   Zn4   S    
C6    C8    A    
C1    O1    A    
O16   Zn3   S    
C18   H12   S    
C42   O16   A    
O3    Zn2   S    
C62   H34   S    
C53   C59   S    
C11   C35   A    
C43   O11   A    
C59   H27   S    
C18   C20   A    
C3    H15   S    
C63   H38   S    
C44   O12   A    
C26   C46   A    
C47   H1    S    
O5    Zn1   S    
C6    H8    S    
C21   C37   S    
C20   H24   S    
C22   C26   S    
C4    C58   A    
C59   H25   S    
C64   H41   S    
C14   H10   S    
C23   O5    A    
C8    C40   A    
C19   H23   S    
C24   O4    A    
C37   C57   A    
O13   Zn3   S    
C61   H32   S    
