data_mof_unit_4175.cif
_audit_creation_date              2012-12-10T19:21:56-0500
_audit_creation_method            fapswitch 2.2
_symmetry_space_group_name_H-M    P1
_symmetry_Int_Tables_number       1
_space_group_crystal_system       triclinic
_cell_length_a                    8.714085
_cell_length_b                    17.761012
_cell_length_c                    16.484525
_cell_angle_alpha                 89.492721
_cell_angle_beta                  97.440502
_cell_angle_gamma                 91.767183
_cell_volume                      2528.60977134

loop_
_atom_site_label
_atom_site_type_symbol
_atom_type_description
_atom_site_fract_x
_atom_site_fract_y
_atom_site_fract_z
_atom_type_partial_charge
C1    C     C_R   0.506594 0.355284 0.500808 0.923065
C2    C     C_R   0.489847 0.644690 0.499067 0.889635
C3    C     C_1   0.465036 0.966327 0.512033 0.152771
C4    C     C_1   0.468351 0.033810 0.512631 0.141082
C5    C     C_R   0.592113 0.552709 0.834842 0.338128
C6    C     C_R   0.379737 0.457444 0.164783 0.290567
C7    C     C_R   0.592688 0.550214 0.748902 -0.047804
C8    C     C_R   0.386051 0.460022 0.251316 -0.090383
C9    C     C_R   0.407942 0.449120 0.738287 0.362916
C10   C     C_R   0.609624 0.540104 0.261255 0.380712
C11   C     C_R   0.413190 0.445847 0.824332 0.279559
C12   C     C_R   0.611408 0.536687 0.175667 0.268857
C13   C     C_R   0.501347 0.499575 0.873550 -0.154149
C14   C     C_R   0.493465 0.496840 0.126244 -0.121435
C15   C     C_1   0.496927 0.499119 0.962725 0.081685
C16   C     C_1   0.492111 0.497568 0.036658 0.096632
C17   C     C_R   0.203539 0.499364 0.479349 0.884141
C18   C     C_R   0.796499 0.500153 0.520692 0.896088
C19   C     C_2   0.038245 0.497737 0.467784 -0.332002
C20   C     C_2   0.961886 0.501019 0.532396 -0.328069
C21   C     C_R   0.446336 0.842337 0.577429 0.174563
C22   C     C_R   0.436746 0.151899 0.435592 0.137079
C23   C     C_R   0.443907 0.763647 0.572636 0.348946
C24   C     C_R   0.463991 0.230105 0.430178 0.393470
C25   C     C_R   0.469572 0.727701 0.498968 -0.340763
C26   C     C_R   0.511048 0.271958 0.502419 -0.306421
C27   C     C_R   0.473114 0.772546 0.427449 0.163289
C28   C     C_R   0.557457 0.232948 0.576526 0.157031
C29   C     C_R   0.478300 0.851387 0.433322 0.378678
C30   C     C_R   0.536382 0.154534 0.580489 0.382073
C31   C     C_R   0.464177 0.885837 0.508068 -0.177656
C32   C     C_R   0.476738 0.114371 0.510043 -0.175596
Cu1   Cu    Cu3+1 0.499990 0.499980 0.580420 1.012842
Cu2   Cu    Cu3+1 0.500010 0.500020 0.419580 1.008760
H1    H     H_    0.979226 0.493487 0.405679 0.192718
H2    H     H_    0.021069 0.504837 0.594558 0.196714
H3    H     H_    0.666223 0.589686 0.720238 0.178307
H4    H     H_    0.296693 0.431002 0.280374 0.180084
N1    N     N_R   0.499960 0.499970 0.701210 -0.247048
N2    N     N_R   0.500040 0.500030 0.298790 -0.241826
O1    O     O_R   0.499990 0.391240 0.567930 -0.516867
O2    O     O_R   0.500010 0.608760 0.432070 -0.509021
O3    O     O_R   0.500000 0.391270 0.432120 -0.556802
O4    O     O_R   0.500000 0.608730 0.567880 -0.561489
O5    O     O_R   0.274830 0.499990 0.552240 -0.560672
O6    O     O_R   0.725170 0.500010 0.447760 -0.564085
O7    O     O_R   0.274840 0.500020 0.416420 -0.590064
O8    O     O_R   0.725160 0.499980 0.583580 -0.579289
Br1   Br    Br    0.424664 0.889211 0.680103 -0.536919
Br2   Br    Br    0.338659 0.097311 0.341140 -0.500171
O9    O     O_3   0.416380 0.722253 0.641055 -0.549659
C33   C     C_3   0.255516 0.705989 0.635910 0.130636
H5    H     H_    0.214525 0.670408 0.581598 0.129468
H6    H     H_    0.188694 0.758686 0.632069 0.165448
C34   C     C_3   0.221799 0.663076 0.712179 -0.748233
H7    H     H_    0.263120 0.696711 0.767642 0.252085
H8    H     H_    0.095189 0.651837 0.709601 0.201647
H9    H     H_    0.280798 0.608506 0.716051 0.242657
O10   O     O_3   0.436956 0.266232 0.354923 -0.554500
C35   C     C_3   0.555966 0.250147 0.306804 0.110331
H10   H     H_    0.505813 0.252094 0.241430 0.151365
H11   H     H_    0.603874 0.192913 0.317530 0.158775
C36   C     C_3   0.688931 0.308496 0.319789 -0.820373
H12   H     H_    0.742524 0.308451 0.384662 0.249789
H13   H     H_    0.778710 0.294758 0.280655 0.203836
H14   H     H_    0.646614 0.365364 0.302628 0.252408
Br3   Br    Br    0.455097 0.731611 0.318569 -0.387074
Br4   Br    Br    0.665229 0.282256 0.672392 -0.457763
O11   O     O_3   0.488580 0.895151 0.364209 -0.515158
C37   C     C_3   0.646813 0.909875 0.357660 0.106384
H15   H     H_    0.709947 0.856557 0.354473 0.173273
H16   H     H_    0.702980 0.943659 0.410571 0.131721
C38   C     C_3   0.660980 0.954625 0.279780 -0.672255
H17   H     H_    0.603716 0.009398 0.281951 0.261186
H18   H     H_    0.785092 0.965512 0.273536 0.202609
H19   H     H_    0.605726 0.922398 0.225751 0.264592
O12   O     O_3   0.581853 0.116752 0.652966 -0.533780
C39   C     C_3   0.455275 0.112187 0.698603 0.115400
H20   H     H_    0.365323 0.071425 0.669791 0.169529
H21   H     H_    0.402039 0.168013 0.703747 0.161865
C40   C     C_3   0.511310 0.084995 0.784772 -0.691468
H22   H     H_    0.596955 0.126395 0.815845 0.246215
H23   H     H_    0.411858 0.078862 0.820417 0.196964
H24   H     H_    0.566499 0.029667 0.782589 0.281233
O13   O     O_3   0.689064 0.603872 0.880694 -0.577236
C41   C     C_3   0.604707 0.667211 0.898482 0.060535
H25   H     H_    0.642011 0.683039 0.963229 0.201308
H26   H     H_    0.476480 0.657204 0.892482 0.134317
C42   C     C_3   0.641981 0.733414 0.844287 -0.730526
H27   H     H_    0.606382 0.719316 0.779055 0.283703
H28   H     H_    0.578759 0.783578 0.859748 0.235318
H29   H     H_    0.768280 0.746965 0.853747 0.250512
O14   O     O_3   0.252920 0.424552 0.117666 -0.571598
C43   C     C_3   0.257003 0.345505 0.126135 0.068197
H30   H     H_    0.273355 0.327049 0.191327 0.160635
H31   H     H_    0.351923 0.323547 0.094687 0.143307
C44   C     C_3   0.103380 0.311365 0.086716 -0.763066
H32   H     H_    0.078860 0.330476 0.022153 0.265867
H33   H     H_    0.107654 0.248945 0.088369 0.211009
H34   H     H_    0.008403 0.329224 0.120482 0.232920
Br5   Br    Br    0.263775 0.380165 0.676886 -0.439984
Br6   Br    Br    0.761376 0.606771 0.320596 -0.433299
O15   O     O_3   0.327970 0.390452 0.859653 -0.532178
C45   C     C_3   0.422611 0.327592 0.877718 0.112262
H35   H     H_    0.506048 0.338679 0.933696 0.130037
H36   H     H_    0.488420 0.313548 0.826321 0.178898
C46   C     C_3   0.321757 0.258848 0.893032 -0.744767
H37   H     H_    0.237739 0.246474 0.837790 0.273973
H38   H     H_    0.395429 0.209321 0.907145 0.190691
H39   H     H_    0.257721 0.269008 0.945564 0.245183
O16   O     O_3   0.721271 0.578522 0.139747 -0.536835
C47   C     C_3   0.847522 0.532372 0.131699 0.080864
H40   H     H_    0.810513 0.482640 0.092451 0.132687
H41   H     H_    0.902387 0.512506 0.192640 0.156466
C48   C     C_3   0.968209 0.577848 0.091613 -0.655713
H42   H     H_    0.010737 0.626877 0.130416 0.259404
H43   H     H_    0.067505 0.542162 0.083882 0.235903
H44   H     H_    0.916811 0.598339 0.030537 0.260194

loop_
_geom_bond_atom_site_label_1
_geom_bond_atom_site_label_2
_ccdc_geom_bond_type
C34   H7    S    
C36   H13   S    
O14   C43   S    
C27   C29   A    
C46   H38   S    
C38   H17   S    
O16   C47   S    
Cu2   O2    S    
C44   H34   S    
C45   H36   S    
C40   H22   S    
O12   C39   S    
C21   C31   A    
Cu1   N1    S    
C22   C32   A    
C35   C36   S    
Cu2   N2    S    
C22   C24   A    
C10   N2    A    
C28   Br4   S    
C24   C26   A    
C41   H26   S    
C15   C16   T    
C9    N1    A    
Cu1   O5    S    
C35   H11   S    
C45   H35   S    
C44   H33   S    
C30   O12   S    
C1    O3    A    
C19   C20   D    
C2    O4    A    
C48   H43   S    
C46   H37   S    
C37   H15   S    
Cu2   O6    S    
C42   H28   S    
C5    C13   A    
C33   C34   S    
C22   Br2   S    
C5    O13   S    
C6    O14   S    
C23   C25   A    
C36   H14   S    
O10   C35   S    
C38   H18   S    
O11   C37   S    
C8    H4    S    
C18   O6    A    
C47   H41   S    
C47   H40   S    
C40   H23   S    
C33   H6    S    
C44   H32   S    
C29   O11   S    
O9    C33   S    
C10   Br6   S    
C5    C7    A    
C41   H25   S    
C6    C8    A    
C43   C44   S    
O13   C41   S    
C35   H10   S    
C3    C31   S    
C6    C14   A    
C23   O9    S    
C48   H44   S    
C37   C38   S    
Cu1   Cu2   S    
C7    H3    S    
C39   H21   S    
C34   H8    S    
C42   H29   S    
C43   H31   S    
C9    C11   A    
C4    C32   S    
C10   C12   A    
C21   Br1   S    
C1    O1    A    
C12   C14   A    
C13   C15   S    
C1    C26   S    
C46   H39   S    
C14   C16   S    
C3    C4    T    
C12   O16   S    
C40   H24   S    
C33   H5    S    
C39   H20   S    
Cu1   O4    S    
Cu2   O3    S    
C17   O7    A    
C17   O5    A    
C41   C42   S    
C18   O8    A    
C11   O15   S    
C25   C27   A    
C26   C28   A    
Cu1   O1    S    
C21   C23   A    
C29   C31   A    
C19   H1    S    
C30   C32   A    
C11   C13   A    
C39   C40   S    
C2    O2    A    
C24   O10   S    
C28   C30   A    
C17   C19   S    
C2    C25   S    
C18   C20   S    
C47   C48   S    
C43   H30   S    
C27   Br3   S    
C36   H12   S    
C20   H2    S    
C38   H19   S    
C9    Br5   S    
C34   H9    S    
O15   C45   S    
Cu1   O8    S    
C7    N1    A    
C37   H16   S    
Cu2   O7    S    
C8    N2    A    
C42   H27   S    
C45   C46   S    
C48   H42   S    
