data_mof_unit_2148.cif
_audit_creation_date              2012-12-11T15:46:55-0500
_audit_creation_method            fapswitch 2.2
_symmetry_space_group_name_H-M    P1
_symmetry_Int_Tables_number       1
_space_group_crystal_system       triclinic
_cell_length_a                    11.545048
_cell_length_b                    11.505857
_cell_length_c                    19.531007
_cell_angle_alpha                 90.339674
_cell_angle_beta                  90.175406
_cell_angle_gamma                 59.969318
_cell_volume                      2246.0943377

loop_
_atom_site_label
_atom_site_type_symbol
_atom_type_description
_atom_site_fract_x
_atom_site_fract_y
_atom_site_fract_z
_atom_type_partial_charge
C1    C     C_R   0.640646 0.117404 0.599206 0.548636
C2    C     C_1   0.641639 0.703401 0.667950 0.004513
C3    C     C_1   0.126842 0.198749 0.859348 0.002765
C4    C     C_1   0.171549 0.170013 0.727721 -0.031090
C5    C     C_1   0.150256 0.182146 0.798982 -0.031049
C6    C     C_1   0.195261 0.160639 0.667362 0.002170
C7    C     C_1   0.678151 0.191470 0.860813 0.003383
C8    C     C_1   0.658703 0.167231 0.728996 -0.030921
C9    C     C_1   0.665411 0.181076 0.800326 -0.031126
C10   C     C_1   0.653366 0.149573 0.668582 0.003927
C11   C     C_R   0.651143 0.686265 0.188491 -0.001248
C12   C     C_R   0.612734 0.745540 0.598549 0.547134
C13   C     C_R   0.532661 0.716120 0.223172 0.072564
C14   C     C_R   0.531380 0.719896 0.293058 0.015193
C15   C     C_R   0.750165 0.696747 0.296126 -0.168529
C16   C     C_R   0.754483 0.690433 0.224748 -0.174983
C17   C     C_3   0.449429 0.647460 0.223731 0.009935
C18   C     C_3   0.452769 0.650662 0.301132 -0.251072
C19   C     C_R   0.640822 0.703069 0.330821 0.010656
C20   C     C_R   0.169888 0.184971 0.185681 0.006907
C21   C     C_R   0.210031 0.266692 0.219064 0.025943
C22   C     C_R   0.255776 0.240950 0.285632 0.024189
C23   C     C_R   0.240817 0.145282 0.598161 0.556051
C24   C     C_R   0.244647 0.037288 0.284856 -0.144033
C25   C     C_R   0.196444 0.064621 0.217364 -0.148822
C26   C     C_3   0.132714 0.414995 0.230855 -0.271797
C27   C     C_3   0.180128 0.387374 0.304110 -0.263445
C28   C     C_R   0.265656 0.130928 0.321265 0.008464
C29   C     C_R   0.689308 0.194958 0.199352 0.020061
C30   C     C_R   0.801751 0.108140 0.238184 0.042166
C31   C     C_R   0.793058 0.092325 0.307073 0.021672
C32   C     C_R   0.561793 0.267502 0.304343 -0.165696
C33   C     C_R   0.570438 0.281778 0.233788 -0.177685
C34   C     C_R   0.645353 0.114191 0.403335 0.543620
C35   C     C_3   0.901727 0.962982 0.227443 -0.268980
C36   C     C_3   0.893475 0.945569 0.303682 -0.271902
C37   C     C_R   0.670017 0.163030 0.340049 0.017775
C38   C     C_R   0.081970 0.231055 0.928631 0.546156
C39   C     C_R   0.683680 0.604870 0.929605 0.544237
C40   C     C_R   0.708154 0.206613 0.930194 0.548482
C41   C     C_R   0.085699 0.234696 0.124761 0.543326
C42   C     C_R   0.680906 0.615062 0.124282 0.539108
C43   C     C_R   0.710406 0.212025 0.127971 0.545911
C44   C     C_R   0.616253 0.740181 0.401909 0.540049
C45   C     C_R   0.300961 0.115532 0.393938 0.558716
C46   C     C_1   0.669985 0.647048 0.860219 0.004189
C47   C     C_1   0.654999 0.683469 0.728448 -0.031350
C48   C     C_1   0.663265 0.666997 0.799731 -0.031631
Cr1   Cr    Cr6+3 0.404720 0.198220 0.499960 1.019352
Cr2   Cr    Cr6+3 0.698290 0.897110 0.500380 1.020684
Cr3   Cr    Cr6+3 0.396970 0.904720 0.499610 1.023829
Cr4   Cr    Cr6+3 0.926290 0.152010 0.028150 1.014834
Cr5   Cr    Cr6+3 0.921440 0.451830 0.027490 1.021852
Cr6   Cr    Cr6+3 0.626370 0.446880 0.028730 1.004318
H1    H     H_    0.833482 0.691953 0.324062 0.122894
H2    H     H_    0.174280 0.468537 0.201671 0.130843
H3    H     H_    0.245397 0.429076 0.317656 0.122940
H4    H     H_    0.097184 0.413074 0.340861 0.157953
H5    H     H_    0.467154 0.329635 0.329448 0.131408
H6    H     H_    0.483177 0.355071 0.206060 0.116855
H7    H     H_    0.861646 0.910049 0.196024 0.138453
H8    H     H_    0.850482 0.881043 0.315788 0.157304
H9    H     H_    0.987456 0.920441 0.331308 0.136131
H10   H     H_    0.843971 0.674954 0.198894 0.124499
H11   H     H_    0.499492 0.543875 0.202983 0.164742
H12   H     H_    0.354198 0.715432 0.325902 0.144968
H13   H     H_    0.512789 0.549421 0.324205 0.115035
H14   H     H_    0.255228 0.949056 0.309921 0.145029
H15   H     H_    0.169019 0.998150 0.192355 0.154525
H16   H     H_    0.023027 0.457203 0.226086 0.153616
O1    O     O_R   0.267750 0.231960 0.575440 -0.501140
O2    O     O_R   0.685950 0.784660 0.430010 -0.508131
O3    O     O_R   0.502510 0.767000 0.423980 -0.526144
O4    O     O_R   0.288320 0.026340 0.429250 -0.502961
O5    O     O_3   0.499990 0.000020 0.499980 -0.270365
O6    O     O_R   0.821590 0.119350 0.952850 -0.505934
O7    O     O_R   0.037230 0.162540 0.957390 -0.496379
O8    O     O_R   0.056530 0.344750 0.951370 -0.504829
O9    O     O_R   0.798000 0.560370 0.957490 -0.493253
O10   O     O_R   0.596230 0.579400 0.952760 -0.510454
O11   O     O_R   0.639160 0.321170 0.958690 -0.492580
O12   O     O_R   0.527290 0.186640 0.570530 -0.493939
O13   O     O_R   0.821370 0.124220 0.104400 -0.519250
O14   O     O_R   0.037020 0.167050 0.097880 -0.510444
O15   O     O_R   0.056310 0.349620 0.102920 -0.516590
O16   O     O_R   0.797790 0.564880 0.097980 -0.504443
O17   O     O_R   0.596000 0.584270 0.104310 -0.538465
O18   O     O_R   0.638950 0.325690 0.099180 -0.511023
O19   O     O_3   0.824700 0.350240 0.028120 -0.246646
O20   O     O_R   0.728110 0.003450 0.576380 -0.502438
O21   O     O_R   0.682980 0.789190 0.570500 -0.491570
O22   O     O_R   0.499300 0.771880 0.575540 -0.504233
O23   O     O_R   0.285350 0.030870 0.569740 -0.487945
O24   O     O_R   0.270960 0.227070 0.423890 -0.518038
O25   O     O_R   0.530270 0.182120 0.430040 -0.522419
O26   O     O_R   0.731320 0.998570 0.424830 -0.518338
H17   H     H_    0.000678 0.946586 0.211028 0.141749
N1    N     N_2   0.314447 0.731592 0.197890 -0.544520
H18   H     H_    0.247163 0.706472 0.217734 0.237879
C49   C     C_3   0.301818 0.748374 0.124452 -0.278696
H19   H     H_    0.194860 0.814016 0.110774 0.118865
H20   H     H_    0.339016 0.649662 0.098641 0.157292
H21   H     H_    0.357722 0.797512 0.106169 0.180781

loop_
_geom_bond_atom_site_label_1
_geom_bond_atom_site_label_2
_ccdc_geom_bond_type
C21   C26   S    
C1    O20   A    
C34   C37   S    
C43   O13   A    
C14   C18   S    
C12   O21   A    
C35   C36   S    
Cr3   O4    S    
C2    C12   S    
C20   C41   S    
C15   C19   A    
C26   C27   S    
C30   C35   S    
C43   O18   A    
Cr5   O9    S    
Cr3   O5    S    
Cr6   O17   S    
C20   C25   A    
C15   C16   A    
C29   C33   A    
C11   C42   S    
Cr4   O14   S    
Cr2   O2    S    
Cr2   O20   S    
C3    C38   S    
C8    C9    S    
C7    C40   S    
Cr1   O5    S    
Cr5   O16   S    
C42   O16   A    
Cr1   O24   S    
C36   H9    S    
C24   C28   A    
C17   N1    S    
C22   C28   A    
C13   C14   A    
C29   C43   S    
Cr4   O19   S    
C36   H8    S    
C45   O24   A    
C14   C19   A    
Cr6   O10   S    
C46   C48   T    
C28   C45   S    
C23   O1    A    
C24   C25   A    
Cr6   O19   S    
C4    C6    T    
C27   H3    S    
C38   O8    A    
Cr4   O6    S    
C18   H13   S    
C41   O14   A    
C49   H21   S    
Cr1   O25   S    
C23   O23   A    
C31   C37   A    
C45   O4    A    
C15   H1    S    
Cr1   O12   S    
Cr4   O13   S    
C29   C30   A    
Cr3   O22   S    
C11   C16   A    
C47   C48   S    
C49   H20   S    
C17   C18   S    
C35   H7    S    
C32   C37   A    
C34   O25   A    
Cr3   O23   S    
C39   C46   S    
C33   H6    S    
N1    C49   S    
C22   C27   S    
Cr5   O19   S    
C26   H16   S    
C25   H15   S    
Cr4   O7    S    
C19   C44   S    
C7    C9    T    
C40   O11   A    
C12   O22   A    
C1    C10   S    
Cr3   O3    S    
C34   O26   A    
C4    C5    S    
C3    C5    T    
C27   H4    S    
C26   H2    S    
C38   O7    A    
C2    C47   T    
C18   H12   S    
C41   O15   A    
C17   H11   S    
C13   C17   S    
C32   C33   A    
Cr5   O8    S    
C1    O12   A    
C35   H17   S    
Cr2   O5    S    
C39   O10   A    
Cr6   O18   S    
C11   C13   A    
Cr2   O26   S    
C30   C31   A    
C6    C23   S    
C49   H19   S    
C44   O2    A    
C44   O3    A    
C24   H14   S    
C40   O6    A    
Cr2   O21   S    
C20   C21   A    
C8    C10   T    
N1    H18   S    
Cr1   O1    S    
C31   C36   S    
Cr5   O15   S    
C42   O17   A    
C16   H10   S    
C32   H5    S    
C21   C22   A    
Cr6   O11   S    
C39   O9    A    
