data_mof_unit_2517.cif
_audit_creation_date              2012-12-10T17:13:36-0500
_audit_creation_method            fapswitch 2.2
_symmetry_space_group_name_H-M    P1
_symmetry_Int_Tables_number       1
_space_group_crystal_system       triclinic
_cell_length_a                    10.778796
_cell_length_b                    13.022831
_cell_length_c                    11.68032
_cell_angle_alpha                 101.086094
_cell_angle_beta                  94.210266
_cell_angle_gamma                 90.258432
_cell_volume                      1604.34343913

loop_
_atom_site_label
_atom_site_type_symbol
_atom_type_description
_atom_site_fract_x
_atom_site_fract_y
_atom_site_fract_z
_atom_type_partial_charge
C1    C     C_R   0.502430 0.298604 0.477045 0.949743
C2    C     C_3   0.876771 0.488616 0.498293 0.033451
C3    C     C_3   0.924551 0.595900 0.478897 -0.558027
C4    C     C_3   0.914833 0.400137 0.395772 -0.310088
C5    C     C_R   0.489089 0.816115 0.539974 -0.079380
C6    C     C_R   0.503733 0.184007 0.462084 -0.041519
C7    C     C_R   0.500870 0.008107 0.346664 -0.272407
C8    C     C_R   0.509857 0.115707 0.352066 0.014646
C9    C     C_R   0.493543 0.141976 0.562932 -0.217535
C10   C     C_R   0.485317 0.034195 0.557716 0.122152
C11   C     C_R   0.491276 0.967384 0.448066 0.142914
C12   C     C_R   0.259841 0.495237 0.499124 0.981982
C13   C     C_R   0.491737 0.860021 0.440143 -0.271343
C14   C     C_R   0.479654 0.882201 0.651373 -0.075512
C15   C     C_R   0.475038 0.991737 0.659708 -0.071682
C16   C     C_R   0.377078 0.405369 0.019391 -0.309358
C17   C     C_R   0.390032 0.414016 0.142075 0.126844
C18   C     C_R   0.552870 0.539169 0.158401 0.024307
C19   C     C_R   0.543352 0.532331 0.035609 0.012716
C20   C     C_R   0.454195 0.465436 0.964636 0.068359
C21   C     C_R   0.445479 0.460441 0.841278 0.035624
C22   C     C_R   0.613118 0.583736 0.860754 0.240246
C23   C     C_R   0.497271 0.701455 0.523209 0.829995
C24   C     C_R   0.622264 0.590706 0.983071 -0.299874
C25   C     C_R   0.739568 0.495065 0.499441 0.880882
C26   C     C_3   0.080081 0.466826 0.616791 0.240622
C27   C     C_3   0.936045 0.468706 0.617576 -0.479920
C28   C     C_3   0.069625 0.597623 0.481076 0.206174
C29   C     C_3   0.063434 0.400916 0.388741 0.302087
C30   C     C_3   0.121247 0.487987 0.496562 -0.086037
Cu1   Cu    Cu3+1 0.509350 0.507730 0.615930 0.993282
Cu2   Cu    Cu3+1 0.490650 0.492270 0.384070 0.996629
H1    H     H_    0.112310 0.536695 0.682902 0.158161
H2    H     H_    0.866165 0.418998 0.316817 0.163651
H3    H     H_    0.090836 0.607754 0.392357 0.163087
H4    H     H_    0.884905 0.610291 0.392981 0.148538
H5    H     H_    0.498005 0.810330 0.354906 0.164163
H6    H     H_    0.506067 0.955396 0.263035 0.130965
H7    H     H_    0.493994 0.194482 0.646611 0.198634
H8    H     H_    0.376962 0.408755 0.786275 0.178841
H9    H     H_    0.307802 0.351909 0.968134 0.151653
H10   H     H_    0.691518 0.642066 0.038003 0.177882
H11   H     H_    0.330547 0.366940 0.182990 0.160966
H12   H     H_    0.621543 0.591142 0.212985 0.111676
H13   H     H_    0.892477 0.399396 0.640086 0.223659
H14   H     H_    0.911034 0.533332 0.688711 0.172961
H15   H     H_    0.883894 0.658671 0.541756 0.175749
N1    N     N_R   0.523430 0.519360 0.790130 -0.224244
N2    N     N_R   0.476570 0.480640 0.209880 -0.177705
O1    O     O_R   0.506640 0.354460 0.582000 -0.599429
O2    O     O_R   0.490840 0.341410 0.386200 -0.545683
O3    O     O_R   0.325590 0.506510 0.597900 -0.551081
O4    O     O_R   0.309790 0.493450 0.402100 -0.565832
O5    O     O_R   0.509160 0.658590 0.613800 -0.585931
O6    O     O_R   0.493360 0.645540 0.418000 -0.605286
O7    O     O_R   0.690210 0.506550 0.597900 -0.626561
O8    O     O_R   0.674410 0.493490 0.402100 -0.597985
C31   C     C_2   0.471316 0.839778 0.759902 0.365900
H16   H     H_    0.539170 0.864211 0.833585 0.038509
O9    O     O_2   0.385685 0.781207 0.769537 -0.531301
C32   C     C_2   0.454580 0.059691 0.774718 0.322548
H17   H     H_    0.507179 0.047623 0.853676 0.062614
O10   O     O_2   0.374465 0.126186 0.782791 -0.562007
C33   C     C_2   0.529742 0.149940 0.240785 0.371520
H18   H     H_    0.479230 0.110576 0.160376 0.058046
O11   O     O_2   0.608804 0.215960 0.235753 -0.537485
O12   O     O_3   0.147915 0.384698 0.657477 -0.596996
C34   C     C_3   0.083496 0.290181 0.658595 0.146527
H19   H     H_    0.151238 0.226109 0.640383 0.207339
H20   H     H_    0.008513 0.270069 0.588021 0.157610
C35   C     C_3   0.039480 0.289471 0.780110 -0.381747
H21   H     H_    0.121588 0.297230 0.844534 0.227143
H22   H     H_    0.978375 0.356631 0.807348 0.222528
C36   C     C_3   0.969473 0.187783 0.781852 -0.899360
H23   H     H_    0.884571 0.179843 0.720610 0.268914
H24   H     H_    0.941400 0.187700 0.871355 0.257943
H25   H     H_    0.030163 0.119774 0.756248 0.272925
C37   C     C_2   0.704104 0.648000 0.813823 0.304306
H26   H     H_    0.689694 0.668274 0.729305 0.119181
O13   O     O_2   0.799898 0.681216 0.871843 -0.607767
O14   O     O_3   0.138348 0.682400 0.556337 -0.613402
C38   C     C_3   0.078778 0.738588 0.652541 0.135535
H27   H     H_    0.151045 0.763890 0.725114 0.208186
H28   H     H_    0.013066 0.690635 0.689667 0.130543
C39   C     C_3   0.019957 0.837710 0.621259 -0.360351
H29   H     H_    0.094785 0.895497 0.616605 0.233940
H30   H     H_    0.967884 0.819501 0.533944 0.222242
C40   C     C_3   0.931399 0.886602 0.711742 -0.903644
H31   H     H_    0.854820 0.830499 0.716341 0.261865
H32   H     H_    0.889884 0.957506 0.686176 0.256437
H33   H     H_    0.982306 0.909236 0.799287 0.273029
O15   O     O_3   0.109650 0.421995 0.282651 -0.627723
C41   C     C_3   0.029905 0.458368 0.198002 0.034922
H34   H     H_    0.089411 0.501259 0.148440 0.170425
H35   H     H_    0.964351 0.518260 0.235502 0.124647
C42   C     C_3   0.967699 0.366829 0.109630 -0.375117
H36   H     H_    0.037852 0.329014 0.050898 0.214529
H37   H     H_    0.931962 0.306536 0.154780 0.214380
C43   C     C_3   0.860152 0.404419 0.036792 -0.865918
H38   H     H_    0.787358 0.438455 0.094429 0.261228
H39   H     H_    0.818182 0.337539 0.971781 0.262964
H40   H     H_    0.893437 0.464477 0.989746 0.259851
C44   C     C_2   0.116107 0.292574 0.392197 0.372774
H41   H     H_    0.071283 0.223717 0.337824 0.038901
O16   O     O_2   0.215715 0.280596 0.444152 -0.586901
C45   C     C_2   0.855821 0.293015 0.394749 0.314204
H42   H     H_    0.860960 0.231610 0.318117 0.103592
O17   O     O_2   0.798233 0.274691 0.474929 -0.578855

loop_
_geom_bond_atom_site_label_1
_geom_bond_atom_site_label_2
_ccdc_geom_bond_type
C22   N1    A    
C41   H34   S    
C24   H10   S    
C19   C20   A    
C25   O7    A    
Cu1   O3    S    
C6    C9    A    
O14   C38   S    
C7    C8    A    
C39   H29   S    
C7    C11   A    
C26   C27   S    
C36   H24   S    
C26   O12   S    
C3    C28   S    
C10   C15   A    
C37   O13   D    
C45   H42   S    
C31   O9    D    
C42   C43   S    
C9    H7    S    
C29   C44   S    
C18   C19   A    
C32   O10   D    
C43   H38   S    
C28   H3    S    
C16   C17   A    
C36   H25   S    
C42   H37   S    
C2    C27   S    
Cu1   O7    S    
C1    O1    A    
Cu2   O6    S    
C13   H5    S    
C12   O4    A    
C21   N1    A    
C27   H13   S    
C41   H35   S    
C25   O8    A    
Cu2   O8    S    
C12   O3    A    
C39   H30   S    
C14   C31   S    
C4    H2    S    
C36   H23   S    
O12   C34   S    
C22   C37   S    
C17   N2    A    
C35   H22   S    
C37   H26   S    
C34   H19   S    
C6    C8    A    
C31   H16   S    
C4    C45   S    
C1    C6    S    
C33   O11   D    
C2    C4    S    
C17   H11   S    
Cu2   O2    S    
C29   C30   S    
C18   H12   S    
C26   H1    S    
Cu1   Cu2   S    
C5    C23   S    
C40   H33   S    
C16   C20   A    
C42   H36   S    
C15   C32   S    
C44   O16   D    
C20   C21   A    
C1    O2    A    
C5    C14   A    
C8    C33   S    
C27   H14   S    
C43   H39   S    
C40   H32   S    
C26   C30   S    
C41   C42   S    
C38   H28   S    
Cu1   N1    S    
C22   C24   A    
Cu1   O1    S    
Cu2   O4    S    
C23   O5    A    
C9    C10   A    
C39   C40   S    
C12   C30   S    
C28   O14   S    
C5    C13   A    
C4    C29   S    
C35   C36   S    
C23   O6    A    
C38   C39   S    
C33   H18   S    
C28   C30   S    
C2    C3    S    
C35   H21   S    
C11   C13   A    
C21   H8    S    
C45   O17   D    
C3    H4    S    
C34   C35   S    
C3    H15   S    
O15   C41   S    
C7    H6    S    
C19   C24   A    
C2    C25   S    
Cu1   O5    S    
C32   H17   S    
Cu2   N2    S    
C10   C11   A    
C43   H40   S    
C40   H31   S    
C34   H20   S    
C38   H27   S    
C44   H41   S    
C14   C15   A    
C16   H9    S    
C29   O15   S    
C18   N2    A    
