data_mof_unit_3296.cif
_audit_creation_date              2012-12-10T20:27:15-0500
_audit_creation_method            fapswitch 2.2
_symmetry_space_group_name_H-M    P1
_symmetry_Int_Tables_number       1
_space_group_crystal_system       triclinic
_cell_length_a                    10.699234
_cell_length_b                    10.696289
_cell_length_c                    9.874278
_cell_angle_alpha                 89.297286
_cell_angle_beta                  103.988677
_cell_angle_gamma                 90.464642
_cell_volume                      1096.42240915

loop_
_atom_site_label
_atom_site_type_symbol
_atom_type_description
_atom_site_fract_x
_atom_site_fract_y
_atom_site_fract_z
_atom_type_partial_charge
C1    C     C_R   0.504437 0.259762 0.501601 0.881752
C2    C     C_R   0.601196 0.547381 0.097645 -0.132615
C3    C     C_R   0.601289 0.547217 0.953861 -0.147795
C4    C     C_R   0.257922 0.503862 0.441397 0.904442
C5    C     C_R   0.392414 0.463518 0.901378 0.215615
C6    C     C_3   0.330484 0.336639 0.885223 -0.071298
C7    C     C_3   0.330168 0.338594 0.038963 -0.502920
C8    C     C_R   0.504950 0.739979 0.500482 0.871308
C9    C     C_R   0.741493 0.505746 0.558229 0.938999
C10   C     C_2   0.119253 0.522424 0.406871 0.030186
C11   C     C_2   0.067901 0.566451 0.508160 -0.178903
C12   C     C_R   0.526872 0.128313 0.506618 -0.106236
C13   C     C_2   0.878865 0.526647 0.591216 -0.379062
C14   C     C_2   0.930648 0.572065 0.490942 -0.145736
C15   C     C_R   0.541857 0.061595 0.631443 0.136667
C16   C     C_3   0.195302 0.334529 0.788597 -0.867571
C17   C     C_3   0.038600 0.490954 0.262904 -0.924454
C18   C     C_R   0.539349 0.066189 0.385932 -0.223837
C19   C     C_R   0.539878 0.936869 0.385130 -0.228972
C20   C     C_R   0.528055 0.871078 0.505046 -0.103709
C21   C     C_R   0.542213 0.933872 0.630417 0.134374
C22   C     C_3   0.466429 0.922776 0.738624 -0.464798
C23   C     C_3   0.465891 0.064178 0.739878 -0.509569
C24   C     C_R   0.393028 0.463286 0.044321 0.172605
H1    H     H_    0.871167 0.598686 0.389272 0.185299
H2    H     H_    0.538823 0.116099 0.289689 0.167803
H3    H     H_    0.539329 0.889653 0.288545 0.172199
H4    H     H_    0.369168 0.881135 0.697880 0.206077
H5    H     H_    0.523503 0.880483 0.837507 0.203746
H6    H     H_    0.368088 0.104098 0.699681 0.209086
H7    H     H_    0.139077 0.416759 0.806674 0.235553
H8    H     H_    0.201305 0.333929 0.678191 0.259589
H9    H     H_    0.144210 0.248000 0.808402 0.242336
H10   H     H_    0.097947 0.451814 0.195934 0.244610
H11   H     H_    0.964282 0.420074 0.271137 0.252594
H12   H     H_    0.523425 0.102563 0.839902 0.198274
H13   H     H_    0.990861 0.576556 0.210804 0.238409
H14   H     H_    0.683871 0.583930 0.172623 0.141415
H15   H     H_    0.684009 0.583446 0.920935 0.151842
H16   H     H_    0.395074 0.265051 0.861015 0.177402
H17   H     H_    0.233071 0.344339 0.060394 0.204677
H18   H     H_    0.394114 0.266864 0.102064 0.192006
H19   H     H_    0.127335 0.587010 0.611498 0.163743
H20   H     H_    0.937257 0.501522 0.693775 0.148152
N1    N     N_R   0.499160 0.499140 0.142600 -0.103323
N2    N     N_R   0.499160 0.499180 0.856960 -0.119105
O1    O     O_R   0.500020 0.316790 0.614700 -0.613807
O2    O     O_R   0.500000 0.316760 0.385350 -0.621000
O3    O     O_R   0.317820 0.500020 0.571850 -0.632025
O4    O     O_R   0.317800 0.499980 0.342510 -0.600535
O5    O     O_R   0.500000 0.683240 0.614650 -0.617415
O6    O     O_R   0.499980 0.683210 0.385300 -0.622549
O7    O     O_R   0.682200 0.500020 0.657490 -0.618252
O8    O     O_R   0.682180 0.499980 0.428150 -0.617514
Zn1   Zn    Zn3+2 0.500010 0.500020 0.653140 0.933704
Zn2   Zn    Zn3+2 0.499990 0.499980 0.346860 0.938536

loop_
_geom_bond_atom_site_label_1
_geom_bond_atom_site_label_2
_ccdc_geom_bond_type
N2    Zn1   S    
C1    O2    A    
C11   H19   S    
C6    C7    S    
C22   H5    S    
C16   H9    S    
C16   H8    S    
C19   H3    S    
C5    N2    A    
C8    O6    A    
C3    N2    A    
C19   C20   A    
C18   H2    S    
C12   C15   A    
C4    O3    A    
O3    Zn1   S    
C15   C23   S    
C2    C3    A    
C3    H15   S    
C2    N1    A    
C22   H4    S    
C13   C14   D    
C16   H7    S    
C5    C24   A    
C8    O5    A    
C8    C20   S    
C1    C12   S    
C24   N1    A    
C18   C19   A    
O5    Zn1   S    
C7    H17   S    
C14   H1    S    
C5    C6    S    
C11   C14   S    
O8    Zn2   S    
C9    O7    A    
C10   C11   D    
C17   H13   S    
C10   C17   S    
C4    C10   S    
C7    C24   S    
C23   H6    S    
C15   C21   A    
C6    H16   S    
C20   C21   A    
O1    Zn1   S    
C23   H12   S    
C17   H10   S    
C7    H18   S    
C12   C18   A    
O2    Zn2   S    
C2    H14   S    
C22   C23   S    
C1    O1    A    
C9    C13   S    
C9    O8    A    
C17   H11   S    
C21   C22   S    
O7    Zn1   S    
C6    C16   S    
C13   H20   S    
O4    Zn2   S    
O6    Zn2   S    
N1    Zn2   S    
C4    O4    A    
