data_mof_unit_4793.cif
_audit_creation_date              2012-12-11T15:53:45-0500
_audit_creation_method            fapswitch 2.2
_symmetry_space_group_name_H-M    P1
_symmetry_Int_Tables_number       1
_space_group_crystal_system       triclinic
_cell_length_a                    10.620736
_cell_length_b                    10.694788
_cell_length_c                    16.98158
_cell_angle_alpha                 80.865978
_cell_angle_beta                  99.031904
_cell_angle_gamma                 118.362386
_cell_volume                      1668.41141576

loop_
_atom_site_label
_atom_site_type_symbol
_atom_type_description
_atom_site_fract_x
_atom_site_fract_y
_atom_site_fract_z
_atom_type_partial_charge
C1    C     C_R   0.384439 0.285116 0.632007 0.540977
C2    C     C_R   0.514270 0.708180 0.735337 -0.160614
C3    C     C_R   0.492487 0.723734 0.811550 -0.137469
C4    C     C_3   0.093427 0.506731 0.769208 -0.209455
C5    C     C_3   0.117030 0.486657 0.687270 0.044442
C6    C     C_R   0.397886 0.618011 0.685532 -0.023090
C7    C     C_1   0.822753 0.656789 0.705999 -0.047687
C8    C     C_1   0.849901 0.684359 0.773926 -0.044636
C9    C     C_1   0.364980 0.235139 0.714526 -0.012275
C10   C     C_1   0.334169 0.188065 0.781845 -0.007526
C11   C     C_1   0.336360 0.663324 0.277648 -0.061830
C12   C     C_R   0.413511 0.620340 0.601564 0.543601
C13   C     C_1   0.323922 0.672568 0.206780 -0.039175
C14   C     C_R   0.798534 0.650189 0.149786 0.026001
C15   C     C_R   0.785964 0.527775 0.199600 0.008411
C16   C     C_R   0.751582 0.506415 0.276107 0.002054
C17   C     C_R   0.705681 0.709699 0.252238 -0.136319
C18   C     C_R   0.745390 0.735508 0.173841 0.113022
C19   C     C_3   0.890824 0.468177 0.223742 -0.251971
C20   C     C_3   0.853512 0.446796 0.308527 -0.258200
C21   C     C_R   0.722149 0.602242 0.305838 -0.025863
C22   C     C_R   0.339109 0.196609 0.150957 0.004078
C23   C     C_R   0.777417 0.619200 0.626713 0.544955
C24   C     C_R   0.260230 0.258996 0.171390 0.056772
C25   C     C_R   0.281071 0.301347 0.246941 -0.029280
C26   C     C_R   0.469424 0.231138 0.282126 -0.146651
C27   C     C_R   0.453283 0.195292 0.204566 -0.155248
C28   C     C_3   0.100882 0.203780 0.167612 0.046497
C29   C     C_3   0.124829 0.256570 0.248869 -0.238259
C30   C     C_R   0.376508 0.275541 0.305317 -0.003253
C31   C     C_R   0.890720 0.701586 0.856119 0.542134
C32   C     C_R   0.316564 0.705805 0.898825 0.551742
C33   C     C_R   0.286962 0.119145 0.858569 0.550589
C34   C     C_R   0.380765 0.296591 0.388033 0.549253
C35   C     C_R   0.882362 0.689212 0.082099 0.554554
C36   C     C_R   0.313342 0.700446 0.123607 0.575295
C37   C     C_R   0.287083 0.111844 0.083585 0.540385
C38   C     C_R   0.365466 0.653910 0.360783 0.542049
C39   C     C_R   0.702499 0.583996 0.389848 0.543866
C40   C     C_R   0.353390 0.650767 0.837579 0.008498
C41   C     C_R   0.246867 0.541371 0.793982 -0.002817
C42   C     C_R   0.269068 0.524025 0.719269 0.042423
Cr1   Cr    Cr6+3 0.608440 0.389080 0.519680 1.053720
Cr2   Cr    Cr6+3 0.288640 0.400090 0.490760 1.051417
Cr3   Cr    Cr6+3 0.602940 0.710800 0.489510 1.034796
Cr4   Cr    Cr6+3 0.052530 0.947560 0.964210 1.103286
Cr5   Cr    Cr6+3 0.059970 0.626800 0.992920 1.085303
Cr6   Cr    Cr6+3 0.373320 0.938440 0.995370 1.087509
H1    H     H_    0.618443 0.775147 0.713069 0.156452
H2    H     H_    0.854992 0.366075 0.197821 0.181821
H3    H     H_    0.798611 0.332570 0.331954 0.142429
H4    H     H_    0.944838 0.517057 0.348901 0.170699
H5    H     H_    0.547586 0.213971 0.325145 0.148057
H6    H     H_    0.518952 0.151048 0.190192 0.156487
H7    H     H_    0.040476 0.085468 0.169609 0.178615
H8    H     H_    0.104602 0.349615 0.248000 0.158673
H9    H     H_    0.072823 0.168078 0.295686 0.153474
H10   H     H_    0.073336 0.599872 0.768278 0.123843
H11   H     H_    0.018260 0.407219 0.802623 0.196597
H12   H     H_    0.107868 0.566187 0.638992 0.151946
H13   H     H_    0.671953 0.779236 0.272469 0.170002
H14   H     H_    0.004251 0.548669 0.216286 0.155832
O1    O     O_R   0.754020 0.497590 0.609930 -0.487865
O2    O     O_R   0.295080 0.533620 0.397890 -0.516632
O3    O     O_R   0.485280 0.746620 0.388440 -0.509731
O4    O     O_R   0.720550 0.696220 0.420010 -0.492024
O5    O     O_3   0.500010 0.499990 0.499980 -0.351658
O6    O     O_R   0.163320 0.092900 0.874450 -0.477980
O7    O     O_R   0.934650 0.822080 0.882840 -0.486529
O8    O     O_R   0.915520 0.604140 0.893670 -0.504298
O9    O     O_R   0.191760 0.638110 0.923230 -0.484214
O10   O     O_R   0.406180 0.826930 0.920660 -0.496396
O11   O     O_R   0.358620 0.062870 0.901950 -0.495993
O12   O     O_R   0.481420 0.271390 0.600630 -0.472348
O13   O     O_R   0.163910 0.085460 0.050210 -0.482038
O14   O     O_R   0.935200 0.815170 0.045770 -0.461375
O15   O     O_R   0.916120 0.596690 0.069430 -0.504253
O16   O     O_R   0.192310 0.631200 0.086170 -0.472981
O17   O     O_R   0.406770 0.819480 0.096420 -0.468228
O18   O     O_R   0.359170 0.055960 0.064880 -0.504890
O19   O     O_3   0.161940 0.837600 0.984160 -0.282666
O20   O     O_R   0.263810 0.254550 0.589590 -0.450680
O21   O     O_R   0.300820 0.531200 0.560890 -0.482718
O22   O     O_R   0.491480 0.744020 0.564270 -0.487308
O23   O     O_R   0.726290 0.693800 0.583010 -0.505407
O24   O     O_R   0.747830 0.500190 0.434090 -0.506820
O25   O     O_R   0.475680 0.273800 0.437630 -0.501110
O26   O     O_R   0.257620 0.257160 0.413750 -0.498354
Br1   Br    Br    0.029166 0.302921 0.081819 -0.450899
H15   H     H_    0.580337 0.804136 0.845753 0.166540
Br2   Br    Br    0.008992 0.289648 0.662320 -0.460845
Br3   Br    Br    0.735940 0.893092 0.106302 -0.471234

loop_
_geom_bond_atom_site_label_1
_geom_bond_atom_site_label_2
_ccdc_geom_bond_type
C5    C42   S    
C16   C21   A    
C41   C42   A    
C14   C18   A    
C19   C20   S    
Cr2   O21   S    
Cr4   O14   S    
C27   H6    S    
Cr1   O1    S    
C7    C8    T    
C32   O10   A    
Cr2   O2    S    
C15   C19   S    
C26   C27   A    
C3    H15   S    
C1    O12   A    
Cr6   O17   S    
C28   C29   S    
C20   H3    S    
Cr2   O20   S    
C6    C12   S    
C4    C41   S    
C19   H14   S    
C15   C16   A    
C23   O23   A    
Cr6   O19   S    
C12   O22   A    
Cr4   O7    S    
C17   H13   S    
C31   O8    A    
Cr3   O5    S    
C28   Br1   S    
C9    C10   T    
Cr1   O12   S    
C23   O1    A    
C37   O13   A    
C8    C31   S    
C2    C6    A    
Cr6   O10   S    
Cr4   O13   S    
C28   H7    S    
C32   O9    A    
C38   O2    A    
C25   C29   S    
C37   O18   A    
C35   O14   A    
C30   C34   S    
C1    C9    S    
C24   C25   A    
C13   C36   S    
C14   C35   S    
Cr5   O19   S    
C1    O20   A    
C22   C37   S    
C35   O15   A    
C17   C21   A    
C12   O21   A    
C11   C38   S    
Cr3   O23   S    
Cr5   O8    S    
Cr4   O6    S    
C2    H1    S    
Cr4   O19   S    
C21   C39   S    
C38   O3    A    
C16   C20   S    
C17   C18   A    
C34   O26   A    
Cr5   O9    S    
C5    Br2   S    
C33   O11   A    
C40   C41   A    
C29   H9    S    
C3    C40   A    
C26   C30   A    
C22   C27   A    
Cr3   O3    S    
C39   O4    A    
C22   C24   A    
Cr3   O22   S    
Cr5   O15   S    
C26   H5    S    
C25   C30   A    
C5    H12   S    
Cr1   O24   S    
Cr6   O11   S    
C24   C28   S    
C4    C5    S    
C36   O17   A    
C29   H8    S    
C39   O24   A    
C18   Br3   S    
Cr6   O18   S    
C2    C3    A    
Cr1   O25   S    
C20   H4    S    
C36   O16   A    
C11   C13   T    
C19   H2    S    
C7    C23   S    
C4    H11   S    
C10   C33   S    
C34   O25   A    
C32   C40   S    
C31   O7    A    
Cr1   O5    S    
C6    C42   A    
C4    H10   S    
Cr3   O4    S    
C14   C15   A    
Cr2   O5    S    
Cr5   O16   S    
Cr2   O26   S    
C33   O6    A    
