data_mof_unit_3039.cif
_audit_creation_date              2012-12-11T15:35:53-0500
_audit_creation_method            fapswitch 2.2
_symmetry_space_group_name_H-M    P1
_symmetry_Int_Tables_number       1
_space_group_crystal_system       triclinic
_cell_length_a                    7.049842
_cell_length_b                    12.132786
_cell_length_c                    35.677138
_cell_angle_alpha                 89.582602
_cell_angle_beta                  91.036958
_cell_angle_gamma                 89.915477
_cell_volume                      3051.03165709

loop_
_atom_site_label
_atom_site_type_symbol
_atom_type_description
_atom_site_fract_x
_atom_site_fract_y
_atom_site_fract_z
_atom_type_partial_charge
O1    O     O_R   0.379730 0.148600 0.662710 -0.550343
O2    O     O_R   0.620270 0.851400 0.337290 -0.550904
O3    O     O_R   0.120270 0.648600 0.337290 -0.550084
O4    O     O_R   0.879730 0.351400 0.662710 -0.549471
O5    O     O_R   0.722480 0.134490 0.741330 -0.524439
O6    O     O_R   0.277520 0.865510 0.258670 -0.507883
O7    O     O_R   0.777520 0.634490 0.258670 -0.517080
O8    O     O_R   0.222480 0.365510 0.741330 -0.531311
O9    O     O_R   0.892880 0.345890 0.741600 -0.502000
O10   O     O_R   0.107120 0.654110 0.258400 -0.518662
O11   O     O_R   0.607120 0.845890 0.258400 -0.508680
O12   O     O_R   0.392880 0.154110 0.741600 -0.498962
C1    C     C_R   0.554460 0.109314 0.753484 0.829462
C2    C     C_R   0.447864 0.892050 0.246883 0.829830
C3    C     C_R   0.946003 0.612163 0.245500 0.834669
C4    C     C_R   0.052733 0.386167 0.754901 0.829422
O13   O     O_R   0.709490 0.135560 0.662990 -0.552332
O14   O     O_R   0.290510 0.864440 0.337010 -0.551832
O15   O     O_R   0.790510 0.635560 0.337010 -0.550481
O16   O     O_R   0.209490 0.364440 0.662990 -0.549772
C5    C     C_R   0.539925 0.107832 0.651293 0.650918
C6    C     C_R   0.460081 0.892173 0.348705 0.649256
C7    C     C_R   0.960291 0.606930 0.348506 0.654955
C8    C     C_R   0.039708 0.393098 0.651504 0.657491
O17   O     O_3   0.552800 0.316610 0.702160 -0.370557
O18   O     O_3   0.447200 0.683390 0.297840 -0.374090
O19   O     O_3   0.947200 0.816610 0.297840 -0.371999
O20   O     O_3   0.052800 0.183390 0.702160 -0.374023
V1    V     V_3+5 0.827630 0.234380 0.702160 1.524911
V2    V     V_3+5 0.172370 0.765620 0.297840 1.528636
V3    V     V_3+5 0.672370 0.734380 0.297840 1.522117
V4    V     V_3+5 0.327630 0.265620 0.702160 1.525838
C9    C     C_R   0.966860 0.672791 0.911621 0.540986
C10   C     C_R   0.988031 0.327655 0.089952 0.549439
C11   C     C_R   0.510249 0.165300 0.085442 0.551301
C12   C     C_R   0.548338 0.848775 0.919063 0.543056
O21   O     O_2   0.884639 0.573694 0.916262 -0.528457
O22   O     O_2   0.994244 0.437245 0.083618 -0.540790
O23   O     O_2   0.545036 0.058050 0.078733 -0.543891
O24   O     O_2   0.600386 0.952716 0.927440 -0.540444
N1    N     N_R   0.024205 0.708838 0.876496 -0.531669
N2    N     N_R   0.973207 0.286558 0.126058 -0.526481
N3    N     N_R   0.484945 0.201230 0.121709 -0.528626
N4    N     N_R   0.540072 0.814340 0.882184 -0.534296
C13   C     C_R   0.067126 0.819721 0.872649 0.560220
C14   C     C_R   0.967782 0.174096 0.131437 0.564516
C15   C     C_R   0.449691 0.311173 0.127759 0.548885
C16   C     C_R   0.498469 0.705414 0.874790 0.604469
C17   C     C_R   0.036262 0.660595 0.806191 -0.054596
C18   C     C_R   0.058426 0.348618 0.191950 -0.034711
C19   C     C_R   0.573173 0.145024 0.188131 -0.018366
C20   C     C_R   0.651975 0.862537 0.817382 -0.048265
C21   C     C_R   0.049878 0.581224 0.777647 -0.273967
C22   C     C_R   0.055292 0.430214 0.219953 -0.292335
C23   C     C_R   0.562889 0.069967 0.218346 -0.268254
C24   C     C_R   0.647001 0.932013 0.785687 -0.274409
C25   C     C_R   0.020393 0.437980 0.824003 0.445899
C26   C     C_R   0.847927 0.541771 0.180505 0.436151
C27   C     C_R   0.376639 0.947231 0.179731 0.421780
C28   C     C_R   0.483826 0.069872 0.821090 0.423001
C29   C     C_R   0.055433 0.515767 0.851861 -0.183877
C30   C     C_R   0.844159 0.457303 0.154019 -0.135693
C31   C     C_R   0.385589 0.022820 0.149912 -0.159541
C32   C     C_R   0.487475 0.999602 0.852465 -0.144818
C33   C     C_R   0.039932 0.629922 0.844879 0.300391
C34   C     C_R   0.956649 0.362595 0.157748 0.243391
C35   C     C_R   0.483699 0.122735 0.153195 0.259350
C36   C     C_R   0.564117 0.892834 0.851041 0.301389
C37   C     C_R   0.018769 0.852662 0.939255 -0.020702
C38   C     C_R   0.990736 0.142547 0.064132 -0.035840
C39   C     C_R   0.467689 0.351881 0.061024 -0.039044
C40   C     C_R   0.484189 0.662815 0.941431 -0.036315
C41   C     C_R   0.982633 0.740242 0.943558 -0.043659
C42   C     C_R   0.000684 0.256949 0.058879 -0.037695
C43   C     C_R   0.503049 0.239763 0.054719 -0.032384
C44   C     C_R   0.508865 0.775290 0.948889 -0.036711
C45   C     C_R   0.955195 0.697476 0.979614 -0.119587
C46   C     C_R   0.019524 0.299163 0.022530 -0.118277
C47   C     C_R   0.529048 0.204316 0.017829 -0.116305
C48   C     C_R   0.500123 0.811222 0.986113 -0.118064
C49   C     C_R   0.051916 0.893340 0.903117 -0.061729
C50   C     C_R   0.967243 0.101331 0.100612 -0.075891
C51   C     C_R   0.433486 0.386544 0.097634 -0.092721
C52   C     C_R   0.478881 0.627885 0.904088 -0.044247
C53   C     C_R   0.039131 0.468179 0.785903 -0.195566
C54   C     C_R   0.952097 0.528799 0.214660 -0.220485
C55   C     C_R   0.460306 0.971301 0.214810 -0.206348
C56   C     C_R   0.554276 0.034404 0.786669 -0.188896
H1    H     H_    0.079902 0.483335 0.879655 0.193255
H2    H     H_    0.760206 0.469489 0.128762 0.188019
H3    H     H_    0.311336 0.004300 0.124048 0.186408
H4    H     H_    0.422617 0.027786 0.877626 0.186296
H5    H     H_    0.931149 0.610157 0.983984 0.165621
H6    H     H_    0.024476 0.387238 0.017394 0.163852
H7    H     H_    0.557806 0.118498 0.011928 0.167744
H8    H     H_    0.517128 0.897603 0.992858 0.166626
C57   C     C_R   0.976000 0.954404 0.038422 -0.005418
C58   C     C_R   0.040357 0.039787 0.965363 0.015324
C59   C     C_R   0.469380 0.470231 0.963439 0.001173
C60   C     C_R   0.434244 0.542921 0.038018 -0.017408
C61   C     C_R   0.026854 0.113050 0.996329 0.022701
C62   C     C_R   0.982870 0.881421 0.007178 0.020649
C63   C     C_R   0.455876 0.621783 0.008665 0.022307
C64   C     C_R   0.482978 0.392302 0.993481 0.021135
C65   C     C_R   0.999373 0.069634 0.032872 0.081846
C66   C     C_R   0.014501 0.924853 0.970764 0.101952
C67   C     C_R   0.469032 0.584787 0.971287 0.080955
C68   C     C_R   0.462371 0.429221 0.030730 0.080360
C69   C     C_R   0.939836 0.916823 0.075134 -0.066599
C70   C     C_R   0.077791 0.077584 0.928784 -0.085146
C71   C     C_R   0.455088 0.438037 0.925661 -0.082390
C72   C     C_R   0.381419 0.573119 0.074403 -0.055110
C73   C     C_R   0.936806 0.988419 0.105475 -0.020610
C74   C     C_R   0.075341 0.006817 0.898227 -0.087506
C75   C     C_R   0.455283 0.515708 0.896673 -0.034756
C76   C     C_R   0.376977 0.495440 0.103392 0.026365
O25   O     O_2   0.961575 0.131413 0.166337 -0.546805
O26   O     O_2   0.129875 0.860718 0.840063 -0.542745
O27   O     O_2   0.472802 0.671092 0.839200 -0.532943
O28   O     O_2   0.430888 0.349106 0.162842 -0.558685
C77   C     C_R   0.959065 0.765872 0.010817 -0.168500
C78   C     C_R   0.033177 0.229145 0.991969 -0.166130
C79   C     C_R   0.518645 0.278791 0.987781 -0.167378
C80   C     C_R   0.470416 0.736328 0.015393 -0.166693
H9    H     H_    0.135343 0.416604 0.245775 0.143012
H10   H     H_    0.057371 0.608509 0.748726 0.124144
H11   H     H_    0.712956 0.904883 0.760159 0.135333
H12   H     H_    0.633227 0.089697 0.244684 0.136914
H13   H     H_    0.145677 0.276445 0.196869 0.191234
H14   H     H_    0.021509 0.744210 0.796530 0.167969
H15   H     H_    0.720981 0.783810 0.815216 0.155311
H16   H     H_    0.653779 0.219880 0.192138 0.175472
H17   H     H_    0.904642 0.955154 0.132767 0.218545
H18   H     H_    0.095562 0.041632 0.870590 0.211930
H19   H     H_    0.440227 0.487243 0.868153 0.188712
H20   H     H_    0.325851 0.520423 0.130466 0.198405
H21   H     H_    0.910079 0.832235 0.081270 0.191957
H22   H     H_    0.114860 0.161549 0.923119 0.189150
H23   H     H_    0.438774 0.353111 0.917927 0.188431
H24   H     H_    0.336573 0.655803 0.080749 0.185536
H25   H     H_    0.939943 0.724968 0.037341 0.154034
H26   H     H_    0.044300 0.269447 0.965115 0.149969
H27   H     H_    0.544728 0.245631 0.960373 0.160941
H28   H     H_    0.469694 0.769571 0.043379 0.161221
C81   C     C_R   0.968975 0.528554 0.379492 -0.022263
C82   C     C_R   0.031036 0.471492 0.620524 -0.022906
C83   C     C_R   0.531608 0.029679 0.620523 -0.019468
C84   C     C_R   0.468445 0.970316 0.379476 -0.018971
C85   C     C_R   0.915492 0.346260 0.404344 -0.168582
C86   C     C_R   0.084676 0.653774 0.595676 -0.168666
C87   C     C_R   0.583359 0.846930 0.596646 -0.169226
C88   C     C_R   0.417203 0.153122 0.403347 -0.169192
C89   C     C_R   0.924951 0.417824 0.373800 -0.187154
C90   C     C_R   0.075172 0.582207 0.626219 -0.185088
C91   C     C_R   0.574306 0.918701 0.626796 -0.183934
C92   C     C_R   0.426153 0.081343 0.373198 -0.185355
C93   C     C_R   0.002856 0.568271 0.415533 -0.217280
C94   C     C_R   0.997104 0.431792 0.584483 -0.217784
C95   C     C_R   0.498744 0.069388 0.584187 -0.218145
C96   C     C_R   0.501111 0.930580 0.415815 -0.217684
C97   C     C_R   0.987962 0.498566 0.447182 0.078746
C98   C     C_R   0.012099 0.501490 0.552836 0.078982
C99   C     C_R   0.512758 0.999247 0.552898 0.079127
C100  C     C_R   0.487380 0.000754 0.447101 0.078960
C101  C     C_R   0.944490 0.385791 0.440884 0.129386
C102  C     C_R   0.055646 0.614254 0.559134 0.129116
C103  C     C_R   0.554926 0.886296 0.559867 0.128805
C104  C     C_R   0.445460 0.113734 0.440128 0.129075
C105  C     C_R   0.010547 0.537608 0.484681 0.053285
C106  C     C_R   0.989541 0.462445 0.515337 0.053388
C107  C     C_R   0.490258 0.037860 0.515110 0.053205
C108  C     C_R   0.509933 0.962148 0.484888 0.053128
C109  C     C_R   0.948048 0.350713 0.507471 -0.196215
C110  C     C_R   0.052108 0.649333 0.492546 -0.196225
C111  C     C_R   0.550401 0.850363 0.493464 -0.195924
C112  C     C_R   0.449975 0.149667 0.506532 -0.195927
C113  C     C_R   0.926571 0.313576 0.471020 -0.198938
C114  C     C_R   0.073620 0.686464 0.528999 -0.198877
C115  C     C_R   0.571911 0.813628 0.530161 -0.199329
C116  C     C_R   0.428590 0.186415 0.469834 -0.199409
H29   H     H_    0.893550 0.227380 0.466412 0.140548
H30   H     H_    0.106709 0.772651 0.533606 0.140555
H31   H     H_    0.604055 0.727313 0.535305 0.140405
H32   H     H_    0.396647 0.272754 0.464688 0.140368
H33   H     H_    0.966367 0.345167 0.582344 0.097258
H34   H     H_    0.033467 0.654912 0.417673 0.097286
H35   H     H_    0.530317 0.843736 0.418484 0.097113
H36   H     H_    0.469141 0.156187 0.581522 0.097114
H37   H     H_    0.104020 0.612717 0.654210 0.103271
H38   H     H_    0.896149 0.387296 0.345811 0.103848
H39   H     H_    0.398369 0.112001 0.345029 0.102851
H40   H     H_    0.602314 0.888073 0.654960 0.102932
H41   H     H_    0.881067 0.260417 0.399489 0.126858
H42   H     H_    0.119172 0.739606 0.600533 0.126981
H43   H     H_    0.616737 0.760925 0.602004 0.126761
H44   H     H_    0.384080 0.239158 0.397985 0.126408
H45   H     H_    0.929968 0.288764 0.528808 0.129108
H46   H     H_    0.070259 0.711270 0.471208 0.129101
H47   H     H_    0.567636 0.788113 0.472489 0.129589
H48   H     H_    0.432933 0.211940 0.527506 0.129597
S1    S     S_3+6 0.888607 0.324183 0.839848 0.079665
O29   O     O_2   0.994485 0.268047 0.871272 -0.331162
O30   O     O_2   0.708723 0.367659 0.855682 -0.309870
O31   O     O_3   0.834392 0.233647 0.806252 -0.451072
H49   H     H_    0.831451 0.161552 0.819387 0.366660
S2    S     S_3+6 0.757513 0.668274 0.163889 0.038452
O32   O     O_2   0.890801 0.709119 0.134769 -0.314517
O33   O     O_2   0.569289 0.651773 0.145142 -0.343389
O34   O     O_3   0.733260 0.762522 0.197129 -0.455021
H50   H     H_    0.704672 0.831146 0.182996 0.374059
S3    S     S_3+6 0.244750 0.827252 0.172878 0.042250
O35   O     O_2   0.052141 0.854228 0.186859 -0.323717
O36   O     O_2   0.235571 0.800085 0.131870 -0.335421
O37   O     O_3   0.331572 0.719136 0.197370 -0.463473
H51   H     H_    0.261169 0.654656 0.187545 0.372945
S4    S     S_3+6 0.370473 0.197283 0.824719 0.020833
O38   O     O_2   0.178134 0.177988 0.808126 -0.336785
O39   O     O_2   0.358294 0.229591 0.865098 -0.349350
O40   O     O_3   0.474473 0.298403 0.800146 -0.456327
H52   H     H_    0.410873 0.367012 0.808034 0.355767

loop_
_geom_bond_atom_site_label_1
_geom_bond_atom_site_label_2
_ccdc_geom_bond_type
C13   O26   S    
C26   C30   A    
C94   C98   A    
C103  C115  A    
C107  C108  A    
O1    C5    A    
C58   C70   A    
C23   H12   S    
C96   C100  A    
O13   V1    S    
C105  C106  A    
C72   H24   S    
O3    C7    A    
C10   N2    A    
S4    O40   S    
C72   C76   A    
C40   C44   A    
C83   C95   A    
C28   C56   A    
C76   H20   S    
C71   H23   S    
C64   C79   A    
C7    C81   S    
C11   C43   A    
C18   C22   A    
C17   C33   A    
C32   C36   A    
O20   V1    S    
O9    C4    A    
S4    O39   D    
C2    C55   S    
O10   C3    A    
N2    C14   A    
O4    C8    A    
O11   C2    A    
S2    O33   D    
C24   C56   A    
C26   S2    S    
C113  H29   S    
C86   C102  A    
C101  C113  A    
C69   H21   S    
C84   C96   A    
C24   H11   S    
C87   H43   S    
C5    C83   S    
C85   C89   A    
C86   H42   S    
C12   C44   A    
C85   H41   S    
C98   C102  A    
C88   C92   A    
C29   H1    S    
C82   C90   A    
C49   C74   A    
C38   C42   A    
C105  C110  A    
C37   C41   A    
C102  C114  A    
C71   C75   A    
C15   C51   A    
C48   H8    S    
C62   C77   A    
C11   N3    A    
O15   V3    S    
C110  C114  A    
O5    V1    S    
C57   C62   A    
C20   C36   A    
C108  C111  A    
O9    V1    S    
C97   C105  A    
O17   V4    S    
O7    C3    A    
C59   C64   A    
O11   V3    S    
O18   V3    S    
O8    C4    A    
C73   H17   S    
C39   C68   A    
O12   V4    S    
O19   V2    S    
C61   C65   A    
O31   H49   S    
S1    O30   D    
C48   C80   A    
C112  H48   S    
C38   C50   A    
C63   C80   A    
C26   C54   A    
C12   N4    A    
C88   C104  A    
C27   S3    S    
C16   O27   S    
C39   C51   A    
C89   H38   S    
C87   C103  A    
O17   V1    S    
C21   C53   A    
C22   H9    S    
C31   C35   A    
C110  H46   S    
C60   C68   A    
C88   H44   S    
C107  C112  A    
C109  H45   S    
O8    V4    S    
C115  H31   S    
C14   C50   A    
C12   O24   S    
O7    V3    S    
S4    O38   D    
C27   C55   A    
C91   H40   S    
O40   H52   S    
C22   C54   A    
C30   C34   A    
O37   H51   S    
N1    C33   S    
C104  C116  A    
C47   C79   A    
C60   C63   A    
O13   C5    A    
C16   C52   A    
C14   O25   S    
O2    V3    S    
C10   O22   S    
C95   H36   S    
O3    V2    S    
C11   O23   S    
C47   H7    S    
C18   H13   S    
C77   H25   S    
O6    C2    A    
C81   C93   A    
O10   V2    S    
S3    O35   D    
C98   C106  A    
C40   C67   A    
O20   V4    S    
C99   C103  A    
C19   H16   S    
C59   C71   A    
C79   H27   S    
O34   H50   S    
C74   H18   S    
C85   C101  A    
C19   C35   A    
N1    C13   A    
C93   H34   S    
C25   C29   A    
C18   C34   A    
C111  H47   S    
C40   C52   A    
C10   C42   A    
C37   C49   A    
O14   V2    S    
C100  C104  A    
C9    C41   A    
C15   O28   S    
S3    O36   D    
C90   H37   S    
C6    C84   S    
O18   V2    S    
C52   C75   A    
C87   C91   A    
C3    C54   S    
O19   V3    S    
C86   C90   A    
C4    C53   S    
S1    O31   S    
C95   C99   A    
N4    C36   S    
C43   C47   A    
C32   H4    S    
C25   S1    S    
C94   H33   S    
C93   C97   A    
C64   C68   A    
C99   C107  A    
O15   C7    A    
O16   V4    S    
C81   C89   A    
C100  C108  A    
C70   C74   A    
C41   C45   A    
O6    V2    S    
S2    O32   D    
C20   H15   S    
O5    C1    A    
C51   C76   A    
C13   C49   A    
C44   C48   A    
C50   C73   A    
C38   C65   A    
O4    V1    S    
C111  C115  A    
C37   C66   A    
C60   C72   A    
C82   C94   A    
C69   C73   A    
C83   C91   A    
C114  H30   S    
C58   C61   A    
C59   C67   A    
C17   H14   S    
C27   C31   A    
C61   C78   A    
C58   C66   A    
S1    O29   D    
C28   C32   A    
C9    N1    A    
O14   C6    A    
C57   C69   A    
C28   S4    S    
C57   C65   A    
N4    C16   A    
C8    C82   S    
O2    C6    A    
C39   C43   A    
S2    O34   S    
C75   H19   S    
C46   H6    S    
C17   C21   A    
C30   H2    S    
C1    C56   S    
C45   H5    S    
C25   C53   A    
C62   C66   A    
C19   C23   A    
O1    V4    S    
C29   C33   A    
C23   C55   A    
C46   C78   A    
C9    O21   S    
C45   C77   A    
C21   H10   S    
C70   H22   S    
C92   H39   S    
C116  H32   S    
C112  C116  A    
S3    O37   S    
O12   C1    A    
N3    C35   S    
C42   C46   A    
C31   H3    S    
N2    C34   S    
C78   H26   S    
C80   H28   S    
C63   C67   A    
C84   C92   A    
C96   H35   S    
C109  C113  A    
N3    C15   A    
O16   C8    A    
C97   C101  A    
C20   C24   A    
C106  C109  A    
