data_mof_unit_433.cif
_audit_creation_date              2012-10-26T18:53:54-0400
_audit_creation_method            fapswitch 2.2
_symmetry_space_group_name_H-M    P1
_symmetry_Int_Tables_number       1
_space_group_crystal_system       triclinic
_cell_length_a                    14.706845
_cell_length_b                    14.674027
_cell_length_c                    17.349037
_cell_angle_alpha                 105.870645
_cell_angle_beta                  73.139144
_cell_angle_gamma                 115.028624
_cell_volume                      3197.21325072

loop_
_atom_site_label
_atom_site_type_symbol
_atom_type_description
_atom_site_fract_x
_atom_site_fract_y
_atom_site_fract_z
_atom_type_partial_charge
C1    C     C_R   0.118707 0.688326 0.514395 0.551737
C2    C     C_R   0.709263 0.177062 0.493644 -0.151570
C3    C     C_R   0.357074 0.925779 0.530097 -0.007758
C4    C     C_R   0.638155 0.080683 0.509589 -0.006971
C5    C     C_R   0.317690 0.002764 0.541631 0.053711
C6    C     C_R   0.675753 0.006925 0.511534 0.057614
C7    C     C_R   0.463014 0.953133 0.526857 0.039148
C8    C     C_R   0.530826 0.055823 0.523149 0.038219
C9    C     C_R   0.488935 0.130854 0.535848 -0.152088
C10   C     C_R   0.502861 0.881718 0.529293 -0.151587
C11   C     C_R   0.384368 0.104802 0.546335 -0.122941
C12   C     C_R   0.881214 0.311780 0.487238 0.552516
C13   C     C_R   0.606878 0.908670 0.522925 -0.120441
C14   C     C_R   0.292053 0.324532 0.366598 -0.167292
C15   C     C_R   0.708768 0.676509 0.632472 -0.154157
C16   C     C_R   0.988852 0.501973 0.652403 0.549929
C17   C     C_R   0.011351 0.498379 0.347639 0.546509
C18   C     C_R   0.210270 0.356542 0.386094 0.031715
C19   C     C_R   0.790710 0.644711 0.612771 0.035581
C20   C     C_R   0.286486 0.491513 0.487453 0.032524
C21   C     C_R   0.712761 0.507552 0.513430 0.030524
C22   C     C_R   0.372931 0.463527 0.469948 0.001283
C23   C     C_R   0.185375 0.796898 0.525039 -0.050938
C24   C     C_R   0.626225 0.535429 0.531069 -0.001510
C25   C     C_R   0.373072 0.377038 0.408653 0.037868
C26   C     C_R   0.626637 0.622614 0.591713 0.036529
C27   C     C_R   0.457955 0.516955 0.511019 0.023864
C28   C     C_R   0.540789 0.481484 0.490484 0.022164
C29   C     C_R   0.535199 0.393268 0.430281 -0.146031
C30   C     C_R   0.463298 0.604875 0.571495 -0.147404
C31   C     C_R   0.453404 0.342805 0.390097 -0.132436
C32   C     C_R   0.545715 0.656129 0.610934 -0.133125
C33   C     C_R   0.981034 0.498881 0.737533 0.015276
C34   C     C_R   0.813670 0.204313 0.488138 -0.047569
C35   C     C_R   0.020069 0.503053 0.262716 0.014078
C36   C     C_R   0.046779 0.465877 0.757260 -0.129290
C37   C     C_R   0.955804 0.538338 0.243417 -0.135715
C38   C     C_R   0.039545 0.462248 0.837906 -0.104934
C39   C     C_R   0.964222 0.543961 0.163029 -0.110592
C40   C     C_R   0.967257 0.492898 0.900082 0.042913
C41   C     C_R   0.036230 0.513103 0.100698 0.043352
C42   C     C_R   0.899668 0.523133 0.880331 -0.114655
C43   C     C_R   0.102472 0.480730 0.120055 -0.115463
C44   C     C_R   0.906711 0.526601 0.799446 -0.126198
C45   C     C_R   0.212128 0.976291 0.547323 0.259890
C46   C     C_R   0.094231 0.475233 0.200681 -0.129527
C47   C     C_2   0.960600 0.493814 0.986037 -0.134168
C48   C     C_2   0.043347 0.513334 0.014910 -0.134920
C49   C     C_3   0.160853 0.062675 0.489094 -0.022109
C50   C     C_3   0.124174 0.149952 0.505416 -0.350475
C51   C     C_3   0.864736 0.924038 0.434880 -0.025480
C52   C     C_3   0.880700 0.831236 0.442648 -0.363514
C53   C     C_R   0.781854 0.032608 0.502198 0.257947
C54   C     C_R   0.146308 0.873599 0.541063 -0.119882
C55   C     C_R   0.849968 0.131963 0.492084 -0.123349
C56   C     C_R   0.289848 0.823391 0.519220 -0.155929
Cu1   Cu    Cu3+1 0.916740 0.524770 0.521640 0.928072
Cu2   Cu    Cu3+1 0.083260 0.475230 0.478360 0.926238
H1    H     H_    0.103475 0.442216 0.710432 0.130438
H2    H     H_    0.146988 0.315013 0.354556 0.121181
H3    H     H_    0.291346 0.258261 0.319538 0.086893
H4    H     H_    0.710000 0.743448 0.678895 0.105986
H5    H     H_    0.593150 0.360807 0.412592 0.090016
H6    H     H_    0.404801 0.636669 0.589808 0.088368
H7    H     H_    0.145371 0.448727 0.214273 0.126736
H8    H     H_    0.854500 0.551460 0.785560 0.128445
H9    H     H_    0.117844 0.526593 0.974470 0.116684
H10   H     H_    0.886129 0.480513 0.026543 0.117123
H11   H     H_    0.842764 0.545855 0.927699 0.102328
H12   H     H_    0.899406 0.562300 0.290390 0.125317
H13   H     H_    0.159102 0.457747 0.072544 0.103770
H14   H     H_    0.914966 0.573281 0.150086 0.101604
H15   H     H_    0.089837 0.434439 0.851112 0.107721
H16   H     H_    0.356267 0.165341 0.556407 0.158794
H17   H     H_    0.633233 0.851207 0.525799 0.160259
H18   H     H_    0.685238 0.232809 0.484901 0.123631
H19   H     H_    0.317909 0.762422 0.503581 0.132093
H20   H     H_    0.930504 0.153116 0.489654 0.124815
H21   H     H_    0.065147 0.854186 0.547240 0.131984
H22   H     H_    0.103161 0.991930 0.461897 0.125623
H23   H     H_    0.534658 0.211416 0.541204 0.109407
H24   H     H_    0.235177 0.081369 0.444313 0.121544
H25   H     H_    0.182643 0.222744 0.528884 0.163917
H26   H     H_    0.111164 0.157220 0.447845 0.082691
H27   H     H_    0.051331 0.134815 0.551392 0.181340
H28   H     H_    0.940632 0.982216 0.413584 0.121601
H29   H     H_    0.816368 0.898973 0.388239 0.124134
H30   H     H_    0.805515 0.770425 0.460760 0.162711
H31   H     H_    0.921344 0.801153 0.383173 0.092248
H32   H     H_    0.926989 0.852548 0.489745 0.161788
H33   H     H_    0.454947 0.804963 0.539436 0.100305
H34   H     H_    0.452933 0.275751 0.343959 0.106163
H35   H     H_    0.546290 0.723360 0.656891 0.114452
H36   H     H_    0.720463 0.444382 0.466577 0.117056
H37   H     H_    0.278254 0.554046 0.534845 0.117357
H38   H     H_    0.854670 0.687095 0.643486 0.127625
N1    N     N_R   0.208390 0.438070 0.445820 -0.232877
N2    N     N_R   0.791610 0.561930 0.554180 -0.235007
O1    O     O_R   0.020090 0.662480 0.528530 -0.508772
O2    O     O_3   0.817426 0.963791 0.511999 -0.565748
O3    O     O_R   0.979910 0.337520 0.471470 -0.508817
O4    O     O_R   0.160710 0.620650 0.491980 -0.506244
O5    O     O_R   0.839290 0.379350 0.508020 -0.504195
O6    O     O_R   0.921540 0.523360 0.633990 -0.503539
O7    O     O_R   0.078460 0.476640 0.366010 -0.504849
O8    O     O_R   0.062170 0.481520 0.597440 -0.510521
O9    O     O_R   0.937830 0.518480 0.402560 -0.511363
O10   O     O_3   0.172124 0.051076 0.563517 -0.561397

loop_
_geom_bond_atom_site_label_1
_geom_bond_atom_site_label_2
_ccdc_geom_bond_type
C25   C31   A    
C40   C47   S    
C38   C40   A    
C29   H5    S    
C26   C32   A    
C30   H6    S    
C7    C10   A    
C14   C18   A    
C44   H8    S    
C4    C8    A    
C36   H1    S    
C1    O1    A    
C50   H26   S    
C7    C8    A    
C39   C41   A    
C15   C19   A    
C28   C29   A    
C35   C37   A    
C24   C26   A    
C5    C11   A    
C3    C7    A    
C17   O9    A    
C21   H36   S    
Cu1   O1    S    
C33   C36   A    
C49   C50   S    
C50   H27   S    
C52   H32   S    
C16   O6    A    
C20   N1    A    
C13   H17   S    
C8    C9    A    
C22   C25   A    
C39   H14   S    
Cu2   O4    S    
C18   N1    A    
C45   O10   S    
C16   O8    A    
C2    C34   A    
C40   C42   A    
C32   H35   S    
C34   C55   A    
C48   H9    S    
C37   H12   S    
C27   C30   A    
C41   C43   A    
C52   H31   S    
Cu2   N1    S    
C42   C44   A    
C51   H28   S    
C19   N2    A    
C50   H25   S    
C49   O10   S    
C53   C55   A    
C53   O2    S    
Cu1   O5    S    
C51   C52   S    
C52   H30   S    
C12   O5    A    
C4    C6    A    
C51   H29   S    
C55   H20   S    
C15   C26   A    
C14   H3    S    
C5    C45   A    
C10   C13   A    
C42   H11   S    
C56   H19   S    
Cu2   O8    S    
C49   H24   S    
C2    C4    A    
C17   O7    A    
C16   C33   S    
C3    C56   A    
C47   C48   D    
Cu2   O3    S    
C9    C11   A    
C23   C56   A    
C46   H7    S    
C15   H4    S    
C18   H2    S    
Cu1   O9    S    
C20   H37   S    
C20   C22   A    
C45   C54   A    
C1    C23   S    
C22   C27   A    
C6    C53   A    
C12   C34   S    
C47   H10   S    
C2    H18   S    
C23   C54   A    
C54   H21   S    
C51   O2    S    
Cu1   O6    S    
C43   H13   S    
C33   C44   A    
C24   C28   A    
C3    C5    A    
C11   H16   S    
C10   H33   S    
C49   H22   S    
Cu2   O7    S    
C36   C38   A    
C12   O3    A    
C37   C39   A    
C6    C13   A    
C30   C32   A    
C21   N2    A    
Cu1   Cu2   S    
Cu1   N2    S    
C41   C48   S    
C14   C25   A    
C43   C46   A    
C29   C31   A    
C31   H34   S    
C21   C24   A    
C27   C28   A    
C17   C35   S    
C35   C46   A    
C1    O4    A    
C19   H38   S    
C9    H23   S    
C38   H15   S    
