data_mof_unit_2619.cif
_audit_creation_date              2013-03-05T16:10:46-0500
_audit_creation_method            fapswitch 2.2
_symmetry_space_group_name_H-M    P1
_symmetry_Int_Tables_number       1
_space_group_crystal_system       triclinic
_cell_length_a                    22.360318
_cell_length_b                    7.088596
_cell_length_c                    19.563711
_cell_angle_alpha                 89.940273
_cell_angle_beta                  99.189728
_cell_angle_gamma                 89.842734
_cell_volume                      3061.09653451

loop_
_atom_site_label
_atom_site_type_symbol
_atom_site_description
_atom_site_fract_x
_atom_site_fract_y
_atom_site_fract_z
_atom_type_partial_charge
O1    O     O_R   0.443980 0.494320 0.557430 -0.583920
O2    O     O_R   0.556020 0.994320 0.442570 -0.584008
O3    O     O_R   0.441210 0.822520 0.414610 -0.593242
O4    O     O_R   0.558790 0.322520 0.585390 -0.591264
C1    C     C_R   0.426578 0.654989 0.389251 0.973800
C2    C     C_R   0.573567 0.154392 0.610455 0.971826
O5    O     O_R   0.436920 0.823940 0.555180 -0.575603
O6    O     O_R   0.563080 0.323940 0.444820 -0.575473
O7    O     O_R   0.551700 0.995760 0.584140 -0.584347
O8    O     O_R   0.448300 0.495760 0.415860 -0.583734
C3    C     C_R   0.421504 0.655560 0.574756 0.960822
C4    C     C_R   0.578494 0.155361 0.425259 0.958982
O9    O     O_3   0.537660 0.661290 0.509340 -0.268650
O10   O     O_3   0.462340 0.161290 0.490660 -0.269952
V1    V     V_3+5 0.493010 0.935560 0.498270 1.241018
V2    V     V_3+5 0.506990 0.435560 0.501730 1.241942
H1    H     H_    0.683550 0.847991 0.263461 0.183085
H2    H     H_    0.317151 0.348064 0.736778 0.183344
C5    C     C_R   0.757122 0.949359 0.215306 -0.077184
C6    C     C_R   0.243642 0.449406 0.785259 -0.071623
H3    H     H_    0.760164 0.819449 0.186917 0.150239
H4    H     H_    0.240835 0.319258 0.813648 0.149856
C7    C     C_R   0.796529 0.098840 0.208346 0.096844
C8    C     C_R   0.204107 0.599044 0.792408 0.096911
C9    C     C_R   0.791615 0.265463 0.245719 -0.269222
C10   C     C_R   0.208715 0.765971 0.755025 -0.273395
H5    H     H_    0.821828 0.381483 0.239786 0.172576
H6    H     H_    0.178399 0.882097 0.761099 0.172379
C11   C     C_R   0.747583 0.285289 0.289798 0.359846
C12   C     C_R   0.252574 0.785959 0.710758 0.362841
C13   C     C_R   0.707991 0.132203 0.296667 -0.039195
C14   C     C_R   0.292303 0.632715 0.703707 -0.040125
C15   C     C_R   0.713375 0.965978 0.258986 -0.104817
C16   C     C_R   0.287218 0.466176 0.741392 -0.105716
C17   C     C_1   0.841592 0.082788 0.162391 0.059396
C18   C     C_1   0.159220 0.582851 0.838564 0.061902
C19   C     C_1   0.662505 0.139682 0.342556 0.170774
C20   C     C_1   0.337651 0.640340 0.657654 0.171278
C21   C     C_1   0.624367 0.146442 0.380452 -0.187508
C22   C     C_1   0.375698 0.647045 0.619649 -0.187538
C23   C     C_1   0.879132 0.071683 0.123880 -0.171836
C24   C     C_1   0.121801 0.571714 0.877217 -0.186796
C25   C     C_R   0.624147 0.050808 0.798468 0.381467
C26   C     C_R   0.375477 0.548378 0.201470 0.378261
H7    H     H_    0.539091 0.079872 0.730653 0.161172
H8    H     H_    0.460790 0.580886 0.268523 0.162861
H9    H     H_    0.704344 0.036758 0.914896 0.210840
H10   H     H_    0.295688 0.428271 0.094551 0.213897
C27   C     C_R   0.613719 0.138533 0.677440 -0.177486
C28   C     C_R   0.386398 0.640329 0.322009 -0.180819
C29   C     C_R   0.908680 0.086018 0.763947 -0.226489
C30   C     C_R   0.091678 0.621491 0.233651 -0.213451
C31   C     C_R   0.873718 0.075000 0.698884 -0.133423
C32   C     C_R   0.125807 0.626789 0.299260 -0.140923
C33   C     C_R   0.810712 0.057925 0.690924 0.338218
C34   C     C_R   0.188354 0.595667 0.309351 0.336532
C35   C     C_R   0.780673 0.073914 0.749869 -0.057323
C36   C     C_R   0.218984 0.578675 0.250892 -0.050457
C37   C     C_R   0.817265 0.070561 0.817609 -0.081914
C38   C     C_R   0.182520 0.543558 0.184418 -0.073283
C39   C     C_R   0.715667 0.088756 0.744085 0.101418
C40   C     C_R   0.284084 0.591099 0.256078 0.100440
C41   C     C_R   0.688119 0.057443 0.803692 -0.075886
C42   C     C_R   0.311518 0.544249 0.197491 -0.073918
C43   C     C_R   0.724532 0.044641 0.868246 -0.166559
C44   C     C_R   0.275227 0.483451 0.136927 -0.175351
C45   C     C_R   0.787186 0.059804 0.876047 0.327062
C46   C     C_R   0.212321 0.481082 0.129686 0.297884
C47   C     C_R   0.677031 0.141812 0.682001 -0.117921
C48   C     C_R   0.323123 0.652837 0.316715 -0.128309
C49   C     C_R   0.587944 0.090239 0.735217 -0.248711
C50   C     C_R   0.411907 0.588005 0.264499 -0.249283
C51   C     C_R   0.882249 0.075106 0.823770 -0.149518
C52   C     C_R   0.117983 0.572090 0.176073 -0.138537
H11   H     H_    0.694941 0.188005 0.636777 0.150244
H12   H     H_    0.305899 0.709207 0.360848 0.155289
H13   H     H_    0.957538 0.092185 0.767655 0.133697
H14   H     H_    0.043253 0.645752 0.228317 0.134282
H15   H     H_    0.896544 0.067138 0.654127 0.176795
H16   H     H_    0.102567 0.645997 0.343277 0.177883
O11   O     O_R   0.051730 0.724670 0.084120 -0.595896
O12   O     O_R   0.948270 0.224670 0.915880 -0.579942
O13   O     O_R   0.063080 0.393540 0.944820 -0.563505
O14   O     O_R   0.936920 0.893540 0.055180 -0.575549
C53   C     C_R   0.077150 0.561920 0.923593 1.000093
C54   C     C_R   0.923829 0.061759 0.077537 1.046356
O15   O     O_R   0.058800 0.395030 0.085390 -0.559739
O16   O     O_R   0.941200 0.895030 0.914610 -0.589064
O17   O     O_R   0.943980 0.223310 0.057440 -0.575363
O18   O     O_R   0.056020 0.723310 0.942560 -0.601679
C55   C     C_R   0.075608 0.563693 0.109121 0.947538
C56   C     C_R   0.925404 0.064443 0.890075 0.981526
O19   O     O_3   0.962360 0.556290 0.990650 -0.262594
O20   O     O_3   0.037640 0.056290 0.009350 -0.256609
V3    V     V_3+5 0.006980 0.281990 0.001730 1.275784
V4    V     V_3+5 0.993020 0.781990 0.998270 1.245349
N1    N     N_R   0.779905 0.996606 0.624623 0.219555
O21   O     O_R   0.744231 0.850866 0.620664 -0.380388
O22   O     O_R   0.795176 0.064474 0.568041 -0.365241
N2    N     N_R   0.217366 0.552495 0.378503 0.219427
O23   O     O_R   0.250783 0.401599 0.390042 -0.377841
O24   O     O_R   0.202560 0.644376 0.430920 -0.363067
N3    N     N_R   0.818411 0.070738 0.945125 0.194393
O25   O     O_R   0.830700 0.237476 0.971211 -0.407415
O26   O     O_R   0.813364 0.930164 0.986600 -0.409462
N4    N     N_R   0.181105 0.389063 0.069531 0.214900
O27   O     O_R   0.161180 0.218998 0.076547 -0.363816
O28   O     O_R   0.193483 0.438818 0.009378 -0.428333
N5    N     N_R   0.744251 0.460257 0.326673 0.238343
O29   O     O_R   0.693901 0.515637 0.345736 -0.403167
O30   O     O_R   0.790675 0.572961 0.336809 -0.379309
N6    N     N_R   0.255593 0.961251 0.673890 0.239262
O31   O     O_R   0.305763 0.016358 0.654512 -0.402534
O32   O     O_R   0.209070 0.074452 0.664054 -0.378170
N7    N     N_R   0.595111 0.997868 0.856100 0.236130
O33   O     O_R   0.612101 0.845628 0.891221 -0.349220
O34   O     O_R   0.545121 0.081024 0.865542 -0.334105
N8    N     N_R   0.404335 0.511579 0.142212 0.236956
O35   O     O_R   0.387916 0.605520 0.085076 -0.339077
O36   O     O_R   0.453816 0.411498 0.149027 -0.347722

loop_
_geom_bond_atom_site_label_1
_geom_bond_atom_site_label_2
_geom_bond_distance
_ccdc_geom_bond_type
C36   C40   1.445876 A    
C44   C46   1.391154 A    
O16   V4    2.012436 S    
O4    V2    2.012237 S    
O15   C55   1.316857 A    
H7    C49   1.084407 S    
C18   C24   1.216749 T    
O1    C3    1.313739 A    
O2    C4    1.314183 A    
C2    O7    1.300922 A    
C41   C43   1.391783 A    
N1    O21   1.301738 A    
C25   C41   1.418626 A    
C26   C42   1.420168 A    
O5    C3    1.316666 A    
C23   C54   1.454323 S    
C8    C18   1.458017 S    
C46   N4    1.428078 S    
C11   N5    1.443192 S    
C31   H15   1.083057 S    
C8    C10   1.403061 A    
C30   C52   1.395982 A    
N5    O30   1.301638 A    
C35   C37   1.442150 A    
N4    O27   1.301052 A    
C36   C38   1.442613 A    
N7    O33   1.301484 A    
O12   C56   1.314624 A    
C40   C48   1.425903 A    
O14   V4    1.969997 S    
C39   C41   1.420617 A    
C28   C50   1.390489 A    
N8    O35   1.301428 A    
C40   C42   1.422865 A    
C37   C45   1.418065 A    
C6    C8    1.400291 A    
N7    O34   1.301378 A    
O15   V3    2.016322 S    
C13   C15   1.405598 A    
C26   C50   1.394304 A    
C14   C20   1.461115 S    
C37   C51   1.439194 A    
C25   N7    1.438006 S    
H8    C50   1.084295 S    
C6    C16   1.402719 A    
O6    V2    1.970033 S    
O5    V1    1.971867 S    
O19   V3    2.177733 S    
C20   C22   1.216977 T    
C27   C47   1.404448 A    
C3    C22   1.453131 S    
H1    C15   1.083261 S    
C30   H14   1.084313 S    
N6    O32   1.301640 A    
N6    O31   1.301045 A    
N1    O22   1.301511 A    
C30   C32   1.385176 A    
C32   H16   1.083020 S    
C31   C33   1.398084 A    
C9    C11   1.415443 A    
C32   C34   1.397735 A    
C45   N3    1.420895 S    
O16   C56   1.318952 A    
O4    C2    1.309530 A    
C5    C15   1.402709 A    
C24   C53   1.454102 S    
O11   V4    2.000186 S    
C43   C45   1.389287 A    
O18   V4    1.957922 S    
C13   C19   1.461073 S    
C12   N6    1.443237 S    
C29   C31   1.385687 A    
C14   C16   1.405635 A    
C52   C55   1.490320 S    
O17   V3    1.959077 S    
C5    C7    1.400305 A    
C29   H13   1.084282 S    
C26   N8    1.437729 S    
O6    C4    1.316835 A    
O13   V3    1.971829 S    
C33   N1    1.436435 S    
N2    O24   1.301551 A    
N3    O26   1.300865 A    
O1    V2    1.958091 S    
O20   V4    2.183020 S    
O2    V1    1.959251 S    
H2    C16   1.083269 S    
O13   C53   1.318642 A    
C6    H4    1.083467 S    
C10   C12   1.415490 A    
O19   V4    1.739474 S    
C7    C17   1.457914 S    
C33   C35   1.428651 A    
C48   H12   1.076825 S    
C1    C28   1.473706 S    
C34   N2    1.436134 S    
O3    V1    2.016124 S    
C39   C47   1.423079 A    
C25   C49   1.393828 A    
O12   V3    2.002357 S    
C5    H3    1.083466 S    
C29   C51   1.394984 A    
C51   C56   1.489669 S    
O14   C54   1.318691 A    
O3    C1    1.309575 A    
C54   O17   1.314346 A    
C53   O18   1.312875 A    
C35   C39   1.443376 A    
C9    H5    1.083575 S    
C10   H6    1.083570 S    
C4    C21   1.453090 S    
C28   C48   1.404588 A    
C1    O8    1.302266 A    
C19   C21   1.216950 T    
O8    V2    2.004431 S    
N5    O29   1.301051 A    
C12   C14   1.422108 A    
N4    O28   1.299852 A    
C38   C52   1.439831 A    
N2    O23   1.301789 A    
C34   C36   1.428841 A    
C47   H11   1.078738 S    
C7    C9    1.403015 A    
C2    C27   1.469481 S    
O7    V1    2.006708 S    
O20   V3    1.735722 S    
C17   C23   1.216621 T    
N8    O36   1.301387 A    
O11   C55   1.318514 A    
C38   C46   1.419134 A    
C11   C13   1.422091 A    
C27   C49   1.391174 A    
O9    V2    1.739749 S    
N3    O25   1.300456 A    
O10   V1    1.735998 S    
H10   C44   1.081865 S    
H9    C43   1.082336 S    
C42   C44   1.394291 A    
