data_mof_unit_4114.cif
_audit_creation_date              2012-12-11T16:03:50-0500
_audit_creation_method            fapswitch 2.2
_symmetry_space_group_name_H-M    P1
_symmetry_Int_Tables_number       1
_space_group_crystal_system       triclinic
_cell_length_a                    6.93642
_cell_length_b                    18.934764
_cell_length_c                    20.637616
_cell_angle_alpha                 89.999982
_cell_angle_beta                  90.000274
_cell_angle_gamma                 90.000043
_cell_volume                      2710.53366521

loop_
_atom_site_label
_atom_site_type_symbol
_atom_type_description
_atom_site_fract_x
_atom_site_fract_y
_atom_site_fract_z
_atom_type_partial_charge
O1    O     O_R   0.708090 0.813600 0.184050 -0.535688
O2    O     O_R   0.291910 0.186400 0.815950 -0.536391
O3    O     O_R   0.291910 0.186400 0.684050 -0.535689
O4    O     O_R   0.708090 0.813600 0.315950 -0.536390
O5    O     O_R   0.208090 0.686400 0.315950 -0.535689
O6    O     O_R   0.791910 0.313600 0.684050 -0.536389
O7    O     O_R   0.791910 0.313600 0.815950 -0.535689
O8    O     O_R   0.208090 0.686400 0.184050 -0.536390
O9    O     O_R   0.378340 0.821960 0.315500 -0.535152
O10   O     O_R   0.621660 0.178040 0.684500 -0.536758
O11   O     O_R   0.621660 0.178040 0.815500 -0.535153
O12   O     O_R   0.378340 0.821960 0.184500 -0.536758
O13   O     O_R   0.878340 0.678040 0.184500 -0.535153
O14   O     O_R   0.121660 0.321960 0.815500 -0.536759
O15   O     O_R   0.121660 0.321960 0.684500 -0.535152
O16   O     O_R   0.878340 0.678040 0.315500 -0.536758
C1    C     C_R   0.546737 0.839375 0.337619 0.731077
C2    C     C_R   0.453249 0.160707 0.662337 0.731055
C3    C     C_R   0.453263 0.160625 0.837619 0.731080
C4    C     C_R   0.546751 0.839293 0.162337 0.731053
C5    C     C_R   0.046736 0.660625 0.162381 0.731078
C6    C     C_R   0.953249 0.339293 0.837663 0.731050
C7    C     C_R   0.953263 0.339375 0.662381 0.731076
C8    C     C_R   0.046751 0.660707 0.337663 0.731050
O17   O     O_3   0.541560 0.705520 0.250000 -0.367689
O18   O     O_3   0.458440 0.294480 0.750000 -0.367689
O19   O     O_3   0.041560 0.794480 0.250000 -0.367688
O20   O     O_3   0.958440 0.205520 0.750000 -0.367688
V1    V     V_3+5 0.266720 0.758250 0.250000 1.427433
V2    V     V_3+5 0.733280 0.241750 0.750000 1.427434
V3    V     V_3+5 0.766720 0.741750 0.250000 1.427432
V4    V     V_3+5 0.233280 0.258250 0.750000 1.427431
C9    C     C_1   0.946441 0.393948 0.612791 -0.192136
C10   C     C_1   0.053779 0.606740 0.387751 -0.197497
C11   C     C_1   0.053556 0.606052 0.112791 -0.192129
C12   C     C_1   0.946224 0.393260 0.887751 -0.197499
C13   C     C_1   0.446443 0.106052 0.887209 -0.192113
C14   C     C_1   0.553776 0.893261 0.112250 -0.197515
C15   C     C_1   0.553559 0.893949 0.387208 -0.192122
C16   C     C_1   0.446222 0.106739 0.612249 -0.197507
C17   C     C_2   0.935427 0.499873 0.525463 0.326108
C18   C     C_2   0.067440 0.503015 0.476934 0.347133
C19   C     C_2   0.064569 0.500125 0.025465 0.326102
C20   C     C_2   0.932569 0.496987 0.976932 0.347134
C21   C     C_2   0.435437 0.000124 0.974534 0.326069
C22   C     C_2   0.567413 0.996993 0.023075 0.347131
C23   C     C_2   0.564568 0.999876 0.474535 0.326081
C24   C     C_2   0.432576 0.003010 0.523070 0.347132
C25   C     C_1   0.058185 0.560552 0.428761 -0.038135
C26   C     C_1   0.942969 0.440894 0.572468 -0.069698
C27   C     C_1   0.941821 0.439447 0.928761 -0.038118
C28   C     C_1   0.057026 0.559105 0.072469 -0.069712
C29   C     C_1   0.558174 0.939451 0.071241 -0.038062
C30   C     C_1   0.442973 0.059105 0.927531 -0.069741
C31   C     C_1   0.441821 0.060551 0.571240 -0.038091
C32   C     C_1   0.557029 0.940896 0.427531 -0.069729
O21   O     O_3   0.198786 0.447472 0.470571 -0.585191
C33   C     C_3   0.379543 0.469646 0.445826 0.089091
H1    H     H_    0.492964 0.439337 0.471721 0.145652
H2    H     H_    0.411608 0.526359 0.455192 0.121886
C34   C     C_3   0.395992 0.452720 0.373464 -0.312891
H3    H     H_    0.381860 0.394786 0.366201 0.201215
H4    H     H_    0.278393 0.479125 0.346184 0.192328
C35   C     C_3   0.589627 0.477286 0.346403 -0.811203
H5    H     H_    0.604787 0.535400 0.351915 0.241407
H6    H     H_    0.598583 0.464019 0.294106 0.221957
H7    H     H_    0.710113 0.450691 0.372161 0.234564
O22   O     O_3   0.800806 0.554845 0.529987 -0.585755
C36   C     C_3   0.668922 0.546088 0.581584 0.060993
H8    H     H_    0.746462 0.544960 0.628854 0.127997
H9    H     H_    0.585173 0.496411 0.575115 0.126666
C37   C     C_3   0.528891 0.608446 0.582327 -0.278148
H10   H     H_    0.609425 0.657733 0.593442 0.199687
H11   H     H_    0.461223 0.614584 0.533893 0.194337
C38   C     C_3   0.370593 0.598020 0.632789 -0.837441
H12   H     H_    0.285617 0.549756 0.621730 0.234261
H13   H     H_    0.271873 0.644176 0.632243 0.237861
H14   H     H_    0.434562 0.593172 0.681913 0.227078
O23   O     O_3   0.801246 0.552536 0.970561 -0.585189
C39   C     C_3   0.620492 0.530371 0.945806 0.089076
H15   H     H_    0.507072 0.560688 0.971693 0.145626
H16   H     H_    0.588400 0.473661 0.955174 0.121874
C40   C     C_3   0.604084 0.547292 0.873442 -0.312882
H17   H     H_    0.618227 0.605226 0.866177 0.201213
H18   H     H_    0.721693 0.520884 0.846171 0.192331
C41   C     C_3   0.410460 0.522728 0.846372 -0.811254
H19   H     H_    0.395292 0.464615 0.851886 0.241402
H20   H     H_    0.401532 0.535992 0.794074 0.221975
H21   H     H_    0.289965 0.549326 0.872121 0.234565
O24   O     O_3   0.199156 0.445143 0.030001 -0.585740
C42   C     C_3   0.331141 0.453933 0.081569 0.061028
H22   H     H_    0.253690 0.455081 0.128856 0.128000
H23   H     H_    0.414864 0.503611 0.075061 0.126638
C43   C     C_3   0.471197 0.391582 0.082308 -0.278160
H24   H     H_    0.390700 0.342296 0.093461 0.199680
H25   H     H_    0.538772 0.385424 0.033860 0.194334
C44   C     C_3   0.629596 0.402043 0.132730 -0.837349
H26   H     H_    0.714540 0.450306 0.121630 0.234259
H27   H     H_    0.728329 0.355891 0.132182 0.237863
H28   H     H_    0.565725 0.406916 0.181868 0.227056
O25   O     O_3   0.698692 0.052554 0.029460 -0.585184
C45   C     C_3   0.879469 0.030396 0.054198 0.089033
H29   H     H_    0.992859 0.060732 0.028316 0.145592
H30   H     H_    0.911591 0.973691 0.044812 0.121867
C46   C     C_3   0.895900 0.047293 0.126567 -0.312847
H31   H     H_    0.881727 0.105224 0.133850 0.201212
H32   H     H_    0.778319 0.020867 0.153836 0.192332
C47   C     C_3   0.089549 0.022734 0.153620 -0.811263
H33   H     H_    0.104748 0.964624 0.148089 0.241398
H34   H     H_    0.098492 0.035981 0.205922 0.221960
H35   H     H_    0.210018 0.049351 0.127873 0.234565
O26   O     O_3   0.300906 0.945125 0.969981 -0.585725
C48   C     C_3   0.168823 0.953942 0.918448 0.061069
H36   H     H_    0.246180 0.955115 0.871145 0.127994
H37   H     H_    0.085117 0.003617 0.924995 0.126615
C49   C     C_3   0.028768 0.891590 0.917713 -0.278204
H38   H     H_    0.109223 0.842318 0.906474 0.199643
H39   H     H_    0.961393 0.885375 0.966187 0.194380
C50   C     C_3   0.870159 0.902110 0.867374 -0.837282
H40   H     H_    0.785246 0.950353 0.878567 0.234270
H41   H     H_    0.771442 0.855952 0.867916 0.237871
H42   H     H_    0.933828 0.907049 0.818212 0.227037
O27   O     O_3   0.301271 0.947457 0.529446 -0.585187
C51   C     C_3   0.120504 0.969620 0.554190 0.089047
H43   H     H_    0.007099 0.939295 0.528303 0.145615
H44   H     H_    0.088403 0.026328 0.544815 0.121878
C52   C     C_3   0.104077 0.952707 0.626556 -0.312859
H45   H     H_    0.118235 0.894775 0.633828 0.201214
H46   H     H_    0.221669 0.979124 0.653828 0.192331
C53   C     C_3   0.910437 0.977268 0.653615 -0.811245
H47   H     H_    0.895255 0.035379 0.648096 0.241401
H48   H     H_    0.901494 0.964009 0.705914 0.221948
H49   H     H_    0.789958 0.950662 0.627864 0.234564
O28   O     O_3   0.699135 0.054864 0.469994 -0.585735
C54   C     C_3   0.831148 0.046067 0.418438 0.061040
H50   H     H_    0.753726 0.044913 0.371146 0.127990
H51   H     H_    0.914864 0.996391 0.424957 0.126637
C55   C     C_3   0.971200 0.108420 0.417702 -0.278167
H52   H     H_    0.890722 0.157699 0.406504 0.199647
H53   H     H_    0.038671 0.114609 0.466164 0.194359
C56   C     C_3   0.129710 0.097929 0.367323 -0.837307
H54   H     H_    0.214643 0.049677 0.378473 0.234260
H55   H     H_    0.228431 0.144086 0.367867 0.237864
H56   H     H_    0.065944 0.093020 0.318172 0.227044

loop_
_geom_bond_atom_site_label_1
_geom_bond_atom_site_label_2
_ccdc_geom_bond_type
O17   V3    S    
C24   C31   S    
O18   V4    S    
O25   C45   S    
O12   V1    S    
O19   V1    S    
C17   C18   D    
C38   H12   S    
C44   H28   S    
C24   O27   S    
C44   H26   S    
O24   C42   S    
C21   O26   S    
O27   C51   S    
C21   C22   D    
C49   H38   S    
O16   V3    S    
C46   H32   S    
O11   C3    A    
O3    C2    A    
O8    V1    S    
C51   H44   S    
C56   H55   S    
C45   H30   S    
C41   H20   S    
C19   C28   S    
C33   H2    S    
O1    V3    S    
C47   H33   S    
C45   C46   S    
O2    V4    S    
C1    C15   S    
C36   H9    S    
C2    C16   S    
C3    C13   S    
C23   C24   D    
O11   V2    S    
C49   H39   S    
O22   C36   S    
C7    C9    S    
C34   H3    S    
O9    V1    S    
C48   C49   S    
C33   C34   S    
O15   C7    A    
O16   C8    A    
O7    V2    S    
C36   H8    S    
C37   C38   S    
C18   O21   S    
O26   C48   S    
C44   H27   S    
C17   O22   S    
O5    V1    S    
C50   H41   S    
O17   V1    S    
C22   O25   S    
C54   C55   S    
C19   O24   S    
O19   V3    S    
C45   H29   S    
C35   H7    S    
C54   H50   S    
C37   H11   S    
C56   H56   S    
C42   H22   S    
C41   H19   S    
C39   H15   S    
C43   C44   S    
C9    C26   T    
C55   C56   S    
C8    C10   S    
C35   H6    S    
C34   C35   S    
C53   H48   S    
C19   C20   D    
C52   H46   S    
C42   H23   S    
C4    C14   S    
O10   V2    S    
C40   H17   S    
O20   V4    S    
C16   C31   T    
O12   C4    A    
C34   H4    S    
O8    C5    A    
O13   C5    A    
O3    V4    S    
C15   C32   T    
C46   C47   S    
C43   H25   S    
C38   H13   S    
C14   C29   T    
C12   C27   T    
C55   H53   S    
C51   C52   S    
O4    C1    A    
C20   C27   S    
O9    C1    A    
O6    V2    S    
C21   C30   S    
O18   V2    S    
C23   O28   S    
C53   H49   S    
C13   C30   T    
C52   H45   S    
C17   C26   S    
C36   C37   S    
C39   C40   S    
C48   H36   S    
C50   H42   S    
C54   H51   S    
O1    C4    A    
C40   H18   S    
O2    C3    A    
O13   V3    S    
C20   O23   S    
O14   V4    S    
C37   H10   S    
C41   H21   S    
O15   V4    S    
C50   H40   S    
C47   H35   S    
O28   C54   S    
C5    C11   S    
O7    C6    A    
C6    C12   S    
C46   H31   S    
C49   C50   S    
C35   H5    S    
O14   C6    A    
O20   V2    S    
C53   H47   S    
C33   H1    S    
C52   C53   S    
C56   H54   S    
C42   C43   S    
O21   C33   S    
O5    C8    A    
O10   C2    A    
O6    C7    A    
C22   C29   S    
C39   H16   S    
C47   H34   S    
C43   H24   S    
C38   H14   S    
O4    V3    S    
C55   H52   S    
C18   C25   S    
O23   C39   S    
C40   C41   S    
C10   C25   T    
C11   C28   T    
C51   H43   S    
C23   C32   S    
C48   H37   S    
