data_mof_unit_2086.cif
_audit_creation_date              2013-03-05T15:43:50-0500
_audit_creation_method            fapswitch 2.2
_symmetry_space_group_name_H-M    P1
_symmetry_Int_Tables_number       1
_space_group_crystal_system       triclinic
_cell_length_a                    10.091867
_cell_length_b                    10.724146
_cell_length_c                    15.505351
_cell_angle_alpha                 90.24931
_cell_angle_beta                  67.43171
_cell_angle_gamma                 89.466151
_cell_volume                      1549.46423967

loop_
_atom_site_label
_atom_site_type_symbol
_atom_site_description
_atom_site_fract_x
_atom_site_fract_y
_atom_site_fract_z
_atom_type_partial_charge
O1    O     O_R   0.386950 0.680940 0.500010 -0.616516
O2    O     O_R   0.613110 0.680900 0.499990 -0.573234
C1    C     C_R   0.497285 0.737170 0.503779 0.923527
O3    O     O_R   0.322330 0.500030 0.632270 -0.602450
O4    O     O_R   0.548480 0.499990 0.632240 -0.577789
C2    C     C_R   0.409676 0.501556 0.676013 0.859443
Zn1   Zn    Zn3+2 0.349000 0.500030 0.500020 0.964556
Zn2   Zn    Zn3+2 0.651000 0.499970 0.499980 1.029631
O5    O     O_R   0.386890 0.319100 0.500010 -0.621862
O6    O     O_R   0.613050 0.319060 0.499990 -0.643886
O7    O     O_R   0.451520 0.500010 0.367760 -0.616967
O8    O     O_R   0.677670 0.499970 0.367730 -0.610234
C3    C     C_R   0.501010 0.262832 0.499289 0.925485
C4    C     C_R   0.590166 0.502433 0.324196 0.855291
C5    C     C_R   0.352921 0.508007 0.777974 -0.061099
C6    C     C_R   0.644813 0.523799 0.223884 -0.043571
C7    C     C_R   0.164822 0.479465 0.929829 -0.159001
C8    C     C_R   0.209385 0.484050 0.832931 -0.216326
C9    C     C_R   0.447948 0.536979 0.820400 -0.208926
C10   C     C_R   0.405424 0.536747 0.917279 0.058335
C11   C     C_R   0.263742 0.498525 0.972757 0.041134
C12   C     C_R   0.504445 0.565689 0.958926 0.025583
C13   C     C_R   0.470030 0.534647 0.052945 0.015085
C14   C     C_R   0.328137 0.498723 0.107735 -0.289838
C15   C     C_R   0.225370 0.480863 0.069196 0.295144
C16   C     C_R   0.635462 0.626725 0.909708 -0.216888
C17   C     C_R   0.735783 0.649694 0.949752 0.140579
C18   C     C_R   0.706952 0.608391 0.041461 0.122054
C19   C     C_R   0.576783 0.544935 0.090773 0.085543
C20   C     C_R   0.802047 0.631252 0.086843 -0.222393
C21   C     C_R   0.767378 0.594209 0.178867 -0.103061
C22   C     C_R   0.556305 0.493068 0.177411 -0.231493
H1    H     H_    0.468329 0.431132 0.212054 0.150068
H2    H     H_    0.832819 0.625084 0.215879 0.195846
H3    H     H_    0.053370 0.459368 0.970033 0.193674
H4    H     H_    0.133010 0.464961 0.801115 0.175802
H5    H     H_    0.558369 0.552677 0.776075 0.199733
H6    H     H_    0.292793 0.486661 0.182170 0.178366
H7    H     H_    0.658798 0.664619 0.841140 0.174770
H8    H     H_    0.899721 0.683093 0.054231 0.157127
C23   C     C_2   0.591630 0.067033 0.526035 -0.165650
C24   C     C_2   0.505253 0.130782 0.494695 -0.319116
H9    H     H_    0.661831 0.113667 0.553969 0.170246
H10   H     H_    0.437917 0.087220 0.463278 0.147224
C25   C     C_2   0.598154 0.932738 0.520238 -0.129763
C26   C     C_2   0.487125 0.868631 0.517497 -0.336913
H11   H     H_    0.696385 0.887070 0.517184 0.212830
H12   H     H_    0.384408 0.911922 0.528099 0.159535
C27   C     C_2   0.080430 0.400862 0.491667 -0.062673
N1    N     N_2   0.148330 0.498670 0.499030 -0.183845
H13   H     H_    0.126224 0.310115 0.495097 0.155836
H14   H     H_    0.113378 0.582551 0.482928 0.201728
C28   C     C_2   0.948111 0.408370 0.468674 0.195862
N2    N     N_2   0.852680 0.498640 0.499000 -0.017309
N3    N     N_R   0.085773 0.438131 0.128814 0.185241
O9    O     O_R   0.032822 0.338813 0.106242 -0.412498
O10   O     O_R   0.027161 0.480594 0.213986 -0.452790
C29   C     C_3   0.925436 0.304673 0.409382 -0.367948
C30   C     C_3   0.065003 0.253053 0.335319 -0.811610
H15   H     H_    0.137351 0.329686 0.298404 0.282937
H16   H     H_    0.121667 0.191696 0.367885 0.227673
H17   H     H_    0.040099 0.196464 0.283403 0.282885
H18   H     H_    0.869098 0.227065 0.455498 0.197099
H19   H     H_    0.858104 0.339462 0.372374 0.276818
N4    N     N_R   0.856820 0.570442 0.573102 0.269016
O11   O     O_R   0.830998 0.689570 0.574870 -0.412502
O12   O     O_R   0.851158 0.516831 0.649656 -0.431508
C31   C     C_3   0.871852 0.717765 0.891808 -0.418410
C32   C     C_3   0.859932 0.856199 0.917339 -0.820065
H20   H     H_    0.770212 0.900088 0.903224 0.266617
H21   H     H_    0.840743 0.869977 0.992181 0.258679
H22   H     H_    0.961170 0.903311 0.874409 0.257279
H23   H     H_    0.966902 0.674880 0.899782 0.204052
H24   H     H_    0.892887 0.709330 0.816139 0.239805

loop_
_geom_bond_atom_site_label_1
_geom_bond_atom_site_label_2
_geom_bond_distance
_ccdc_geom_bond_type
C7    C8    1.394421 A    
C32   H22   1.110279 S    
C14   H6    1.078051 S    
C28   C29   1.513797 S    
C6    C22   1.386751 A    
C9    H5    1.076620 S    
C23   C24   1.334281 D    
C1    C26   1.421711 S    
N1    H14   1.029360 S    
C9    C10   1.394947 A    
N4    O12   1.302795 A    
Zn2   O8    1.963082 S    
C13   C14   1.414230 A    
C22   H1    1.079821 S    
N3    O9    1.301305 A    
C18   C20   1.413303 A    
O2    C1    1.291407 A    
C2    C5    1.461345 S    
C21   H2    1.080954 S    
C20   H8    1.080038 S    
C30   H15   1.109323 S    
N4    O11   1.299527 A    
N2    N4    1.394482 S    
C23   C25   1.441921 S    
C25   C26   1.334394 D    
C14   C15   1.395621 A    
C6    C21   1.395216 A    
Zn1   O7    1.909810 S    
C23   H9    1.086216 S    
C16   C17   1.398928 A    
O4    C2    1.301094 A    
C24   H10   1.084141 S    
O1    Zn1   1.981032 S    
O3    Zn1   1.963086 S    
C27   C28   1.510090 S    
C13   C19   1.415456 A    
O3    C2    1.302451 A    
C18   C19   1.422534 A    
C10   C12   1.418196 A    
C5    C9    1.391737 A    
C19   C22   1.397241 A    
C26   H12   1.084747 S    
C32   H20   1.111004 S    
N3    O10   1.300561 A    
C29   H19   1.107526 S    
C20   C21   1.393020 A    
C5    C8    1.397065 A    
O7    C4    1.300028 A    
C4    C6    1.457010 S    
C16   H7    1.079022 S    
C30   H16   1.110148 S    
O4    Zn2   1.909811 S    
C32   H21   1.109726 S    
C31   H24   1.112362 S    
C17   C18   1.411815 A    
C10   C11   1.422081 A    
Zn2   O6    1.981032 S    
C27   N1    1.286542 D    
C12   C16   1.415996 A    
C25   H11   1.086086 S    
Zn2   N2    2.029462 S    
C29   H18   1.108682 S    
Zn1   O5    1.974128 S    
C11   C15   1.407537 A    
C12   C13   1.405119 A    
C3    C24   1.417026 S    
C30   H17   1.110561 S    
O5    C3    1.291409 A    
C17   C31   1.517617 S    
C7    H3    1.080575 S    
C27   H13   1.083715 S    
C31   H23   1.109157 S    
C28   N2    1.310288 D    
C29   C30   1.532142 S    
C8    H4    1.083174 S    
O2    Zn2   1.974127 S    
C15   N3    1.437130 S    
Zn1   N1    2.031264 S    
O8    C4    1.301322 A    
C31   C32   1.526493 S    
O1    C1    1.291924 A    
O6    C3    1.290062 A    
C7    C11   1.412107 A    
