data_mof_unit_967.cif
_audit_creation_date              2012-12-11T16:43:11-0500
_audit_creation_method            fapswitch 2.2
_symmetry_space_group_name_H-M    P1
_symmetry_Int_Tables_number       1
_space_group_crystal_system       triclinic
_cell_length_a                    6.970809
_cell_length_b                    22.866139
_cell_length_c                    27.571352
_cell_angle_alpha                 105.77864
_cell_angle_beta                  90.065121
_cell_angle_gamma                 89.825129
_cell_volume                      4229.1325457

loop_
_atom_site_label
_atom_site_type_symbol
_atom_type_description
_atom_site_fract_x
_atom_site_fract_y
_atom_site_fract_z
_atom_type_partial_charge
O1    O     O_R   0.505750 0.453350 0.547660 -0.536702
O2    O     O_R   0.170990 0.432220 0.437590 -0.543041
O3    O     O_R   0.005600 0.546650 0.452340 -0.558741
C1    C     C_R   0.338490 0.415143 0.417858 0.681331
O4    O     O_R   0.175720 0.446240 0.546340 -0.499435
O5    O     O_R   0.010370 0.560770 0.561860 -0.531506
C2    C     C_R   0.344275 0.433349 0.562021 0.764628
O6    O     O_R   0.500990 0.439230 0.438140 -0.541155
O7    O     O_3   0.340820 0.537560 0.504970 -0.380453
V1    V     V_3+5 0.064050 0.493030 0.499080 1.555407
O8    O     O_R   0.680940 0.567780 0.562410 -0.540829
C3    C     C_R   0.850041 0.585163 0.582016 0.778609
O9    O     O_R   0.676210 0.553760 0.453660 -0.520188
C4    C     C_R   0.844423 0.566670 0.437967 0.700479
V2    V     V_3+5 0.564640 0.506970 0.500920 1.540962
O10   O     O_3   0.837740 0.462440 0.495030 -0.359412
C5    C     C_R   0.773029 0.882768 0.119850 -0.096745
H1    H     H_    0.641307 0.899731 0.107297 0.183205
C6    C     C_R   0.760291 0.848609 0.155261 0.420359
C7    C     C_R   0.928123 0.824236 0.173802 0.028580
C8    C     C_R   0.104796 0.838878 0.152966 -0.092974
H2    H     H_    0.222488 0.820505 0.160841 0.251563
C9    C     C_R   0.121892 0.872780 0.117788 -0.078494
H3    H     H_    0.263396 0.880736 0.104113 0.185381
C10   C     C_R   0.953881 0.895786 0.100270 -0.130801
C11   C     C_R   0.088731 0.761416 0.230351 0.415798
C12   C     C_R   0.074543 0.727687 0.267166 0.291086
C13   C     C_R   0.892840 0.713808 0.287078 -0.004420
C14   C     C_R   0.727558 0.737917 0.268568 -0.146376
H4    H     H_    0.585286 0.734435 0.279478 0.266462
C15   C     C_R   0.746207 0.770744 0.234102 -0.224515
H5    H     H_    0.624921 0.785697 0.224347 0.251449
C16   C     C_R   0.918462 0.785593 0.213301 -0.011357
C17   C     C_R   0.698311 0.662136 0.346210 0.304451
C18   C     C_R   0.681895 0.628110 0.381666 0.327191
C19   C     C_R   0.853324 0.604066 0.399847 -0.140566
C20   C     C_R   0.032365 0.615058 0.381440 -0.257366
H6    H     H_    0.146787 0.593375 0.400084 0.177222
C21   C     C_R   0.042343 0.650509 0.345315 -0.225737
H7    H     H_    0.172581 0.655413 0.332984 0.173515
C22   C     C_R   0.878882 0.675625 0.326326 0.083978
C23   C     C_R   0.860520 0.618381 0.679312 0.361212
C24   C     C_R   0.865979 0.633716 0.632003 -0.127157
C25   C     C_R   0.856564 0.696354 0.629631 -0.345185
C26   C     C_R   0.904696 0.742530 0.678475 0.040060
C27   C     C_R   0.897450 0.726749 0.726364 -0.001431
C28   C     C_R   0.874623 0.664378 0.727030 -0.006003
C29   C     C_R   0.923312 0.804681 0.677660 0.365667
C30   C     C_R   0.939718 0.850703 0.725302 -0.121777
C31   C     C_R   0.934441 0.835513 0.773044 0.019165
C32   C     C_R   0.913309 0.773158 0.773749 -0.087639
C33   C     C_R   0.908320 0.757320 0.821730 -0.077502
C34   C     C_R   0.886775 0.694972 0.821769 0.436190
C35   C     C_R   0.869936 0.649352 0.774664 -0.164213
C36   C     C_R   0.950998 0.881777 0.820603 0.304879
C37   C     C_R   0.947558 0.865881 0.868342 -0.252854
C38   C     C_R   0.898822 0.803122 0.870631 0.403205
H8    H     H_    0.782042 0.698859 0.604745 0.157094
H9    H     H_    0.954643 0.898108 0.725158 0.199875
H10   H     H_    0.857225 0.601991 0.775290 0.216583
C39   C     C_R   0.376766 0.195734 0.131383 -0.273231
C40   C     C_R   0.418892 0.134337 0.131431 -0.098707
C41   C     C_R   0.401337 0.119198 0.178658 0.308930
C42   C     C_R   0.386523 0.164625 0.226822 -0.085162
C43   C     C_R   0.370442 0.226964 0.226220 -0.028831
C44   C     C_R   0.360812 0.242739 0.178350 0.133049
C45   C     C_R   0.393193 0.148879 0.274738 0.392531
C46   C     C_R   0.387054 0.195562 0.321603 -0.153578
C47   C     C_R   0.370710 0.257446 0.321496 0.021992
C48   C     C_R   0.362039 0.273304 0.273634 0.058320
C49   C     C_R   0.344906 0.335643 0.272982 0.110842
C50   C     C_R   0.337114 0.350884 0.225407 -0.174102
C51   C     C_R   0.344715 0.304702 0.178243 -0.157016
C52   C     C_R   0.361282 0.304232 0.368373 -0.173607
C53   C     C_R   0.344708 0.366146 0.368204 -0.057839
C54   C     C_R   0.336889 0.381396 0.320719 -0.202658
H11   H     H_    0.371314 0.207018 0.095264 0.116925
H12   H     H_    0.392074 0.184210 0.357772 0.159289
H13   H     H_    0.367090 0.293216 0.404608 0.115703
H14   H     H_    0.325495 0.428954 0.321131 0.117395
H15   H     H_    0.325565 0.398395 0.225392 0.135548
H16   H     H_    0.339688 0.316116 0.142110 0.128348
C55   C     C_R   0.273860 0.117109 0.880103 0.349755
C56   C     C_R   0.260785 0.150940 0.844626 0.406372
C57   C     C_R   0.430528 0.175736 0.826286 -0.148442
C58   C     C_R   0.611005 0.161361 0.846804 -0.158084
H17   H     H_    0.747842 0.174600 0.839853 0.236128
C59   C     C_R   0.622930 0.127601 0.881947 0.359861
C60   C     C_R   0.454991 0.104157 0.899769 -0.330918
C61   C     C_R   0.586527 0.238321 0.768495 0.368278
C62   C     C_R   0.573654 0.272496 0.732890 -0.138308
H18   H     H_    0.707525 0.288567 0.721249 0.121142
C63   C     C_R   0.392815 0.286023 0.713113 0.049516
C64   C     C_R   0.224333 0.262143 0.731215 -0.145692
H19   H     H_    0.082002 0.269660 0.718196 0.134096
C65   C     C_R   0.230460 0.228067 0.766502 -0.167894
H20   H     H_    0.083462 0.220621 0.775066 0.215168
C66   C     C_R   0.416305 0.213880 0.786990 0.066629
C67   C     C_R   0.198778 0.337601 0.654115 -0.143136
H21   H     H_    0.065108 0.321510 0.665607 0.129584
C68   C     C_R   0.186921 0.371550 0.618319 0.421490
C69   C     C_R   0.354486 0.395650 0.600371 -0.158557
C70   C     C_R   0.534744 0.383319 0.620093 -0.106957
H22   H     H_    0.656037 0.407378 0.612346 0.243628
C71   C     C_R   0.548398 0.348270 0.655485 -0.085464
H23   H     H_    0.690653 0.341421 0.668660 0.142891
C72   C     C_R   0.379841 0.324210 0.673805 0.034931
O11   O     O_R   0.308350 0.060850 0.061810 -0.533096
O12   O     O_R   0.633860 0.053770 0.953650 -0.566763
O13   O     O_R   0.798960 0.939210 0.938150 -0.523051
C73   C     C_R   0.465599 0.066648 0.937994 0.686075
O14   O     O_R   0.638360 0.067800 0.062400 -0.537092
O15   O     O_R   0.803500 0.953330 0.047670 -0.532038
C74   C     C_R   0.463625 0.085511 0.082014 0.766817
O16   O     O_R   0.303810 0.046730 0.952290 -0.567828
O17   O     O_3   0.468430 0.962490 0.995010 -0.355539
V3    V     V_3+5 0.745300 0.006960 0.000930 1.509488
O18   O     O_R   0.132880 0.946160 0.046390 -0.534421
C75   C     C_R   0.964463 0.933283 0.062088 0.777071
O19   O     O_R   0.128380 0.932130 0.937650 -0.539326
C76   C     C_R   0.958921 0.914340 0.918370 0.763156
V4    V     V_3+5 0.244670 0.992930 0.999140 1.531772
O20   O     O_3   0.971670 0.037510 0.005000 -0.400210
O21   O     O_3   0.485522 0.620228 0.397447 -0.648361
H24   H     H_    0.356070 0.633321 0.386922 0.267210
Cl1   Cl    Cl    0.836753 0.540946 0.677767 -0.645202
O22   O     O_3   0.931217 0.820467 0.631761 -0.623310
H25   H     H_    0.915490 0.785686 0.601576 0.305923
O23   O     O_3   0.967411 0.941965 0.819945 -0.622715
H26   H     H_    0.977339 0.968809 0.854843 0.298283
Cl2   Cl    Cl    0.800520 0.797422 0.922282 -0.563097
Cl3   Cl    Cl    0.912899 0.670199 0.877511 -0.478338
Cl4   Cl    Cl    0.534213 0.843911 0.171269 -0.740689
Cl5   Cl    Cl    0.416979 0.040690 0.173887 -0.674947
O24   O     O_3   0.396773 0.089288 0.277219 -0.606188
H27   H     H_    0.416454 0.064871 0.245750 0.398792
O25   O     O_3   0.108193 0.098488 0.892896 -0.613599
H28   H     H_    0.114663 0.078803 0.917224 0.326248
O26   O     O_3   0.082771 0.160894 0.830172 -0.599335
H29   H     H_    0.077112 0.204587 0.840696 0.269166
O27   O     O_3   0.799393 0.120891 0.897822 -0.604137
H30   H     H_    0.809733 0.096486 0.920494 0.341973
O28   O     O_3   0.766560 0.231755 0.784686 -0.668086
H31   H     H_    0.767487 0.250516 0.821268 0.264700
Cl6   Cl    Cl    0.967029 0.370046 0.588912 -0.687493
O29   O     O_3   0.277184 0.769673 0.213154 -0.639802
H32   H     H_    0.368734 0.747340 0.187907 0.334191
O30   O     O_3   0.246291 0.708732 0.281142 -0.629093
H33   H     H_    0.260010 0.731115 0.317398 0.294147
O31   O     O_3   0.538962 0.683737 0.329361 -0.675387
H34   H     H_    0.434788 0.675785 0.344666 0.302960

loop_
_geom_bond_atom_site_label_1
_geom_bond_atom_site_label_2
_ccdc_geom_bond_type
C36   C37   A    
C53   C54   A    
C63   C64   A    
C59   O27   S    
O2    C1    A    
C18   C19   A    
C55   O25   S    
C1    O6    A    
O14   C74   A    
C17   O31   S    
O12   V3    S    
O24   H27   S    
C21   C22   A    
C35   H10   S    
C34   C35   A    
C37   C38   A    
C71   C72   A    
C68   Cl6   S    
C11   C12   A    
C68   C69   A    
O17   V4    S    
C55   C56   A    
C13   C14   A    
O29   H32   S    
C3    C24   S    
O12   C73   A    
O13   C76   A    
C4    C19   S    
C49   C54   A    
C58   C59   A    
V2    O10   S    
C13   C22   S    
O17   V3    S    
C17   C18   A    
O18   V4    S    
O11   C74   A    
C11   O29   S    
O18   C75   A    
C1    C53   S    
C57   C66   S    
C69   C70   A    
O15   C75   A    
O8    V2    S    
C39   C44   A    
C6    C7    A    
C56   O26   S    
C39   H11   S    
C46   C47   A    
C36   O23   S    
C2    C69   S    
C65   C66   A    
C9    H3    S    
C15   C16   A    
C48   C49   A    
O1    V2    S    
C14   H4    S    
O7    V1    S    
C50   H15   S    
O16   V4    S    
O9    C4    A    
C14   C15   A    
C47   C48   A    
C17   C22   A    
C10   C75   S    
O13   V3    S    
O19   V4    S    
C31   C32   A    
C46   H12   S    
C55   C60   A    
C52   C53   A    
C45   C46   A    
C41   Cl5   S    
C54   H14   S    
C47   C52   A    
O30   H33   S    
C25   H8    S    
C21   H7    S    
O4    C2    A    
C58   H17   S    
C12   O30   S    
C57   C58   A    
C44   C51   A    
C27   C32   A    
C32   C33   A    
C43   C48   A    
C45   O24   S    
C24   C25   A    
C42   C45   A    
C20   H6    S    
C62   C63   A    
C11   C16   A    
C15   H5    S    
O26   H29   S    
C65   H20   S    
C7    C8    A    
C40   C41   A    
C5    H1    S    
C64   H19   S    
C70   C71   A    
C34   Cl3   S    
C33   C34   A    
C56   C57   A    
C64   C65   A    
O3    C4    A    
C28   C35   A    
O15   V3    S    
C7    C16   S    
C29   C30   A    
C67   C68   A    
C43   C44   A    
O6    V2    S    
C52   H13   S    
C8    C9    A    
C23   C24   A    
O22   H25   S    
O2    V1    S    
C51   H16   S    
C62   H18   S    
O19   C76   A    
O23   H26   S    
C71   H23   S    
C26   C29   A    
C27   C28   A    
C18   O21   S    
O1    C2    A    
C38   Cl2   S    
C25   C26   A    
C61   O28   S    
O11   V4    S    
C50   C51   A    
O5    V1    S    
O8    C3    A    
C40   C74   S    
C6    Cl4   S    
C67   C72   A    
O25   H28   S    
C60   C73   S    
C31   C36   A    
C30   H9    S    
C67   H21   S    
C5    C10   A    
C42   C43   A    
O9    V2    S    
V3    O20   S    
O4    V1    S    
C20   C21   A    
O3    V1    S    
V1    O10   S    
O27   H30   S    
C37   C76   S    
C29   O22   S    
O5    C3    A    
C61   C62   A    
O14   V3    S    
C5    C6    A    
C23   C28   A    
C9    C10   A    
O7    V2    S    
C39   C40   A    
C33   C38   A    
C23   Cl1   S    
C41   C42   A    
C26   C27   A    
C49   C50   A    
C59   C60   A    
C19   C20   A    
C30   C31   A    
C70   H22   S    
O31   H34   S    
C73   O16   A    
V4    O20   S    
C8    H2    S    
C61   C66   A    
C63   C72   S    
O28   H31   S    
O21   H24   S    
C12   C13   A    
