data_mof_unit_2343.cif
_audit_creation_date              2012-12-11T15:46:43-0500
_audit_creation_method            fapswitch 2.2
_symmetry_space_group_name_H-M    P1
_symmetry_Int_Tables_number       1
_space_group_crystal_system       triclinic
_cell_length_a                    11.532103
_cell_length_b                    11.522696
_cell_length_c                    19.58528
_cell_angle_alpha                 90.512307
_cell_angle_beta                  90.108457
_cell_angle_gamma                 59.976472
_cell_volume                      2253.20512124

loop_
_atom_site_label
_atom_site_type_symbol
_atom_type_description
_atom_site_fract_x
_atom_site_fract_y
_atom_site_fract_z
_atom_type_partial_charge
C1    C     C_R   0.640422 0.117285 0.599342 0.544836
C2    C     C_1   0.641211 0.704146 0.668096 0.003470
C3    C     C_1   0.126497 0.198833 0.859214 0.004050
C4    C     C_1   0.171659 0.170254 0.727743 -0.030606
C5    C     C_1   0.150058 0.182322 0.798918 -0.030223
C6    C     C_1   0.195548 0.160831 0.667474 0.003096
C7    C     C_1   0.678711 0.191330 0.860695 0.003836
C8    C     C_1   0.658578 0.167120 0.729057 -0.030572
C9    C     C_1   0.665788 0.180895 0.800307 -0.030223
C10   C     C_1   0.652946 0.149554 0.668719 0.003384
C11   C     C_R   0.647123 0.691006 0.187290 0.036500
C12   C     C_R   0.612439 0.746124 0.598732 0.545750
C13   C     C_R   0.535759 0.705766 0.223626 0.041228
C14   C     C_R   0.530925 0.718385 0.292662 0.023807
C15   C     C_R   0.731565 0.733116 0.292194 -0.142475
C16   C     C_R   0.736943 0.722245 0.220501 0.051678
C17   C     C_3   0.469604 0.621386 0.226705 -0.248273
C18   C     C_3   0.463567 0.638466 0.303280 -0.273565
C19   C     C_R   0.634846 0.717496 0.328635 -0.019439
C20   C     C_R   0.156420 0.193023 0.189110 -0.002870
C21   C     C_R   0.153600 0.293332 0.230714 -0.014657
C22   C     C_R   0.174928 0.275579 0.299319 0.016269
C23   C     C_R   0.241148 0.145226 0.598287 0.545118
C24   C     C_R   0.223040 0.047944 0.288576 -0.099675
C25   C     C_R   0.204123 0.063672 0.217523 0.196341
C26   C     C_3   0.047751 0.437070 0.240555 -0.236979
C27   C     C_3   0.072589 0.416648 0.316523 -0.272121
C28   C     C_R   0.200264 0.157354 0.330521 -0.041193
C29   C     C_R   0.675416 0.179080 0.192695 -0.002082
C30   C     C_R   0.775849 0.067614 0.227167 -0.023204
C31   C     C_R   0.766129 0.049956 0.295406 0.066546
C32   C     C_R   0.547274 0.248366 0.297506 -0.160987
C33   C     C_R   0.556321 0.265241 0.227373 -0.171541
C34   C     C_R   0.643593 0.111990 0.402083 0.540975
C35   C     C_3   0.923264 0.017656 0.232378 -0.150821
C36   C     C_3   0.911832 0.997661 0.307710 0.085792
C37   C     C_R   0.657159 0.144629 0.332702 -0.014865
C38   C     C_R   0.081659 0.231190 0.928507 0.543003
C39   C     C_R   0.683983 0.604271 0.929413 0.543402
C40   C     C_R   0.708449 0.206711 0.930051 0.546425
C41   C     C_R   0.086104 0.234457 0.124279 0.524240
C42   C     C_R   0.680360 0.616112 0.123932 0.551335
C43   C     C_R   0.708755 0.210594 0.126791 0.539843
C44   C     C_R   0.614075 0.744873 0.400596 0.544016
C45   C     C_R   0.245848 0.139376 0.400707 0.543342
C46   C     C_1   0.670433 0.646240 0.860052 0.004817
C47   C     C_1   0.654730 0.683822 0.728474 -0.030921
C48   C     C_1   0.663444 0.666562 0.799678 -0.030535
Cr1   Cr    Cr6+3 0.404720 0.198220 0.499960 1.027671
Cr2   Cr    Cr6+3 0.698290 0.897110 0.500380 1.025766
Cr3   Cr    Cr6+3 0.396970 0.904720 0.499610 1.027091
Cr4   Cr    Cr6+3 0.926290 0.152010 0.028150 1.033216
Cr5   Cr    Cr6+3 0.921440 0.451830 0.027490 1.044646
Cr6   Cr    Cr6+3 0.626370 0.446880 0.028730 1.026003
H1    H     H_    0.803532 0.750825 0.319047 0.177173
H2    H     H_    0.078354 0.506466 0.218784 0.172074
H3    H     H_    0.118125 0.473801 0.338559 0.157969
H4    H     H_    0.985992 0.424505 0.345459 0.130812
H5    H     H_    0.455559 0.317179 0.324051 0.147629
H6    H     H_    0.474292 0.348771 0.201595 0.128826
H7    H     H_    0.947556 0.097902 0.222419 0.133502
H8    H     H_    0.984242 0.923028 0.203021 0.195044
H9    H     H_    0.934419 0.061850 0.341786 0.104076
H10   H     H_    0.537283 0.515630 0.211057 0.154131
H11   H     H_    0.369187 0.670792 0.202343 0.185935
H12   H     H_    0.359817 0.700312 0.323210 0.165371
H13   H     H_    0.527394 0.543401 0.330951 0.131904
H14   H     H_    0.256806 0.950349 0.310532 0.164180
H15   H     H_    0.946703 0.456212 0.225584 0.169702
O1    O     O_R   0.267750 0.231960 0.575440 -0.505437
O2    O     O_R   0.685950 0.784660 0.430010 -0.507408
O3    O     O_R   0.502510 0.767000 0.423980 -0.515637
O4    O     O_R   0.288320 0.026340 0.429250 -0.509315
O5    O     O_3   0.499990 0.000020 0.499980 -0.253783
O6    O     O_R   0.821590 0.119350 0.952850 -0.503353
O7    O     O_R   0.037230 0.162540 0.957390 -0.495920
O8    O     O_R   0.056530 0.344750 0.951370 -0.504047
O9    O     O_R   0.798000 0.560370 0.957490 -0.494342
O10   O     O_R   0.596230 0.579400 0.952760 -0.504316
O11   O     O_R   0.639160 0.321170 0.958690 -0.492358
O12   O     O_R   0.527290 0.186640 0.570530 -0.494396
O13   O     O_R   0.821370 0.124220 0.104400 -0.518029
O14   O     O_R   0.037020 0.167050 0.097880 -0.499981
O15   O     O_R   0.056310 0.349620 0.102920 -0.507936
O16   O     O_R   0.797790 0.564880 0.097980 -0.471783
O17   O     O_R   0.596000 0.584270 0.104310 -0.530180
O18   O     O_R   0.638950 0.325690 0.099180 -0.508753
O19   O     O_3   0.824700 0.350240 0.028120 -0.259237
O20   O     O_R   0.728110 0.003450 0.576380 -0.506953
O21   O     O_R   0.682980 0.789190 0.570500 -0.493660
O22   O     O_R   0.499300 0.771880 0.575540 -0.504605
O23   O     O_R   0.285350 0.030870 0.569740 -0.494078
O24   O     O_R   0.270960 0.227070 0.423890 -0.509994
O25   O     O_R   0.530270 0.182120 0.430040 -0.506716
O26   O     O_R   0.731320 0.998570 0.424830 -0.517353
O27   O     O_3   0.979010 0.861435 0.324564 -0.722487
H16   H     H_    0.980650 0.857974 0.375146 0.338877
N1    N     N_3   0.837198 0.733430 0.182442 -0.614682
H17   H     H_    0.787377 0.817281 0.151159 0.237356
H18   H     H_    0.897090 0.752799 0.215352 0.252978
O28   O     O_3   0.228301 0.953100 0.178927 -0.716112
H19   H     H_    0.244036 0.968578 0.131037 0.335647

loop_
_geom_bond_atom_site_label_1
_geom_bond_atom_site_label_2
_ccdc_geom_bond_type
C21   C26   S    
O28   H19   S    
C34   C37   S    
C14   C18   S    
C12   O22   A    
C35   C36   S    
Cr3   O5    S    
Cr4   O6    S    
C2    C12   S    
C20   C41   S    
C38   O7    A    
C15   C19   A    
C26   C27   S    
C30   C35   S    
C44   O2    A    
Cr5   O15   S    
C12   O21   A    
Cr2   O5    S    
C17   H10   S    
C30   C31   A    
Cr2   O26   S    
C20   C25   A    
C1    O12   A    
C15   C16   A    
C41   O14   A    
C29   C33   A    
C11   C42   S    
C45   O4    A    
Cr1   O12   S    
Cr3   O22   S    
Cr2   O21   S    
C3    C38   S    
C8    C9    S    
C7    C40   S    
C40   O11   A    
C42   O17   A    
Cr1   O25   S    
Cr5   O19   S    
C36   H9    S    
C24   C28   A    
C31   C36   S    
C45   O24   A    
C22   C28   A    
C21   C22   A    
C29   C43   S    
C23   O1    A    
Cr6   O11   S    
C26   H15   S    
C46   C48   T    
C28   C45   S    
C39   O9    A    
Cr3   O4    S    
Cr4   O19   S    
C24   C25   A    
C4    C6    T    
C27   H3    S    
Cr6   O17   S    
Cr4   O7    S    
C18   H13   S    
C41   O15   A    
C31   C37   A    
C15   H1    S    
Cr4   O14   S    
Cr5   O8    S    
Cr2   O2    S    
C29   C30   A    
Cr3   O23   S    
C11   C16   A    
C36   O27   S    
Cr2   O20   S    
C47   C48   S    
O27   H16   S    
C17   C18   S    
C35   H7    S    
C42   O16   A    
C32   C37   A    
C34   O26   A    
Cr4   O13   S    
C39   C46   S    
C33   H6    S    
N1    H18   S    
Cr1   O1    S    
Cr3   O3    S    
C19   C44   S    
Cr6   O10   S    
C7    C9    T    
C1    O20   A    
Cr1   O5    S    
C14   C19   A    
C1    C10   S    
C34   O25   A    
C4    C5    S    
C3    C5    T    
C27   H4    S    
C26   H2    S    
C38   O8    A    
C2    C47   T    
C18   H12   S    
C17   H11   S    
C40   O6    A    
C13   C17   S    
C22   C27   S    
C43   O18   A    
C32   C33   A    
Cr5   O9    S    
Cr6   O19   S    
C11   C13   A    
C25   O28   S    
Cr6   O18   S    
C6    C23   S    
C44   O3    A    
C35   H8    S    
C24   H14   S    
C16   N1    S    
C20   C21   A    
C8    C10   T    
N1    H17   S    
C43   O13   A    
C23   O23   A    
Cr5   O16   S    
C32   H5    S    
Cr1   O24   S    
C13   C14   A    
C39   O10   A    
