data_mof_unit_740.cif
_audit_creation_date              2012-12-11T15:30:31-0500
_audit_creation_method            fapswitch 2.2
_symmetry_space_group_name_H-M    P1
_symmetry_Int_Tables_number       1
_space_group_crystal_system       triclinic
_cell_length_a                    6.950878
_cell_length_b                    20.481168
_cell_length_c                    24.406145
_cell_angle_alpha                 89.717607
_cell_angle_beta                  90.52989
_cell_angle_gamma                 89.41734
_cell_volume                      3474.13798675

loop_
_atom_site_label
_atom_site_type_symbol
_atom_type_description
_atom_site_fract_x
_atom_site_fract_y
_atom_site_fract_z
_atom_type_partial_charge
O1    O     O_R   0.507310 0.423620 0.460450 -0.536107
O2    O     O_R   0.170760 0.556060 0.437190 -0.537350
O3    O     O_R   0.004040 0.576380 0.539550 -0.536121
C1    C     C_R   0.338641 0.576181 0.421248 0.725033
O4    O     O_R   0.177350 0.422870 0.454070 -0.537982
O5    O     O_R   0.010680 0.442240 0.556560 -0.535438
C2    C     C_R   0.346215 0.398967 0.443374 0.711274
O6    O     O_R   0.500670 0.557760 0.443440 -0.535747
O7    O     O_3   0.340380 0.506510 0.533610 -0.366768
V1    V     V_3+5 0.064130 0.498790 0.493770 1.416093
O8    O     O_R   0.681170 0.443940 0.562810 -0.538101
C3    C     C_R   0.850992 0.423862 0.578671 0.727081
O9    O     O_R   0.674570 0.577130 0.545930 -0.537571
C4    C     C_R   0.842659 0.601117 0.556494 0.695884
V2    V     V_3+5 0.564560 0.501210 0.506230 1.416386
O10   O     O_3   0.838170 0.493490 0.466390 -0.367231
C5    C     C_R   0.976545 0.837945 0.911539 -0.036025
C6    C     C_R   0.847541 0.661675 0.588831 -0.043244
C7    C     C_R   0.040972 0.722070 0.907107 -0.145877
C8    C     C_R   0.032978 0.779694 0.936883 -0.193502
C9    C     C_R   0.929861 0.838420 0.855405 -0.194299
C10   C     C_R   0.940509 0.780332 0.823421 0.033098
C11   C     C_R   0.995176 0.721320 0.850707 0.101507
C12   C     C_R   0.901682 0.779076 0.765456 0.054537
C13   C     C_R   0.918703 0.719016 0.735730 0.018492
C14   C     C_R   0.971620 0.662029 0.764969 -0.261132
C15   C     C_R   0.007181 0.662491 0.821321 0.270875
C16   C     C_R   0.847285 0.836029 0.736105 -0.172199
C17   C     C_R   0.810621 0.834710 0.680142 -0.208093
C18   C     C_R   0.825792 0.776795 0.650735 0.142027
C19   C     C_R   0.880659 0.717822 0.677668 0.106120
C20   C     C_R   0.783950 0.777626 0.594347 -0.167531
C21   C     C_R   0.793052 0.720493 0.563847 -0.171044
C22   C     C_R   0.892432 0.660232 0.645140 -0.216515
H1    H     H_    0.931508 0.613264 0.662103 0.093207
H2    H     H_    0.756276 0.722062 0.520608 0.104023
H3    H     H_    0.768679 0.879800 0.659620 0.118375
H4    H     H_    0.086488 0.678103 0.928574 0.155538
H5    H     H_    0.072164 0.778903 0.979966 0.106557
H6    H     H_    0.890567 0.885154 0.838047 0.090377
H7    H     H_    0.984890 0.615313 0.745328 0.126037
H8    H     H_    0.830753 0.882995 0.755120 0.118353
H9    H     H_    0.741310 0.822636 0.573853 0.110364
C23   C     C_3   0.762101 0.256751 0.801342 -0.327318
C24   C     C_3   0.117136 0.246698 0.784268 -0.330508
C25   C     C_3   0.097482 0.296387 0.736016 -0.328375
H10   H     H_    0.788635 0.283619 0.840163 0.137018
H11   H     H_    0.239663 0.212714 0.776406 0.135051
H12   H     H_    0.150945 0.273299 0.822766 0.137578
H13   H     H_    0.121793 0.346658 0.751547 0.137459
H14   H     H_    0.210785 0.286081 0.705220 0.134734
C26   C     C_1   0.863851 0.378380 0.624394 -0.195382
C27   C     C_3   0.928995 0.207451 0.791202 0.292765
C28   C     C_3   0.742417 0.306380 0.753051 -0.328990
C29   C     C_3   0.895483 0.292388 0.708628 0.292621
C30   C     C_3   0.867336 0.221448 0.688223 -0.328654
C31   C     C_3   0.886856 0.171786 0.736512 -0.328723
C32   C     C_1   0.877153 0.339882 0.662355 -0.103051
C33   C     C_1   0.947241 0.159973 0.837503 -0.102224
C34   C     C_1   0.960436 0.121518 0.875504 -0.194253
H15   H     H_    0.751616 0.143494 0.739982 0.136400
H16   H     H_    0.004843 0.136315 0.727768 0.136906
H17   H     H_    0.722846 0.216769 0.668688 0.135859
H18   H     H_    0.624437 0.230106 0.806095 0.135885
H19   H     H_    0.595486 0.303288 0.734784 0.136832
H20   H     H_    0.976079 0.209640 0.656485 0.136209
C35   C     C_3   0.608255 0.712035 0.274165 0.209232
C36   C     C_3   0.279018 0.685440 0.239373 -0.409482
C37   C     C_3   0.312263 0.733990 0.190911 -0.341420
H21   H     H_    0.716727 0.744805 0.194424 0.107834
H22   H     H_    0.122345 0.682770 0.248132 0.174265
H23   H     H_    0.325972 0.635506 0.227214 0.136185
H24   H     H_    0.383610 0.707744 0.156716 0.141564
H25   H     H_    0.170613 0.752171 0.175222 0.151452
C38   C     C_1   0.476302 0.878430 0.124805 -0.196536
C39   C     C_3   0.391130 0.707560 0.291385 0.251576
C40   C     C_3   0.636380 0.765953 0.229495 -0.323173
C41   C     C_3   0.438268 0.792652 0.209081 0.238794
C42   C     C_3   0.338530 0.825858 0.258357 -0.337625
C43   C     C_3   0.307145 0.776124 0.305765 -0.326482
C44   C     C_1   0.461744 0.840048 0.162837 -0.083117
C45   C     C_1   0.364308 0.660113 0.337431 -0.077949
C46   C     C_1   0.348299 0.621694 0.375354 -0.200035
H26   H     H_    0.367029 0.795314 0.344513 0.140155
H27   H     H_    0.150000 0.771846 0.312915 0.166414
H28   H     H_    0.427480 0.867015 0.273460 0.135323
H29   H     H_    0.725243 0.806719 0.245156 0.153124
H30   H     H_    0.197160 0.846845 0.245099 0.146631
C47   C     C_R   0.472498 0.161579 0.089146 -0.042068
C48   C     C_R   0.351757 0.337842 0.411679 -0.097632
C49   C     C_R   0.540369 0.276807 0.095412 -0.163669
C50   C     C_R   0.529279 0.219915 0.064695 -0.169430
C51   C     C_R   0.427018 0.160438 0.145212 -0.215009
C52   C     C_R   0.440416 0.217820 0.177929 0.084192
C53   C     C_R   0.498266 0.276218 0.151546 0.141501
C54   C     C_R   0.401795 0.219271 0.235735 0.061706
C55   C     C_R   0.422438 0.278880 0.265907 0.079496
C56   C     C_R   0.480602 0.335197 0.237100 -0.188974
C57   C     C_R   0.516723 0.333734 0.181293 -0.207984
C58   C     C_R   0.343262 0.163127 0.264325 -0.195719
C59   C     C_R   0.307285 0.164413 0.320100 -0.188645
C60   C     C_R   0.326944 0.221752 0.350684 0.068372
C61   C     C_R   0.383841 0.280260 0.323791 0.050372
C62   C     C_R   0.285168 0.221468 0.407577 0.306154
C63   C     C_R   0.296876 0.280052 0.437085 -0.199410
C64   C     C_R   0.396402 0.338035 0.355810 -0.224198
H31   H     H_    0.561421 0.378342 0.161196 0.120206
H32   H     H_    0.434811 0.384540 0.338576 0.102814
H33   H     H_    0.264324 0.281340 0.480340 0.114247
H34   H     H_    0.260648 0.119402 0.338960 0.142951
H35   H     H_    0.387423 0.113806 0.162026 0.093313
H36   H     H_    0.500929 0.381729 0.256441 0.120390
H37   H     H_    0.322393 0.116778 0.244675 0.120605
O11   O     O_R   0.323590 0.942280 0.056590 -0.535108
O12   O     O_R   0.647030 0.077140 0.045940 -0.537793
O13   O     O_R   0.813570 0.057750 0.943430 -0.535346
C65   C     C_R   0.478181 0.101032 0.056703 0.693949
O14   O     O_R   0.653510 0.943950 0.062820 -0.537192
O15   O     O_R   0.820100 0.923600 0.960440 -0.536486
C66   C     C_R   0.485635 0.923882 0.078818 0.725221
O16   O     O_R   0.317060 0.076430 0.039590 -0.536283
O17   O     O_3   0.483830 0.993520 0.966410 -0.366662
V3    V     V_3+5 0.760140 0.001200 0.006230 1.419131
O18   O     O_R   0.149560 0.922820 0.954030 -0.537769
C67   C     C_R   0.981416 0.898902 0.943390 0.692765
O19   O     O_R   0.143080 0.056020 0.937150 -0.538073
C68   C     C_R   0.973255 0.076089 0.921281 0.726931
V4    V     V_3+5 0.259690 0.998730 0.993720 1.419347
O20   O     O_3   0.986120 0.006480 0.033580 -0.366566
N1    N     N_2   0.057286 0.602747 0.848274 -0.529694
H38   H     H_    0.142163 0.572072 0.825096 0.255358
C69   C     C_3   0.895065 0.569027 0.871474 -0.578628
H39   H     H_    0.947049 0.525168 0.894308 0.196249
H40   H     H_    0.794984 0.553280 0.838406 0.195865
H41   H     H_    0.816641 0.601163 0.900439 0.208451
H42   H     H_    0.759474 0.356879 0.768873 0.137417
H43   H     H_    0.643557 0.664999 0.253510 0.067426
N2    N     N_2   0.746553 0.716859 0.319459 -0.525790
H44   H     H_    0.780777 0.672765 0.337921 0.256028
C70   C     C_3   0.736906 0.770410 0.357843 -0.558732
H45   H     H_    0.879234 0.775724 0.378207 0.187964
H46   H     H_    0.630712 0.759603 0.390248 0.189577
H47   H     H_    0.701035 0.817264 0.337074 0.198007
H48   H     H_    0.585219 0.321376 0.075324 0.110075
H49   H     H_    0.566903 0.221238 0.021717 0.103934
N3    N     N_2   0.233788 0.161738 0.434226 -0.527345
H50   H     H_    0.336856 0.125268 0.432233 0.247320
C71   C     C_3   0.128603 0.163571 0.485139 -0.564270
H51   H     H_    0.072659 0.114164 0.494288 0.197077
H52   H     H_    0.004038 0.197830 0.481656 0.208518
H53   H     H_    0.225059 0.178161 0.519391 0.183610

loop_
_geom_bond_atom_site_label_1
_geom_bond_atom_site_label_2
_ccdc_geom_bond_type
C13   C19   A    
C29   C30   S    
C59   C60   A    
O13   V3    S    
C4    C6    S    
O2    C1    A    
C7    C8    A    
C35   C40   S    
C70   H47   S    
C1    O6    A    
V4    O20   S    
C21   H2    S    
C43   H27   S    
C55   C56   A    
C27   C33   S    
C31   H16   S    
C28   H19   S    
C24   C25   S    
C23   H18   S    
C9    H6    S    
C14   C15   A    
O19   C68   A    
C16   C17   A    
C70   H46   S    
C49   H48   S    
C36   H22   S    
O5    C3    A    
C18   C19   A    
C60   C62   A    
C53   C57   A    
C14   H7    S    
V2    O10   S    
C5    C8    A    
C30   C31   S    
C22   H1    S    
C35   N2    S    
C65   O16   A    
C42   H30   S    
C36   C37   S    
O8    V2    S    
C23   C27   S    
C69   H39   S    
O12   C65   A    
O13   C68   A    
C25   C29   S    
C71   H53   S    
C37   H24   S    
O1    V2    S    
C11   C15   A    
O7    V1    S    
C23   H10   S    
C43   H26   S    
O18   V4    S    
C24   C27   S    
C33   C34   T    
O9    C4    A    
V3    O20   S    
H21   C40   S    
O17   V4    S    
C37   C41   S    
C52   C53   A    
C62   C63   A    
C3    C26   S    
N3    C71   S    
C19   C22   A    
O12   V3    S    
C38   C66   S    
C62   N3    S    
C56   H36   S    
C12   C13   A    
C48   C64   A    
O16   V4    S    
C39   C45   S    
C49   C50   A    
O4    C2    A    
C8    H5    S    
C27   C31   S    
C41   C42   S    
C38   C44   T    
C13   C14   A    
C40   C41   S    
C2    C48   S    
C25   H14   S    
C5    C9    A    
N1    C69   S    
C17   C18   A    
C7    H4    S    
O11   V4    S    
C24   H12   S    
C36   H23   S    
C28   H42   S    
C54   C55   A    
C30   H17   S    
C37   H25   S    
C51   C52   A    
C70   H45   S    
C47   C50   A    
C52   C54   A    
O14   V3    S    
C6    C22   A    
C55   C61   A    
O3    C4    A    
C26   C32   T    
C51   H35   S    
O15   C67   A    
C47   C65   S    
C45   C46   T    
O6    V2    S    
O9    V2    S    
C10   C12   A    
C39   C43   S    
O2    V1    S    
C7    C11   A    
N3    H50   S    
C24   H11   S    
C63   H33   S    
C28   C29   S    
O19   V4    S    
C50   H49   S    
O1    C2    A    
C34   C68   S    
C58   H37   S    
C12   C16   A    
C48   C63   A    
C71   H52   S    
O5    V1    S    
O8    C3    A    
C31   H15   S    
N2    C70   S    
O15   V3    S    
C36   C39   S    
C57   H31   S    
C25   H13   S    
C20   C21   A    
N1    H38   S    
C59   H34   S    
O4    V1    S    
O3    V1    S    
V1    O10   S    
C18   C20   A    
C41   C44   S    
C5    C67   S    
C1    C46   S    
C64   H32   S    
C69   H41   S    
C30   H20   S    
C54   C58   A    
C16   H8    S    
C58   C59   A    
C20   H9    S    
C61   C64   A    
C71   H51   S    
C47   C51   A    
C60   C61   A    
C35   H43   S    
C6    C21   A    
O14   C66   A    
N2    H44   S    
C49   C53   A    
C42   C43   S    
C23   C28   S    
C40   H29   S    
C69   H40   S    
C56   C57   A    
C29   C32   S    
C17   H3    S    
C15   N1    S    
C10   C11   A    
C35   C39   S    
O17   V3    S    
C9    C10   A    
C42   H28   S    
O11   C66   A    
O7    V2    S    
O18   C67   A    
