data_mof_unit_2548.cif
_audit_creation_date              2013-03-05T16:33:41-0500
_audit_creation_method            fapswitch 2.2
_symmetry_space_group_name_H-M    P1
_symmetry_Int_Tables_number       1
_space_group_crystal_system       triclinic
_cell_length_a                    9.070588
_cell_length_b                    10.867121
_cell_length_c                    9.559515
_cell_angle_alpha                 90.308766
_cell_angle_beta                  89.941009
_cell_angle_gamma                 90.178698
_cell_volume                      942.273899523

loop_
_atom_site_label
_atom_site_type_symbol
_atom_site_description
_atom_site_fract_x
_atom_site_fract_y
_atom_site_fract_z
_atom_type_partial_charge
O1    O     O_R   0.500000 0.319640 0.618810 -0.566875
O2    O     O_R   0.500020 0.319680 0.381230 -0.588236
C1    C     C_R   0.497836 0.262808 0.499544 0.816396
O3    O     O_R   0.288380 0.499980 0.618770 -0.578291
O4    O     O_R   0.288400 0.500020 0.381190 -0.569712
C2    C     C_R   0.220724 0.499911 0.500035 0.867813
Cu1   Cu    Cu3+1 0.499990 0.499980 0.640670 1.010295
Cu2   Cu    Cu3+1 0.500010 0.500020 0.359330 1.015556
O5    O     O_R   0.499980 0.680320 0.618770 -0.566804
O6    O     O_R   0.500000 0.680360 0.381190 -0.586477
O7    O     O_R   0.711600 0.499980 0.618810 -0.596413
O8    O     O_R   0.711620 0.500020 0.381230 -0.550183
C3    C     C_R   0.499541 0.737336 0.500142 0.819421
C4    C     C_R   0.779266 0.499945 0.500004 0.840649
C5    C     C_1   0.065566 0.499824 0.500130 -0.095128
C6    C     C_1   0.934420 0.499814 0.500081 -0.090743
C7    C     C_R   0.484132 0.063300 0.620357 0.020906
C8    C     C_R   0.492119 0.130312 0.497572 -0.081311
C9    C     C_R   0.495773 0.063913 0.370333 -0.154842
H1    H     H_    0.499857 0.110935 0.270794 0.196269
C10   C     C_R   0.496960 0.934819 0.370900 -0.141979
H2    H     H_    0.501116 0.886545 0.271563 0.189514
C11   C     C_R   0.495516 0.870076 0.498726 -0.081439
C12   C     C_R   0.488374 0.939091 0.621199 -0.004437
C13   C     C_3   0.493163 0.932773 0.777480 0.086244
C14   C     C_3   0.487988 0.075239 0.776259 0.098574
H3    H     H_    0.598955 0.896982 0.818447 0.073148
H4    H     H_    0.590158 0.120652 0.815118 0.087442
C15   C     C_R   0.628024 0.517719 0.073588 0.208470
N1    N     N_R   0.500920 0.500930 0.147930 -0.230993
C16   C     C_R   0.376663 0.470221 0.074107 0.016054
H5    H     H_    0.276027 0.447194 0.128593 0.187988
C17   C     C_R   0.376648 0.470273 0.925686 0.053946
H6    H     H_    0.275981 0.447371 0.871083 0.176165
N2    N     N_R   0.500930 0.500890 0.852020 -0.195744
C18   C     C_R   0.627987 0.517076 0.926149 0.202908
C19   C     C_3   0.727901 0.625681 0.917892 -0.498980
C20   C     C_3   0.725866 0.628959 0.077002 0.130148
H7    H     H_    0.836427 0.601655 0.871149 0.232566
H8    H     H_    0.673468 0.705787 0.869495 0.195146
H9    H     H_    0.671706 0.712058 0.121913 0.131863
N3    N     N_R   0.870591 0.603903 0.137906 0.159237
O9    O     O_R   0.930024 0.683776 0.222680 -0.340455
O10   O     O_R   0.942261 0.503796 0.106563 -0.365726
N4    N     N_R   0.362728 0.872763 0.837098 0.195466
O11   O     O_R   0.233420 0.884561 0.779722 -0.284007
O12   O     O_R   0.377468 0.801067 0.944651 -0.359534
N5    N     N_R   0.353333 0.127476 0.836691 0.188489
O13   O     O_R   0.339563 0.133664 0.971993 -0.343605
O14   O     O_R   0.251891 0.175679 0.757957 -0.328759

loop_
_geom_bond_atom_site_label_1
_geom_bond_atom_site_label_2
_geom_bond_distance
_ccdc_geom_bond_type
C15   C20   1.497652 S    
O4    Cu2   1.930555 S    
C11   C12   1.388568 A    
C16   C17   1.418843 A    
C15   N1    1.365995 A    
C13   H3    1.109152 S    
C14   H4    1.111881 S    
N2    C18   1.363964 A    
C14   N5    1.465311 S    
N1    C16   1.369836 A    
Cu2   O8    1.931026 S    
Cu2   N1    2.020968 S    
N5    O14   1.302398 A    
C7    C8    1.386362 A    
C2    C5    1.407372 S    
Cu1   Cu2   2.689475 S    
C19   H7    1.111895 S    
O1    Cu1   1.969766 S    
N4    O11   1.302303 A    
Cu1   O7    1.930556 S    
C15   C18   1.409420 A    
C19   C20   1.521329 S    
N3    O10   1.302444 A    
C20   H9    1.113250 S    
O3    Cu1   1.931025 S    
C7    C14   1.495722 S    
Cu2   O6    1.969766 S    
C18   C19   1.488177 S    
C17   N2    1.369671 A    
O8    C4    1.291174 A    
C20   N3    1.463529 S    
C19   H8    1.105951 S    
O2    C1    1.291893 A    
C10   C11   1.413343 A    
O4    C2    1.290784 A    
O7    C4    1.290408 A    
C4    C6    1.407345 S    
C7    C12   1.350533 A    
N3    O9    1.300449 A    
C5    C6    1.189568 T    
C13   N4    1.465493 S    
C17   H6    1.079960 S    
C12   C13   1.496593 S    
C3    C11   1.443209 S    
C1    C8    1.440639 S    
O3    C2    1.290876 A    
C8    C9    1.411335 A    
N4    O12   1.300611 A    
Cu1   O5    1.972050 S    
O5    C3    1.295194 A    
N5    O13   1.300701 A    
C9    C10   1.402993 A    
C13   C14   1.549168 S    
C10   H2    1.083079 S    
Cu1   N2    2.020402 S    
C16   H5    1.079900 S    
O2    Cu2   1.972048 S    
C9    H1    1.083035 S    
O1    C1    1.293864 A    
O6    C3    1.291845 A    
