data_mof_unit_3656.cif
_audit_creation_date              2012-12-11T17:36:18-0500
_audit_creation_method            fapswitch 2.2
_symmetry_space_group_name_H-M    P1
_symmetry_Int_Tables_number       1
_space_group_crystal_system       triclinic
_cell_length_a                    25.859439
_cell_length_b                    6.899638
_cell_length_c                    21.733012
_cell_angle_alpha                 90.002709
_cell_angle_beta                  96.174258
_cell_angle_gamma                 89.995951
_cell_volume                      3855.12809756

loop_
_atom_site_label
_atom_site_type_symbol
_atom_type_description
_atom_site_fract_x
_atom_site_fract_y
_atom_site_fract_z
_atom_type_partial_charge
O1    O     O_R   0.208650 0.594520 0.175450 -0.538231
O2    O     O_R   0.791350 0.405480 0.824550 -0.538230
O3    O     O_R   0.291350 0.094520 0.324550 -0.538230
O4    O     O_R   0.708650 0.905480 0.675450 -0.538230
O5    O     O_R   0.192980 0.260780 0.300160 -0.506549
O6    O     O_R   0.807020 0.739220 0.699840 -0.506550
O7    O     O_R   0.307020 0.760780 0.199840 -0.506579
O8    O     O_R   0.692980 0.239220 0.800160 -0.506579
C1    C     C_R   0.178399 0.432258 0.317963 0.736417
C2    C     C_R   0.821601 0.567742 0.682037 0.736418
C3    C     C_R   0.321601 0.932245 0.182036 0.736433
C4    C     C_R   0.678399 0.067755 0.817964 0.736433
O9    O     O_R   0.202550 0.264660 0.174420 -0.539193
O10   O     O_R   0.797450 0.735340 0.825580 -0.539192
O11   O     O_R   0.297450 0.764660 0.325580 -0.539194
O12   O     O_R   0.702550 0.235340 0.674420 -0.539194
O13   O     O_R   0.300990 0.096480 0.197920 -0.547345
O14   O     O_R   0.699010 0.903520 0.802080 -0.547344
O15   O     O_R   0.199010 0.596480 0.302080 -0.547347
O16   O     O_R   0.800990 0.403520 0.697920 -0.547348
C5    C     C_R   0.190995 0.433488 0.151182 0.712990
C6    C     C_R   0.809005 0.566512 0.848818 0.712989
C7    C     C_R   0.309005 0.933481 0.348819 0.713036
C8    C     C_R   0.690994 0.066519 0.651181 0.713036
O17   O     O_3   0.282290 0.427760 0.257860 -0.361551
O18   O     O_3   0.717710 0.572240 0.742140 -0.361551
O19   O     O_3   0.217710 0.927760 0.242140 -0.361540
O20   O     O_3   0.782290 0.072240 0.757860 -0.361540
V1    V     V_3+5 0.244010 0.152080 0.248540 1.485336
V2    V     V_3+5 0.755990 0.847920 0.751460 1.485336
V3    V     V_3+5 0.255990 0.652080 0.251460 1.485334
V4    V     V_3+5 0.744010 0.347920 0.748540 1.485334
C9    C     C_R   0.657486 0.059532 0.591874 -0.122150
C10   C     C_R   0.342514 0.940468 0.408126 -0.122150
C11   C     C_R   0.842511 0.559439 0.908125 -0.122111
C12   C     C_R   0.157489 0.440560 0.091875 -0.122111
C13   C     C_R   0.648772 0.097538 0.480369 0.366873
C14   C     C_R   0.351228 0.902461 0.519630 0.366872
C15   C     C_R   0.851157 0.595916 0.019681 0.366884
C16   C     C_R   0.148842 0.404059 0.980320 0.366885
C17   C     C_R   0.679438 0.093592 0.537164 -0.160708
C18   C     C_R   0.320562 0.906407 0.462836 -0.160707
C19   C     C_R   0.820514 0.592462 0.962867 -0.160761
C20   C     C_R   0.179486 0.407517 0.037134 -0.160759
C21   C     C_R   0.603687 0.029761 0.590119 -0.215660
C22   C     C_R   0.396313 0.970239 0.409881 -0.215661
C23   C     C_R   0.896332 0.530218 0.909868 -0.215661
C24   C     C_R   0.103668 0.469793 0.090131 -0.215662
C25   C     C_R   0.570732 0.031647 0.533169 0.050433
C26   C     C_R   0.429268 0.968353 0.466831 0.050434
C27   C     C_R   0.929263 0.531568 0.966836 0.050449
C28   C     C_R   0.070737 0.468434 0.033163 0.050450
C29   C     C_R   0.594444 0.059626 0.477632 0.029966
C30   C     C_R   0.405556 0.940373 0.522368 0.029965
C31   C     C_R   0.905510 0.558490 0.022396 0.029970
C32   C     C_R   0.094490 0.441498 0.977604 0.029969
C33   C     C_R   0.515272 0.004507 0.529513 0.080787
C34   C     C_R   0.484728 0.995493 0.470487 0.080787
C35   C     C_R   0.984738 0.504835 0.970486 0.080803
C36   C     C_R   0.015262 0.495167 0.029514 0.080803
C37   C     C_R   0.510773 0.010634 0.416982 -0.177007
C38   C     C_R   0.489227 0.989366 0.583018 -0.177007
C39   C     C_R   0.989185 0.509273 0.083021 -0.177030
C40   C     C_R   0.010815 0.490721 0.916979 -0.177028
C41   C     C_R   0.563983 0.042580 0.420527 -0.188826
C42   C     C_R   0.436017 0.957420 0.579473 -0.188826
C43   C     C_R   0.935957 0.540837 0.079491 -0.188847
C44   C     C_R   0.064043 0.459149 0.920509 -0.188849
H1    H     H_    0.581040 0.048710 0.377267 0.144021
H2    H     H_    0.418960 0.951290 0.622733 0.144021
H3    H     H_    0.918877 0.546152 0.122745 0.143986
H4    H     H_    0.081123 0.453825 0.877255 0.143985
H5    H     H_    0.410889 0.996026 0.366017 0.111514
H6    H     H_    0.589111 0.003975 0.633983 0.111514
H7    H     H_    0.089059 0.494867 0.134017 0.111468
H8    H     H_    0.910942 0.505161 0.865982 0.111466
H9    H     H_    0.279164 0.878843 0.461325 0.132062
H10   H     H_    0.720836 0.121155 0.538675 0.132062
H11   H     H_    0.220906 0.380423 0.038629 0.132048
H12   H     H_    0.779093 0.619544 0.961372 0.132048
H13   H     H_    0.491205 0.995929 0.370947 0.128818
H14   H     H_    0.508795 0.004071 0.629053 0.128818
H15   H     H_    0.008741 0.494009 0.129042 0.128799
H16   H     H_    0.991260 0.505981 0.870958 0.128799
C45   C     C_R   0.436978 0.792859 0.092067 0.284154
C46   C     C_R   0.563021 0.207140 0.907933 0.284155
C47   C     C_R   0.063024 0.292888 0.407921 0.284124
C48   C     C_R   0.936976 0.707112 0.592079 0.284124
C49   C     C_R   0.397522 0.780195 0.132982 0.335732
C50   C     C_R   0.602478 0.219805 0.867018 0.335732
C51   C     C_R   0.102478 0.280227 0.367002 0.335688
C52   C     C_R   0.897522 0.719773 0.632997 0.335688
C53   C     C_R   0.364536 0.941173 0.140681 -0.145857
C54   C     C_R   0.635464 0.058827 0.859319 -0.145857
C55   C     C_R   0.135461 0.441204 0.359312 -0.145970
C56   C     C_R   0.864539 0.558796 0.640688 -0.145969
C57   C     C_R   0.372363 0.113008 0.108135 -0.244304
C58   C     C_R   0.627637 0.886992 0.891865 -0.244304
C59   C     C_R   0.127618 0.613060 0.391849 -0.244158
C60   C     C_R   0.872382 0.386940 0.608151 -0.244158
H17   H     H_    0.347841 0.238243 0.112819 0.172784
H18   H     H_    0.652159 0.761756 0.887181 0.172784
H19   H     H_    0.152130 0.738306 0.387163 0.172921
H20   H     H_    0.847870 0.261694 0.612837 0.172921
C61   C     C_R   0.411297 0.126351 0.068478 -0.155508
C62   C     C_R   0.588703 0.873649 0.931522 -0.155508
C63   C     C_R   0.088680 0.626407 0.431501 -0.155401
C64   C     C_R   0.911320 0.373593 0.568499 -0.155401
H21   H     H_    0.415984 0.261262 0.044139 0.170167
H22   H     H_    0.584016 0.738738 0.955861 0.170167
H23   H     H_    0.083982 0.761328 0.455837 0.170272
H24   H     H_    0.916018 0.238672 0.544163 0.170272
C65   C     C_R   0.443682 0.968556 0.059722 0.003465
C66   C     C_R   0.556318 0.031444 0.940278 0.003465
C67   C     C_R   0.056308 0.468594 0.440262 0.003380
C68   C     C_R   0.943692 0.531406 0.559737 0.003380
C69   C     C_1   0.483421 0.990985 0.017553 -0.022358
C70   C     C_1   0.516579 0.009015 0.982447 -0.022358
C71   C     C_1   0.016576 0.490999 0.482442 -0.022388
C72   C     C_1   0.983424 0.509001 0.517558 -0.022388
O21   O     O_3   0.673580 0.139760 0.428888 -0.634236
H25   H     H_    0.649851 0.218590 0.400186 0.290073
O22   O     O_3   0.326420 0.860238 0.571112 -0.634236
H26   H     H_    0.350149 0.781409 0.599814 0.290073
O23   O     O_3   0.826299 0.637102 0.071206 -0.634242
H27   H     H_    0.849970 0.715702 0.100043 0.290078
O24   O     O_3   0.173700 0.362854 0.928795 -0.634242
H28   H     H_    0.150026 0.284258 0.899959 0.290078
O25   O     O_3   0.467741 0.631481 0.085280 -0.662961
H29   H     H_    0.492794 0.656729 0.054935 0.301257
O26   O     O_3   0.532259 0.368518 0.914720 -0.662961
H30   H     H_    0.507206 0.343271 0.945064 0.301257
O27   O     O_3   0.032288 0.131468 0.414731 -0.663004
H31   H     H_    0.007225 0.156728 0.445063 0.301253
O28   O     O_3   0.967712 0.868532 0.585269 -0.663004
H32   H     H_    0.992775 0.843272 0.554937 0.301253
O29   O     O_3   0.390810 0.613374 0.166597 -0.642774
H33   H     H_    0.416740 0.514218 0.158114 0.328357
O30   O     O_3   0.609190 0.386626 0.833403 -0.642775
H34   H     H_    0.583260 0.485782 0.841886 0.328358
O31   O     O_3   0.109197 0.113394 0.333388 -0.642809
H35   H     H_    0.083133 0.014544 0.341679 0.328359
O32   O     O_3   0.890803 0.886605 0.666612 -0.642809
H36   H     H_    0.916867 0.985456 0.658321 0.328359

loop_
_geom_bond_atom_site_label_1
_geom_bond_atom_site_label_2
_ccdc_geom_bond_type
O17   V3    S    
C59   H19   S    
C25   C29   A    
O1    C5    A    
C15   O23   S    
C47   C51   A    
O19   V1    S    
C9    C21   A    
C47   O27   S    
O3    C7    A    
C10   C18   A    
C52   C56   A    
O15   V3    S    
C50   O30   S    
C25   C33   A    
O28   H32   S    
C5    C12   S    
C42   H2    S    
O7    C3    A    
C6    C11   S    
C35   C40   A    
C26   C30   A    
C62   C66   A    
C36   C39   A    
C40   C44   A    
C61   C65   A    
C23   H8    S    
C14   C18   A    
C62   H22   S    
O4    C8    A    
C55   C59   A    
C46   O26   S    
C43   H3    S    
C54   C58   A    
O32   H36   S    
O1    V3    S    
O13   V1    S    
O2    V4    S    
O3    V1    S    
C52   O32   S    
C40   H16   S    
C28   C36   A    
C45   O25   S    
C1    O15   A    
C60   H20   S    
C15   C31   A    
C48   C52   A    
C2    O16   A    
C16   C32   A    
O2    C6    A    
C10   C22   A    
C2    C56   S    
C11   C19   A    
C1    C55   S    
C16   C20   A    
C47   C67   A    
C14   O22   S    
C44   H4    S    
C13   C29   A    
C3    C53   S    
C34   C37   A    
O11   C7    A    
C38   H14   S    
C11   C23   A    
C35   C36   A    
O12   C8    A    
C49   C53   A    
C24   H7    S    
C4    C54   S    
O10   V2    S    
O20   V4    S    
C50   C54   A    
O5    V1    S    
O17   V1    S    
C39   C43   A    
C60   C64   A    
O7    V3    S    
C38   C42   A    
O19   V3    S    
C26   C34   A    
O22   H26   S    
C46   C50   A    
C17   H10   S    
C45   C49   A    
O18   V4    S    
C15   C19   A    
C33   C38   A    
C19   H12   S    
C32   C44   A    
C16   O24   S    
C64   H24   S    
C39   H15   S    
C21   H6    S    
O8    V4    S    
C48   C68   A    
O5    C1    A    
C37   C41   A    
C31   C43   A    
C14   C30   A    
C21   C25   A    
O8    C4    A    
C7    C10   S    
O9    C5    A    
C71   C72   T    
C63   C67   A    
O21   H25   S    
C66   C70   S    
C65   C69   S    
O6    V2    S    
O18   V2    S    
C67   C71   S    
O27   H31   S    
C13   O21   S    
C12   C20   A    
C27   C35   A    
O26   H30   S    
C53   C57   A    
C29   C41   A    
O25   H29   S    
O16   V4    S    
O9    V1    S    
C61   H21   S    
C3    O13   A    
C63   H23   S    
C20   H11   S    
C48   O28   S    
O6    C2    A    
C23   C27   A    
O30   H34   S    
O11   V3    S    
C30   C42   A    
O12   V4    S    
C59   C63   A    
O29   H33   S    
C22   C26   A    
C49   O29   S    
C8    C9    S    
C58   C62   A    
C46   C66   A    
C9    C17   A    
O10   C6    A    
O20   V2    S    
C57   C61   A    
C58   H18   S    
C69   C70   T    
C64   C68   A    
C33   C34   A    
O23   H27   S    
C28   C32   A    
C41   H1    S    
C56   C60   A    
C45   C65   A    
C12   C24   A    
C27   C31   A    
C13   C17   A    
C57   H17   S    
O14   V2    S    
C51   C55   A    
C68   C72   S    
C24   C28   A    
C18   H9    S    
C4    O14   A    
C37   H13   S    
O31   H35   S    
C22   H5    S    
O4    V2    S    
O24   H28   S    
C51   O31   S    
