data_mof_unit_173.cif
_audit_creation_date              2012-12-11T15:49:57-0500
_audit_creation_method            fapswitch 2.2
_symmetry_space_group_name_H-M    P1
_symmetry_Int_Tables_number       1
_space_group_crystal_system       triclinic
_cell_length_a                    8.357844
_cell_length_b                    19.008425
_cell_length_c                    26.704315
_cell_angle_alpha                 94.88687
_cell_angle_beta                  93.256818
_cell_angle_gamma                 84.923434
_cell_volume                      4205.30383595

loop_
_atom_site_label
_atom_site_type_symbol
_atom_type_description
_atom_site_fract_x
_atom_site_fract_y
_atom_site_fract_z
_atom_type_partial_charge
Ba1   Ba    Ba6+2 0.854000 0.466860 0.523710 1.667845
Ba2   Ba    Ba6+2 0.335820 0.533080 0.476290 1.705560
Br1   Br    Br    0.872543 0.775309 0.625196 -0.546611
Br2   Br    Br    0.350803 0.343312 0.291668 -0.513471
Br3   Br    Br    0.322413 0.781147 0.619922 -0.539807
Br4   Br    Br    0.563518 0.521958 0.217142 -0.497545
Br5   Br    Br    0.910363 0.727348 0.140096 -0.517880
C1    C     C_3   0.691566 0.219424 0.668129 -0.365686
C2    C     C_R   0.922421 0.568075 0.179509 0.677398
C3    C     C_2   0.736206 0.516336 0.267873 0.267141
C4    C     C_3   0.221048 0.293407 0.660509 0.332414
C5    C     C_3   0.696665 0.513081 0.322790 -0.044883
C6    C     C_1   0.981827 0.488962 0.342523 0.049750
C7    C     C_2   0.020435 0.490269 0.295109 -0.135752
C8    C     C_2   0.892335 0.504794 0.254725 0.168203
C9    C     C_R   0.041243 0.507456 0.104190 -0.111447
C10   C     C_R   0.054690 0.443849 0.128495 -0.018106
C11   C     C_R   0.119307 0.381199 0.102923 -0.026848
C12   C     C_3   0.679664 0.289255 0.643684 0.319043
C13   C     C_R   0.977893 0.571138 0.130146 -0.078319
C14   C     C_2   0.843693 0.519569 0.357660 -0.340849
C15   C     C_2   0.364205 0.493260 0.640976 -0.247384
C16   C     C_3   0.206969 0.278908 0.715444 -0.218573
C17   C     C_R   0.209694 0.443146 0.978266 0.020970
C18   C     C_R   0.092343 0.565762 0.975625 0.030476
C19   C     C_R   0.169610 0.503819 0.951305 0.054688
C20   C     C_R   0.297984 0.384524 0.953595 -0.097974
C21   C     C_R   0.339265 0.384892 0.903644 -0.061125
C22   C     C_R   0.292231 0.443198 0.875732 -0.033538
C23   C     C_3   0.437342 0.688998 0.629065 0.577162
C24   C     C_R   0.205385 0.502470 0.899451 -0.080761
C25   C     C_R   0.153599 0.560412 0.871381 -0.027506
C26   C     C_R   0.192943 0.559235 0.820490 0.588012
C27   C     C_R   0.330032 0.443485 0.824647 0.579658
C28   C     C_3   0.193093 0.319631 0.422785 0.323138
C29   C     C_2   0.472609 0.493147 0.730501 -0.069986
C30   C     C_3   0.512545 0.497356 0.675861 -0.037466
C31   C     C_1   0.221730 0.516751 0.657233 -0.013303
C32   C     C_2   0.186231 0.511855 0.704572 -0.154484
C33   C     C_2   0.317882 0.500957 0.744547 0.223152
C34   C     C_3   0.476101 0.683045 0.685137 -0.351769
C35   C     C_R   0.157898 0.442913 0.028414 0.035093
C36   C     C_R   0.090094 0.506828 0.053649 0.043180
C37   C     C_R   0.072760 0.570107 0.028735 -0.011156
C38   C     C_R   0.169904 0.380644 0.054135 -0.089715
C39   C     C_R   0.980246 0.635681 0.106794 0.317914
C40   C     C_3   0.225008 0.240142 0.410376 -0.354819
C41   C     C_R   0.028086 0.619770 0.945304 -0.109896
C42   C     C_R   0.060680 0.617880 0.894561 -0.059605
C43   C     C_R   0.040642 0.635317 0.058297 0.010063
C44   C     C_R   0.406921 0.302334 0.527108 -0.284536
C45   C     C_3   0.108079 0.680097 0.340947 0.267454
C46   C     C_R   0.548536 0.280244 0.502930 0.112950
C47   C     C_R   0.604597 0.208203 0.500113 -0.117943
C48   C     C_R   0.518914 0.157865 0.520809 -0.017996
C49   C     C_R   0.373413 0.181018 0.543694 -0.137502
C50   C     C_R   0.315781 0.252797 0.545490 -0.013012
C51   C     C_R   0.570093 0.037069 0.553930 -0.078699
C52   C     C_3   0.951446 0.683099 0.646819 0.545053
C53   C     C_R   0.619413 0.964614 0.547231 -0.065175
C54   C     C_R   0.671744 0.933281 0.500579 0.056200
C55   C     C_R   0.672515 0.977177 0.460001 0.060649
C56   C     C_3   0.100941 0.697351 0.286062 -0.285723
C57   C     C_R   0.626285 0.050205 0.467747 -0.067817
C58   C     C_R   0.573744 0.080809 0.514350 0.042921
C59   C     C_R   0.871268 0.829126 0.475822 -0.096794
C60   C     C_R   0.915702 0.755919 0.471118 0.070698
C61   C     C_R   0.670600 0.733975 0.509475 0.048777
C62   C     C_R   0.623495 0.806882 0.513034 -0.088761
C63   C     C_R   0.722535 0.855412 0.495858 0.001835
C64   C     C_3   0.031742 0.695717 0.698951 -0.353107
C65   C     C_R   0.815678 0.709106 0.488365 -0.210139
C66   C     C_3   0.631601 0.346129 0.362059 0.267796
C67   C     C_3   0.540432 0.714520 0.354587 0.322971
C68   C     C_3   0.569548 0.312047 0.310721 0.089644
C69   C     C_3   0.810987 0.343668 0.360505 -0.339105
C70   C     C_3   0.720940 0.717892 0.360272 -0.298802
C71   C     C_3   0.097149 0.703875 0.043215 -0.336995
C72   C     C_3   0.713740 0.949180 0.407396 -0.406579
C73   C     C_3   0.071059 0.325893 0.740152 -0.328344
C74   C     C_3   0.462667 0.784620 0.336726 -0.345629
C75   C     C_R   0.003287 0.443773 0.177947 0.649070
H1    H     H_    0.796307 0.294412 0.627129 0.117403
H2    H     H_    0.792432 0.217770 0.696996 0.131102
H3    H     H_    0.580359 0.253349 0.310759 0.098017
H4    H     H_    0.640287 0.325782 0.279431 0.079695
H5    H     H_    0.584010 0.287710 0.613358 -0.011065
H6    H     H_    0.713606 0.174753 0.639060 0.088808
H7    H     H_    0.364265 0.645012 0.614773 0.010306
H8    H     H_    0.530730 0.731199 0.702234 0.164353
H9    H     H_    0.366882 0.675892 0.704916 0.085764
H10   H     H_    0.563771 0.636780 0.690877 0.065185
H11   H     H_    0.578235 0.213001 0.686336 0.116778
H12   H     H_    0.317726 0.229473 0.381892 0.162341
H13   H     H_    0.322114 0.288968 0.736574 0.145003
H14   H     H_    0.230198 0.657846 0.350952 0.117161
H15   H     H_    0.022210 0.639714 0.344291 0.009773
H16   H     H_    0.126801 0.647718 0.261789 0.131335
H17   H     H_    0.980561 0.721780 0.274714 0.164117
H18   H     H_    0.191167 0.734167 0.279296 0.133377
H19   H     H_    0.491607 0.709239 0.391768 0.069085
H20   H     H_    0.508377 0.830461 0.359964 0.075482
H21   H     H_    0.331572 0.788596 0.341296 0.132275
H22   H     H_    0.224469 0.351398 0.657811 0.019439
H23   H     H_    0.267935 0.213550 0.444451 0.051654
H24   H     H_    0.486883 0.789156 0.296694 0.158949
H25   H     H_    0.144019 0.479357 0.284808 0.179788
H26   H     H_    0.130353 0.331622 0.120579 0.133520
H27   H     H_    0.570513 0.487659 0.758778 0.091792
H28   H     H_    0.407526 0.338668 0.886756 0.122009
H29   H     H_    0.340540 0.337952 0.972385 0.076347
H30   H     H_    0.213746 0.329786 0.036898 0.072585
H31   H     H_    0.949039 0.663599 0.960267 0.089485
H32   H     H_    0.335982 0.265654 0.648012 -0.036369
H33   H     H_    0.011982 0.661769 0.873439 0.124857
H34   H     H_    0.112617 0.217363 0.395214 0.113090
H35   H     H_    0.061930 0.517671 0.714948 0.111999
H36   H     H_    0.834192 0.545211 0.395431 0.084651
H37   H     H_    0.375979 0.471074 0.602387 0.073935
H38   H     H_    0.511152 0.825804 0.529793 0.113254
H39   H     H_    0.617616 0.932785 0.578940 0.127848
H40   H     H_    0.530907 0.059176 0.590372 0.079432
H41   H     H_    0.712190 0.191090 0.480124 0.091210
H42   H     H_    0.625733 0.082983 0.436432 0.068079
H43   H     H_    0.950044 0.865132 0.462668 0.081466
H44   H     H_    0.301394 0.143118 0.557823 0.083261
H45   H     H_    0.845686 0.652786 0.649346 0.052128
H46   H     H_    0.851119 0.652810 0.485405 0.065644
H47   H     H_    0.361014 0.357439 0.528110 0.061921
H48   H     H_    0.186438 0.222295 0.717669 0.117789
H49   H     H_    0.305974 0.342103 0.436582 0.019246
H50   H     H_    0.103458 0.328977 0.452213 0.048875
H51   H     H_    0.865182 0.288049 0.359715 0.131415
H52   H     H_    0.847506 0.368056 0.327144 0.071144
H53   H     H_    0.851851 0.373450 0.395110 0.103652
H54   H     H_    0.775799 0.672195 0.380085 0.018900
H55   H     H_    0.769716 0.716454 0.322525 0.147937
H56   H     H_    0.097948 0.646649 0.710292 0.103639
H57   H     H_    0.751371 0.767290 0.382215 0.067878
H58   H     H_    0.166777 0.729841 0.075176 0.169494
H59   H     H_    0.182056 0.695164 0.012441 0.111869
H60   H     H_    0.992694 0.740661 0.032376 0.147173
H61   H     H_    0.721257 0.890849 0.401896 0.112269
H62   H     H_    0.618819 0.969022 0.380025 0.126087
H63   H     H_    0.830258 0.967827 0.398492 0.128221
H64   H     H_    0.092818 0.382564 0.739891 0.136405
H65   H     H_    0.954236 0.316735 0.720018 0.170184
H66   H     H_    0.064921 0.313373 0.779819 0.120560
H67   H     H_    0.939135 0.712933 0.726681 0.120720
H68   H     H_    0.116316 0.737563 0.699515 0.177646
H69   H     H_    0.578065 0.401555 0.368575 0.069510
N1    N     N_R   0.937380 0.505284 0.202745 -0.424337
N2    N     N_R   0.280104 0.501154 0.797401 -0.425740
O1    O     O_2   0.913240 0.537010 0.617740 -0.484019
O2    O     O_2   0.249488 0.747272 0.456704 -0.479575
O3    O     O_3   0.070691 0.741143 0.373025 -0.631913
O4    O     O_3   0.145240 0.536960 0.557560 -0.448400
O5    O     O_3   0.557280 0.416300 0.475860 -0.484548
O6    O     O_2   0.376710 0.670070 0.522470 -0.434748
O7    O     O_3   0.583893 0.683100 0.605706 -0.631407
O8    O     O_2   0.368813 0.544823 0.326108 -0.461887
O9    O     O_3   0.505239 0.658595 0.318490 -0.569877
O10   O     O_2   0.015893 0.388649 0.198873 -0.547042
O11   O     O_2   0.406344 0.392122 0.804367 -0.600585
O12   O     O_3   0.595851 0.304580 0.400208 -0.647023
O13   O     O_2   0.860948 0.621103 0.202143 -0.526245
O14   O     O_2   0.151726 0.610688 0.797008 -0.616979
O15   O     O_3   0.669960 0.410470 0.588880 -0.486507
O16   O     O_2   0.839943 0.441582 0.673518 -0.494295
O17   O     O_3   0.061420 0.651219 0.611543 -0.599057
O18   O     O_3   0.641080 0.345600 0.679697 -0.606873
O19   O     O_2   0.812980 0.329910 0.477500 -0.480769
O20   O     O_3   0.078660 0.374870 0.564770 -0.472733
O21   O     O_2   0.979746 0.247730 0.537318 -0.489818
O22   O     O_3   0.091742 0.266910 0.630917 -0.604300
O23   O     O_2   0.276450 0.462960 0.382230 -0.429569
O24   O     O_3   0.044470 0.462980 0.442430 -0.504942
O25   O     O_3   0.519740 0.589470 0.411120 -0.502398
O26   O     O_3   0.135384 0.350044 0.378841 -0.584963
O27   O     O_3   0.632420 0.583650 0.524140 -0.458869
O28   O     O_3   0.111040 0.625070 0.435230 -0.493405
P1    P     P_3+3 0.082480 0.557670 0.610090 1.002609
P2    P     P_3+3 0.635220 0.340300 0.462910 0.979654
P3    P     P_3+3 0.116159 0.283740 0.568553 0.941896
P4    P     P_3+3 0.107220 0.442270 0.389900 1.033113
P5    P     P_3+3 0.090071 0.717937 0.435633 0.968010
P6    P     P_3+3 0.667367 0.425854 0.654465 0.968604
P7    P     P_3+3 0.560388 0.671143 0.540067 1.035459
P8    P     P_3+3 0.526751 0.576481 0.345235 0.996642

loop_
_geom_bond_atom_site_label_1
_geom_bond_atom_site_label_2
_ccdc_geom_bond_type
C54   C63   S    
C48   C49   A    
C2    N1    Am   
C17   C35   A    
O19   P2    D    
C17   C20   A    
C47   H41   S    
C28   C40   S    
Ba1   P2    S    
C38   H30   S    
O23   P4    D    
C72   H63   S    
C59   C63   A    
C46   C47   A    
C23   O7    S    
C5    P8    S    
Ba1   O20   S    
C56   H18   S    
C65   H46   S    
C51   C58   A    
C21   C22   A    
C70   H55   S    
C10   C75   A    
C56   H16   S    
C27   O11   D    
C62   C63   A    
C46   P2    S    
C31   C32   D    
Ba1   O27   S    
C26   N2    Am   
C64   H68   S    
C9    C10   A    
C75   O10   D    
C52   H45   S    
C15   C31   D    
O1    P1    D    
C45   H15   S    
O24   P4    S    
C49   C50   A    
Ba1   Ba2   S    
C4    C16   S    
C4    H32   S    
C75   N1    Am   
Br2   C68   S    
C55   C57   A    
O27   P7    S    
Ba2   O23   S    
C74   H24   S    
Ba1   O24   S    
C68   H3    S    
C73   H65   S    
C72   H61   S    
C72   H62   S    
O20   P3    S    
Ba2   O6    S    
C40   H23   S    
C67   C70   S    
C56   H17   S    
C23   C34   S    
C4    H22   S    
C44   C50   A    
Ba2   O24   S    
C49   H44   S    
C16   C73   S    
C52   O17   S    
O5    P2    S    
C54   C55   A    
C60   P5    S    
C9    C13   A    
C73   H64   S    
C59   C60   A    
C20   H29   S    
C19   C24   A    
C64   H67   S    
O15   P6    S    
C6    C7    D    
O17   P1    S    
C28   O26   S    
C66   C68   S    
C53   H39   S    
C26   O14   D    
Ba2   O27   S    
C23   H7    S    
C12   H1    S    
C43   C71   S    
C18   C37   A    
C8    N1    S    
C48   C58   S    
C69   H53   S    
C64   H56   S    
C11   H26   S    
C74   H20   S    
C44   H47   S    
C15   H37   S    
C51   H40   S    
C1    C12   S    
C6    P4    S    
O12   P2    S    
Br5   C39   S    
C55   C72   S    
C60   C65   A    
O28   P5    S    
O16   P6    D    
C66   O12   S    
C71   H59   S    
O21   P3    D    
C32   C33   S    
C67   O9    S    
O25   P8    S    
C69   H52   S    
C61   C62   A    
Ba1   O15   S    
C21   H28   S    
C18   C19   A    
C32   H35   S    
C15   C30   S    
C5    C14   S    
C45   C56   S    
C16   H48   S    
C53   C54   A    
C44   C46   A    
C35   C38   A    
O6    P7    D    
C36   C37   A    
C14   H36   S    
C2    C13   A    
C24   C25   A    
C18   C41   A    
C29   C33   D    
C61   C65   A    
C10   C11   A    
C6    C14   D    
C9    C36   A    
C3    C5    S    
C67   H19   S    
O8    P8    D    
C41   C42   A    
C42   H33   S    
C66   C69   S    
C33   N2    S    
O4    P1    S    
O7    P7    S    
C67   C74   S    
C11   C38   A    
C28   H49   S    
C20   C21   A    
C2    O13   D    
Br3   C23   S    
C74   H21   S    
C27   N2    Am   
C37   C43   A    
C47   C48   A    
C7    H25   S    
C62   H38   S    
C34   H9    S    
C1    H2    S    
C4    O22   S    
C1    H11   S    
C70   H57   S    
C12   O18   S    
O2    P5    D    
C71   H58   S    
Br4   C3    S    
Ba1   P1    S    
O26   P4    S    
O3    P5    S    
C45   O3    S    
C39   C43   A    
Ba1   O19   S    
C12   H5    S    
C31   P1    S    
C59   H43   S    
O18   P6    S    
C3    C8    D    
C25   C26   A    
C71   H60   S    
Ba2   P4    S    
C22   C24   A    
C69   H51   S    
C57   H42   S    
C57   C58   A    
C17   C19   A    
Ba1   O5    S    
C30   P6    S    
Ba2   O4    S    
C22   C27   A    
Ba1   O4    S    
C40   H34   S    
C40   H12   S    
C16   H13   S    
C45   H14   S    
C50   P3    S    
Ba1   O1    S    
C13   C39   A    
C25   C42   A    
C70   H54   S    
C73   H66   S    
C34   H10   S    
Ba2   O5    S    
C61   P7    S    
C29   C30   S    
C35   C36   A    
C52   C64   S    
C29   H27   S    
C7    C8    S    
O22   P3    S    
C68   H4    S    
Ba2   O25   S    
C1    H6    S    
C51   C53   A    
C28   H50   S    
Ba2   O28   S    
O9    P8    S    
C66   H69   S    
C34   H8    S    
C41   H31   S    
Br1   C52   S    
