data_mof_unit_1342.cif
_audit_creation_date              2012-12-11T15:14:54-0500
_audit_creation_method            fapswitch 2.2
_symmetry_space_group_name_H-M    P1
_symmetry_Int_Tables_number       1
_space_group_crystal_system       triclinic
_cell_length_a                    11.130957
_cell_length_b                    11.129503
_cell_length_c                    18.445379
_cell_angle_alpha                 89.386215
_cell_angle_beta                  91.105781
_cell_angle_gamma                 119.765688
_cell_volume                      1983.1967692

loop_
_atom_site_label
_atom_site_type_symbol
_atom_type_description
_atom_site_fract_x
_atom_site_fract_y
_atom_site_fract_z
_atom_type_partial_charge
C1    C     C_R   0.542083 0.421738 0.638171 0.540627
C2    C     C_R   0.456790 0.520573 0.355242 0.552964
C3    C     C_R   0.481945 0.940000 0.146465 0.554223
C4    C     C_R   0.112114 0.569575 0.362391 0.526841
C5    C     C_3   0.404354 0.998377 0.475861 -0.099929
C6    C     C_3   0.592218 0.478271 0.040740 -0.154331
C7    C     C_3   0.053733 0.417116 0.486411 -0.107220
C8    C     C_3   0.474884 0.102773 0.042451 -0.146886
C9    C     C_3   0.615955 0.595972 0.477889 -0.097724
C10   C     C_3   0.932967 0.426860 0.039206 -0.124090
C11   C     C_3   0.013895 0.402396 0.979575 -0.097835
C12   C     C_R   0.934768 0.478828 0.855709 0.561124
C13   C     C_3   0.512008 0.572096 0.538162 -0.121282
C14   C     C_3   0.405695 0.007587 0.976105 -0.098364
C15   C     C_3   0.123503 0.530397 0.545408 -0.149618
C16   C     C_3   0.627558 0.593223 0.983359 -0.103471
C17   C     C_3   0.376662 0.903279 0.542621 -0.147131
C18   C     C_3   0.546230 0.104890 0.509027 -0.131504
C19   C     C_3   0.485326 0.369265 0.987243 -0.166534
C20   C     C_3   0.908915 0.386438 0.510156 -0.129949
C21   C     C_3   0.616876 0.171262 0.003652 -0.190765
C22   C     C_3   0.623129 0.466692 0.503865 -0.148570
C23   C     C_R   0.543063 0.061038 0.646317 0.553461
C24   C     C_3   0.906591 0.522618 0.987905 -0.157690
C25   C     C_3   0.149288 0.531264 0.005739 -0.147657
C26   C     C_3   0.389826 0.477498 0.487551 -0.154609
C27   C     C_3   0.437990 0.898551 0.009541 -0.131441
C28   C     C_3   0.124958 0.639576 0.491666 -0.174120
C29   C     C_3   0.511294 0.617393 0.011011 -0.131962
C30   C     C_3   0.447206 0.830788 0.504328 -0.190981
C31   C     C_3   0.515234 0.007258 0.573812 0.035025
C32   C     C_3   0.519714 0.483286 0.931919 0.035263
C33   C     C_3   0.980463 0.499912 0.568753 0.028548
C34   C     C_R   0.528006 0.449696 0.857879 0.557079
C35   C     C_3   0.547379 0.074233 0.938694 0.029100
C36   C     C_3   0.519530 0.444909 0.562773 0.025592
C37   C     C_3   0.988825 0.499034 0.929317 0.037339
C38   C     C_3   0.066974 0.553096 0.063875 0.027622
C39   C     C_3   0.493656 0.500008 0.428288 0.035488
C40   C     C_3   0.507055 0.996047 0.074074 0.034343
C41   C     C_3   0.057460 0.528094 0.434563 0.035555
C42   C     C_3   0.477397 0.502066 0.067984 0.029589
C43   C     C_3   0.476071 0.927645 0.438783 0.029229
C44   C     C_3   0.587083 0.937309 0.537134 -0.019349
C45   C     C_R   0.931734 0.479161 0.643334 0.543141
C46   C     C_3   0.405790 0.505983 0.957774 -0.038888
C47   C     C_3   0.982537 0.608128 0.515077 -0.022706
C48   C     C_3   0.579410 0.966832 0.972213 -0.006108
C49   C     C_3   0.397403 0.350227 0.512643 -0.012247
C50   C     C_3   0.121126 0.626247 0.954646 -0.032205
C51   C     C_3   0.040801 0.648900 0.013504 -0.013932
C52   C     C_3   0.499540 0.372539 0.453158 -0.032993
C53   C     C_3   0.647778 0.062468 0.036685 -0.019376
C54   C     C_3   0.915245 0.497682 0.456440 -0.025402
C55   C     C_3   0.371511 0.393353 0.014665 -0.019911
C56   C     C_R   0.576835 0.119897 0.862743 0.544319
C57   C     C_3   0.616247 0.032686 0.472105 -0.004297
C58   C     C_1   0.687290 0.908752 0.574976 0.222425
C59   C     C_1   0.317593 0.507329 0.897468 0.215401
C60   C     C_1   0.958141 0.723119 0.529167 0.222323
C61   C     C_1   0.641948 0.900578 0.930597 0.239727
C62   C     C_1   0.276595 0.217989 0.532433 0.219189
C63   C     C_1   0.208442 0.724464 0.898714 0.212184
C64   C     C_1   0.052395 0.781469 0.033335 0.219745
C65   C     C_1   0.489649 0.276099 0.396418 0.211194
C66   C     C_1   0.776496 0.088781 0.073446 0.222211
C67   C     C_R   0.452421 0.520756 0.143428 0.542712
C68   C     C_1   0.823957 0.489751 0.395706 0.237150
C69   C     C_1   0.235472 0.275618 0.030389 0.221925
C70   C     C_1   0.746299 0.097007 0.431743 0.239316
C71   C     C_R   0.457823 0.881062 0.362897 0.537396
C72   C     C_R   0.117241 0.576856 0.138041 0.542011
Cr1   Cr    Cr6+3 0.769930 0.543130 0.750000 1.073945
Cr2   Cr    Cr6+3 0.773200 0.230070 0.750000 1.063703
Cr3   Cr    Cr6+3 0.456870 0.226800 0.750000 1.061524
Cr4   Cr    Cr6+3 0.543130 0.769930 0.250000 1.061497
Cr5   Cr    Cr6+3 0.230070 0.773200 0.250000 1.061351
Cr6   Cr    Cr6+3 0.226800 0.456870 0.250000 1.075219
H1    H     H_    0.589683 0.216420 0.517375 0.085163
H2    H     H_    0.194598 0.740134 0.467718 0.125360
H3    H     H_    0.522540 0.715956 0.029561 0.119790
H4    H     H_    0.401640 0.718951 0.497726 0.096765
H5    H     H_    0.324061 0.017289 0.450573 0.159755
H6    H     H_    0.664966 0.464249 0.077099 0.132824
H7    H     H_    0.077244 0.334412 0.472253 0.161677
H8    H     H_    0.431040 0.153602 0.075896 0.150684
H9    H     H_    0.703061 0.696571 0.459993 0.161704
H10   H     H_    0.860372 0.355227 0.079947 0.146598
H11   H     H_    0.001575 0.301650 0.962369 0.161490
H12   H     H_    0.464266 0.271430 0.962985 0.130243
H13   H     H_    0.510910 0.643938 0.578734 0.145898
H14   H     H_    0.307105 0.990295 0.950914 0.161053
H15   H     H_    0.208755 0.546170 0.583342 0.135103
H16   H     H_    0.733034 0.675241 0.968509 0.163666
H17   H     H_    0.283077 0.856361 0.576781 0.152399
H18   H     H_    0.821680 0.285939 0.526339 0.120070
H19   H     H_    0.682693 0.282610 0.995510 0.098423
H20   H     H_    0.709203 0.454535 0.524357 0.090988
H21   H     H_    0.808324 0.516631 0.972691 0.109885
H22   H     H_    0.246069 0.543357 0.028286 0.093739
H23   H     H_    0.300955 0.489329 0.473199 0.102981
H24   H     H_    0.366154 0.787705 0.018209 0.086089
N1    N     N_1   0.765366 0.887456 0.606677 -0.222162
N2    N     N_1   0.757731 0.487603 0.346097 -0.252460
N3    N     N_1   0.128696 0.181127 0.042374 -0.230761
N4    N     N_1   0.847456 0.145592 0.399043 -0.259522
N5    N     N_1   0.250434 0.503829 0.847992 -0.260486
N6    N     N_1   0.941732 0.815929 0.539783 -0.233691
N7    N     N_1   0.692204 0.851642 0.896137 -0.265977
N8    N     N_1   0.181263 0.113900 0.548244 -0.251258
N9    N     N_1   0.275035 0.798771 0.853182 -0.246363
N10   N     N_1   0.061258 0.885803 0.049224 -0.248330
N11   N     N_1   0.482657 0.203087 0.350299 -0.243553
N12   N     N_1   0.876047 0.108402 0.104170 -0.222038
O1    O     O_R   0.913270 0.574260 0.668550 -0.502627
O2    O     O_R   0.574260 0.913270 0.331450 -0.482085
O3    O     O_R   0.086730 0.660990 0.168550 -0.490571
O4    O     O_R   0.339010 0.425740 0.331450 -0.509035
O5    O     O_R   0.640160 0.530400 0.673300 -0.477923
O6    O     O_R   0.890240 0.359840 0.826700 -0.511198
O7    O     O_R   0.469600 0.109760 0.673300 -0.504879
O8    O     O_R   0.640160 0.530400 0.826700 -0.494682
O9    O     O_R   0.890240 0.359840 0.673300 -0.498770
O10   O     O_R   0.469600 0.109760 0.826700 -0.488646
O11   O     O_R   0.530400 0.640160 0.173300 -0.497509
O12   O     O_R   0.660990 0.086730 0.831450 -0.483580
O13   O     O_R   0.359840 0.890240 0.326700 -0.494713
O14   O     O_R   0.109760 0.469600 0.173300 -0.475012
O15   O     O_R   0.530400 0.640160 0.326700 -0.513545
O16   O     O_R   0.359840 0.890240 0.173300 -0.504439
O17   O     O_R   0.109760 0.469600 0.326700 -0.479668
O18   O     O_3   0.666667 0.333333 0.750000 -0.345475
O19   O     O_3   0.333333 0.666667 0.250000 -0.351520
O20   O     O_R   0.425740 0.339010 0.668550 -0.491933
O21   O     O_R   0.913270 0.574260 0.831450 -0.506582
O22   O     O_R   0.660990 0.086730 0.668550 -0.504457
O23   O     O_R   0.425740 0.339010 0.831450 -0.509635
O24   O     O_R   0.574260 0.913270 0.168550 -0.502593
O25   O     O_R   0.086730 0.660990 0.331450 -0.498121
O26   O     O_R   0.339010 0.425740 0.168550 -0.504094

loop_
_geom_bond_atom_site_label_1
_geom_bond_atom_site_label_2
_ccdc_geom_bond_type
C27   C48   S    
C28   C47   S    
C13   C26   S    
C22   H20   S    
Cr2   O18   S    
C29   C42   S    
C24   H21   S    
C33   C45   S    
Cr6   O14   S    
C2    O4    A    
Cr3   O20   S    
C23   O7    A    
Cr2   O12   S    
C45   O9    A    
C6    C19   S    
C10   H10   S    
C23   O22   A    
C72   O14   A    
Cr1   O5    S    
C56   O10   A    
Cr6   O4    S    
Cr5   O3    S    
C67   O11   A    
C26   H23   S    
C42   C55   S    
C9    C22   S    
C64   N10   T    
C5    C17   S    
C4    C41   S    
C35   C48   S    
C3    O16   A    
C28   C41   S    
C9    C39   S    
C2    O15   A    
C1    O5    A    
C12   C37   S    
C11   C37   S    
C9    C13   S    
C25   C50   S    
C18   C57   S    
C47   C60   S    
C12   O6    A    
C2    C39   S    
C20   H18   S    
Cr1   O21   S    
C44   C58   S    
C18   H1    S    
C12   O21   A    
Cr2   O22   S    
C46   C55   S    
C8    C14   S    
C17   H17   S    
C56   O12   A    
C14   C27   S    
C44   C57   S    
C60   N6    T    
C32   C46   S    
C24   C51   S    
C7    C15   S    
Cr2   O9    S    
C5    C43   S    
Cr1   O18   S    
C61   N7    T    
C34   O8    A    
C13   H13   S    
C17   C30   S    
C30   C44   S    
Cr5   O19   S    
C28   H2    S    
C19   C32   S    
C72   O3    A    
C18   C31   S    
C50   C51   S    
C4    O17   A    
C50   C63   S    
C48   C53   S    
C38   C72   S    
C6    H6    S    
C31   C44   S    
Cr3   O10   S    
Cr5   O25   S    
C13   C36   S    
C20   C54   S    
C70   N4    T    
C26   C49   S    
C14   C35   S    
C69   N3    T    
C38   C51   S    
C71   O13   A    
C10   C24   S    
C16   C29   S    
C59   N5    T    
Cr6   O26   S    
C32   C34   S    
C30   H4    S    
Cr6   O17   S    
C36   C49   S    
C29   H3    S    
C8    C21   S    
C25   C38   S    
C21   H19   S    
Cr4   O15   S    
C45   O1    A    
C25   H22   S    
C62   N8    T    
C27   C40   S    
C49   C52   S    
C11   H11   S    
C24   C37   S    
C3    O24   A    
C53   C66   S    
C14   H14   S    
C55   C69   S    
C47   C54   S    
C21   C35   S    
C20   C33   S    
C27   H24   S    
C3    C40   S    
C40   C53   S    
Cr3   O23   S    
C42   C67   S    
C33   C47   S    
C30   C43   S    
C65   N11   T    
C1    O20   A    
Cr2   O6    S    
Cr3   O18   S    
C22   C52   S    
C19   C55   S    
C67   O26   A    
C43   C71   S    
C49   C62   S    
C66   N12   T    
C35   C56   S    
Cr3   O7    S    
Cr4   O11   S    
Cr1   O8    S    
C51   C64   S    
C68   N2    T    
Cr5   O13   S    
C15   H15   S    
Cr4   O19   S    
C5    H5    S    
C5    C18   S    
Cr4   O24   S    
C16   C32   S    
C22   C36   S    
C34   O23   A    
C16   H16   S    
Cr1   O1    S    
C29   C46   S    
C10   C38   S    
C19   H12   S    
C9    H9    S    
C4    O25   A    
C21   C53   S    
C37   C50   S    
C15   C28   S    
C7    H7    S    
C17   C31   S    
Cr4   O2    S    
C71   O2    A    
C39   C52   S    
C8    H8    S    
Cr5   O16   S    
C7    C41   S    
C63   N9    T    
C26   C39   S    
Cr6   O19   S    
C41   C54   S    
C10   C11   S    
C43   C57   S    
C57   C70   S    
C6    C16   S    
C54   C68   S    
C46   C59   S    
C7    C20   S    
C6    C42   S    
C48   C61   S    
C11   C25   S    
C58   N1    T    
C8    C40   S    
C15   C33   S    
C52   C65   S    
C1    C36   S    
C23   C31   S    
