data_mof_unit_4179.cif
_audit_creation_date              2012-12-10T20:38:15-0500
_audit_creation_method            fapswitch 2.2
_symmetry_space_group_name_H-M    P1
_symmetry_Int_Tables_number       1
_space_group_crystal_system       triclinic
_cell_length_a                    9.900843
_cell_length_b                    10.659524
_cell_length_c                    16.720392
_cell_angle_alpha                 90.90204
_cell_angle_beta                  85.430432
_cell_angle_gamma                 90.869459
_cell_volume                      1758.6425671

loop_
_atom_site_label
_atom_site_type_symbol
_atom_type_description
_atom_site_fract_x
_atom_site_fract_y
_atom_site_fract_z
_atom_type_partial_charge
C1    C     C_R   0.500445 0.739579 0.501683 0.937993
C2    C     C_R   0.362021 0.489531 0.789493 0.710657
C3    C     C_R   0.465518 0.672555 0.161561 0.691368
C4    C     C_R   0.447487 0.625842 0.238155 -0.241109
C5    C     C_R   0.634477 0.481556 0.208354 0.458676
C6    C     C_R   0.652755 0.527920 0.130411 0.418952
C7    C     C_R   0.565327 0.622703 0.106599 -0.222819
C8    C     C_2   0.448354 0.628577 0.986056 -0.068767
C9    C     C_2   0.561674 0.654944 0.022310 -0.096158
C10   C     C_R   0.530875 0.531227 0.262294 -0.331600
C11   C     C_R   0.417275 0.933546 0.458688 -0.194381
C12   C     C_R   0.481498 0.502861 0.653174 0.880385
C13   C     C_R   0.498084 0.871606 0.508875 -0.216560
C14   C     C_R   0.562333 0.938090 0.569640 0.422276
C15   C     C_R   0.559896 0.068733 0.570230 0.461489
C16   C     C_R   0.493254 0.129353 0.510051 -0.316642
C17   C     C_R   0.414165 0.061374 0.459426 -0.109464
C18   C     C_3   0.409561 0.064947 0.369791 0.959329
C19   C     C_3   0.412600 0.922320 0.369617 0.390688
C20   C     C_R   0.926194 0.598620 0.532698 0.118091
C21   C     C_R   0.930556 0.408692 0.461361 -0.042452
C22   C     C_R   0.073764 0.408899 0.459949 0.475040
C23   C     C_R   0.498786 0.260601 0.501504 0.924967
C24   C     C_R   0.068352 0.598336 0.533038 0.019328
C25   C     C_3   0.062113 0.643830 0.618051 0.502045
C26   C     C_3   0.908870 0.644507 0.617459 -0.525114
C27   C     C_R   0.518657 0.501303 0.346895 0.959510
C28   C     C_R   0.471304 0.532730 0.738380 -0.182633
C29   C     C_R   0.566794 0.616417 0.767383 -0.267408
C30   C     C_R   0.554358 0.656668 0.846533 -0.094094
C31   C     C_R   0.449705 0.608450 0.899173 0.042706
C32   C     C_R   0.351912 0.526966 0.869855 -0.227544
H1    H     H_    0.650210 0.652852 0.728530 0.185107
H2    H     H_    0.318373 0.875618 0.351604 0.111053
H3    H     H_    0.878403 0.334344 0.430882 0.182665
H4    H     H_    0.370008 0.666534 0.279672 0.207424
H5    H     H_    0.109397 0.738143 0.625234 0.084033
H6    H     H_    0.856710 0.574448 0.658138 0.246005
H7    H     H_    0.866353 0.740411 0.622299 0.204604
H8    H     H_    0.656511 0.677767 0.988646 0.143246
H9    H     H_    0.270509 0.488794 0.909807 0.181616
H10   H     H_    0.357786 0.598381 0.022248 0.181705
H11   H     H_    0.628207 0.723887 0.865946 0.168416
N1    N     N_R   0.857140 0.500860 0.500530 -0.130748
N2    N     N_R   0.142780 0.500820 0.500530 -0.148860
O1    O     O_R   0.385310 0.683210 0.499990 -0.637328
O2    O     O_R   0.614650 0.683240 0.500000 -0.597703
O3    O     O_R   0.371780 0.500000 0.615800 -0.515198
O4    O     O_R   0.601120 0.500040 0.615800 -0.641178
O5    O     O_R   0.385350 0.316760 0.500000 -0.583780
O6    O     O_R   0.614690 0.316790 0.500010 -0.625676
O7    O     O_R   0.398880 0.499960 0.384200 -0.645991
O8    O     O_R   0.628220 0.500000 0.384200 -0.596686
Zn1   Zn    Zn3+2 0.346870 0.499980 0.499990 1.034797
Zn2   Zn    Zn3+2 0.653130 0.500020 0.500010 0.992920
O9    O     O_3   0.751968 0.472388 0.079191 -0.658691
H12   H     H_    0.757312 0.511444 0.025942 0.338119
O10   O     O_3   0.627762 0.880428 0.628728 -0.712431
H13   H     H_    0.598883 0.791494 0.631730 0.309846
O11   O     O_3   0.623873 0.132456 0.629543 -0.671404
H14   H     H_    0.589692 0.219159 0.634816 0.334716
F1    F     F_    0.288609 0.110383 0.346944 -0.603719
O12   O     O_3   0.522774 0.123221 0.328610 -0.723580
H15   H     H_    0.606059 0.094852 0.351959 0.339214
F2    F     F_    0.530676 0.873038 0.332432 -0.644969
O13   O     O_3   0.139410 0.313676 0.417479 -0.678021
H16   H     H_    0.232124 0.342996 0.401962 0.397625
F3    F     F_    0.104911 0.554595 0.669268 -0.572907
O14   O     O_3   0.717666 0.385835 0.228397 -0.648753
H17   H     H_    0.675706 0.341979 0.276040 0.351414
F4    F     F_    0.383305 0.765164 0.140215 -0.606079
F5    F     F_    0.268681 0.407941 0.762588 -0.587577

loop_
_geom_bond_atom_site_label_1
_geom_bond_atom_site_label_2
_ccdc_geom_bond_type
C10   C27   S    
C8    C9    D    
C3    F4    S    
C32   H9    S    
C27   O8    A    
C19   F2    S    
C6    C7    A    
C21   H3    S    
C21   N1    A    
C15   O11   S    
C3    C7    A    
C31   C32   A    
C30   C31   A    
C12   O3    A    
O4    Zn2   S    
O1    Zn1   S    
C4    H4    S    
C12   O4    A    
O10   H13   S    
C5    C10   A    
C18   F1    S    
O5    Zn1   S    
C13   C14   A    
O9    H12   S    
O3    Zn1   S    
C11   C13   A    
N1    Zn2   S    
C11   C19   S    
C1    O1    A    
C29   C30   A    
C25   F3    S    
C20   C26   S    
C12   C28   S    
C2    F5    S    
C24   N2    A    
C2    C32   A    
C28   C29   A    
C20   N1    A    
C8    H10   S    
N2    Zn1   S    
C17   C18   S    
C16   C23   S    
O6    Zn2   S    
O14   H17   S    
O8    Zn2   S    
C1    O2    A    
C5    C6    A    
C30   H11   S    
C26   H7    S    
C1    C13   S    
C4    C10   A    
C15   C16   A    
C16   C17   A    
C29   H1    S    
C22   N2    A    
O13   H16   S    
C24   C25   S    
C27   O7    A    
O2    Zn2   S    
C18   O12   S    
C6    O9    S    
C7    C9    S    
C18   C19   S    
C20   C24   A    
C14   C15   A    
C26   H6    S    
C23   O5    A    
C2    C28   A    
C25   H5    S    
C25   C26   S    
C21   C22   A    
C8    C31   S    
C5    O14   S    
C19   H2    S    
C9    H8    S    
C22   O13   S    
C23   O6    A    
O12   H15   S    
C14   O10   S    
O7    Zn1   S    
O11   H14   S    
C3    C4    A    
C11   C17   A    
