data_mof_unit_770.cif
_audit_creation_date              2012-12-10T17:03:01-0500
_audit_creation_method            fapswitch 2.2
_symmetry_space_group_name_H-M    P1
_symmetry_Int_Tables_number       1
_space_group_crystal_system       triclinic
_cell_length_a                    9.899222
_cell_length_b                    11.134229
_cell_length_c                    13.368467
_cell_angle_alpha                 95.43831
_cell_angle_beta                  80.977884
_cell_angle_gamma                 111.372258
_cell_volume                      1354.03685677

loop_
_atom_site_label
_atom_site_type_symbol
_atom_type_description
_atom_site_fract_x
_atom_site_fract_y
_atom_site_fract_z
_atom_type_partial_charge
C1    C     C_R   0.555915 0.743905 0.507844 0.847987
C2    C     C_R   0.439874 0.507296 0.973287 0.106173
C3    C     C_R   0.475764 0.545630 0.871778 0.084402
C4    C     C_R   0.551468 0.549859 0.038190 0.020222
C5    C     C_R   0.692909 0.640885 0.004606 0.082564
C6    C     C_R   0.716391 0.693111 0.907791 -0.032428
C7    C     C_R   0.608940 0.645404 0.843709 -0.277690
C8    C     C_R   0.525740 0.501701 0.135264 -0.290528
C9    C     C_R   0.770876 0.631951 0.169015 0.095955
C10   C     C_R   0.375611 0.485528 0.800982 -0.093137
C11   C     C_2   0.580496 0.879459 0.522845 -0.343675
C12   C     C_R   0.423147 0.492557 0.690834 0.769223
C13   C     C_2   0.522192 0.938498 0.467643 0.161854
C14   C     C_2   0.420199 0.115329 0.485438 -0.250313
C15   C     C_2   0.528004 0.071253 0.499385 -0.072332
C16   C     C_2   0.925470 0.492184 0.489822 0.181648
C17   C     C_2   0.069791 0.498520 0.516146 0.237013
C18   C     C_R   0.443848 0.254443 0.494142 0.813650
C19   C     C_R   0.579007 0.516354 0.309695 0.835425
C20   C     C_R   0.804263 0.677025 0.069509 0.100151
C21   C     C_R   0.629511 0.546885 0.202230 -0.070215
C22   C     C_R   0.232897 0.405165 0.835453 -0.181872
C23   C     C_R   0.191160 0.380020 0.937572 -0.135613
C24   C     C_R   0.293125 0.428153 0.005708 -0.178084
Cu1   Cu    Cu3+1 0.362000 0.479240 0.482530 0.950941
Cu2   Cu    Cu3+1 0.638000 0.520760 0.517470 0.979513
H1    H     H_    0.637803 0.928110 0.586468 0.127500
H2    H     H_    0.125903 0.411854 0.385763 0.179944
H3    H     H_    0.423507 0.428443 0.162087 0.160833
H4    H     H_    0.154351 0.358693 0.783034 0.155441
H5    H     H_    0.252091 0.403877 0.083473 0.131368
H6    H     H_    0.080055 0.319100 0.963716 0.152468
H7    H     H_    0.629112 0.690230 0.771710 0.154209
N1    N     N_2   0.845330 0.551960 0.543750 -0.142625
N2    N     N_2   0.154690 0.448120 0.456210 -0.314294
O1    O     O_R   0.426290 0.668220 0.490680 -0.553809
O2    O     O_R   0.659360 0.703290 0.520190 -0.594295
O3    O     O_R   0.326580 0.473880 0.629020 -0.601200
O4    O     O_R   0.559660 0.508940 0.658530 -0.572301
O5    O     O_R   0.340640 0.296710 0.479810 -0.560870
O6    O     O_R   0.573710 0.331780 0.509320 -0.565632
O7    O     O_R   0.440340 0.491060 0.341470 -0.588753
O8    O     O_R   0.673420 0.526120 0.370980 -0.541300
N3    N     N_3   0.878887 0.675551 0.237519 -0.561234
H8    H     H_    0.968718 0.649752 0.206716 0.222149
H9    H     H_    0.912815 0.775984 0.246999 0.221750
N4    N     N_3   0.464075 0.876299 0.375676 -0.527821
H10   H     H_    0.455310 0.944868 0.331392 0.215109
H11   H     H_    0.542611 0.844411 0.331647 0.205261
C25   C     C_1   0.279691 0.027821 0.459407 0.292632
N5    N     N_1   0.167448 0.958085 0.438807 -0.273794
N6    N     N_3   0.104270 0.550852 0.614908 -0.532265
H12   H     H_    0.090266 0.476201 0.661650 0.238262
H13   H     H_    0.207475 0.622922 0.611092 0.271570
C26   C     C_1   0.866444 0.404986 0.407231 0.251799
N7    N     N_1   0.820516 0.334928 0.340806 -0.305422
N8    N     N_3   0.912780 0.657201 0.606018 -0.459153
H14   H     H_    0.904264 0.738513 0.578581 0.254692
H15   H     H_    0.851536 0.641849 0.677734 0.242658
C27   C     C_1   0.846967 0.798192 0.870598 0.287836
N9    N     N_1   0.951006 0.882286 0.840244 -0.273596
N10   N     N_3   0.951329 0.758167 0.034633 -0.586736
H16   H     H_    0.021956 0.708727 0.038537 0.225819
H17   H     H_    0.980645 0.842017 0.081155 0.222842
C28   C     C_1   0.652633 0.150015 0.551130 0.296257
N11   N     N_1   0.751146 0.211016 0.592914 -0.296129

loop_
_geom_bond_atom_site_label_1
_geom_bond_atom_site_label_2
_ccdc_geom_bond_type
Cu1   O7    S    
H2    N2    S    
N1    N8    S    
C2    C4    A    
C23   C24   A    
Cu2   O2    S    
N10   H16   S    
C1    O2    A    
Cu1   O3    S    
C19   O8    A    
C11   C13   D    
C14   C18   S    
C9    C20   A    
N4    H10   S    
C1    C11   S    
C19   O7    A    
C11   H1    S    
C26   N7    T    
C23   H6    S    
C12   O4    A    
C25   N5    T    
C24   H5    S    
N4    H11   S    
C3    C10   A    
C10   C22   A    
C20   N10   S    
C7    H7    S    
C9    C21   A    
N8    H14   S    
C14   C25   S    
C10   C12   S    
Cu1   N2    S    
C8    H3    S    
C17   N6    S    
C17   N2    D    
C19   C21   S    
N6    H13   S    
Cu2   O8    S    
C2    C3    A    
C6    C7    A    
C3    C7    A    
C13   C15   S    
Cu1   O5    S    
C2    C24   A    
C5    C6    A    
Cu2   O4    S    
N8    H15   S    
C16   C17   S    
Cu1   O1    S    
C15   C28   S    
C12   O3    A    
C6    C27   S    
N6    H12   S    
Cu2   O6    S    
C13   N4    S    
C28   N11   T    
C18   O6    A    
C4    C8    A    
C5    C20   A    
C18   O5    A    
C14   C15   D    
C4    C5    A    
C9    N3    S    
N10   H17   S    
C22   H4    S    
C16   N1    D    
Cu1   Cu2   S    
C22   C23   A    
C16   C26   S    
Cu2   N1    S    
N3    H8    S    
C1    O1    A    
N3    H9    S    
C27   N9    T    
C8    C21   A    
