data_mof_unit_2782.cif
_audit_creation_date              2012-12-10T16:59:19-0500
_audit_creation_method            fapswitch 2.2
_symmetry_space_group_name_H-M    P1
_symmetry_Int_Tables_number       1
_space_group_crystal_system       triclinic
_cell_length_a                    7.757355
_cell_length_b                    8.553205
_cell_length_c                    27.773571
_cell_angle_alpha                 90.961733
_cell_angle_beta                  85.824433
_cell_angle_gamma                 94.13191
_cell_volume                      1832.99151184

loop_
_atom_site_label
_atom_site_type_symbol
_atom_type_description
_atom_site_fract_x
_atom_site_fract_y
_atom_site_fract_z
_atom_type_partial_charge
C1    C     C_R   0.546158 0.794859 0.498714 0.970590
C2    C     C_R   0.453842 0.205141 0.501285 0.970590
C3    C     C_R   0.499865 0.493992 0.897949 -0.114225
C4    C     C_R   0.500129 0.505977 0.102043 -0.114213
C5    C     C_R   0.552480 0.630893 0.871159 -0.080960
C6    C     C_R   0.447518 0.369068 0.128830 -0.080972
C7    C     C_R   0.616177 0.766789 0.895233 0.254720
C8    C     C_R   0.383882 0.233159 0.104751 0.254734
C9    C     C_R   0.447129 0.353920 0.873461 -0.075562
C10   C     C_R   0.552835 0.646050 0.126535 -0.075573
C11   C     C_R   0.503425 0.484202 0.646089 -0.139843
C12   C     C_R   0.496580 0.515773 0.353910 -0.139848
C13   C     C_R   0.561423 0.638373 0.024281 0.036462
C14   C     C_R   0.438582 0.361609 0.975710 0.036453
C15   C     C_R   0.441020 0.363810 0.026822 0.034209
C16   C     C_R   0.559045 0.636152 0.973164 0.034208
C17   C     C_R   0.500607 0.502768 0.050878 0.081067
C18   C     C_R   0.499415 0.497204 0.949111 0.081071
C19   C     C_R   0.627501 0.771113 0.049762 -0.258622
C20   C     C_R   0.372398 0.228903 0.950236 -0.258633
C21   C     C_R   0.624571 0.776166 0.099670 0.243677
C22   C     C_R   0.375354 0.223825 0.900329 0.243672
C23   C     C_R   0.500961 0.494563 0.593761 0.912397
C24   C     C_R   0.499040 0.505435 0.406239 0.912392
C25   C     C_R   0.615493 0.768890 0.945107 -0.257852
C26   C     C_R   0.384662 0.231040 0.054873 -0.257865
C27   C     C_2   0.570259 0.958671 0.497944 -0.347718
C28   C     C_2   0.429741 0.041328 0.502055 -0.347714
C29   C     C_R   0.537718 0.626001 0.821130 0.588480
C30   C     C_R   0.462255 0.373952 0.178861 0.588484
C31   C     C_R   0.468752 0.350336 0.822863 0.562579
C32   C     C_R   0.531220 0.649617 0.177135 0.562583
C33   C     C_R   0.360643 0.428551 0.724745 -0.118474
C34   C     C_R   0.639353 0.571346 0.275249 -0.118496
C35   C     C_R   0.356290 0.425233 0.674885 0.157782
C36   C     C_R   0.643729 0.574671 0.325110 0.157816
C37   C     C_R   0.656191 0.533476 0.667809 -0.246749
C38   C     C_R   0.343801 0.466519 0.332191 -0.246765
C39   C     C_R   0.661916 0.530661 0.717713 0.251434
C40   C     C_R   0.338072 0.469301 0.282285 0.251439
C41   C     C_R   0.511409 0.481937 0.746434 0.187166
C42   C     C_R   0.488579 0.517992 0.253561 0.187175
H1    H     H_    0.771317 0.575117 0.646005 0.193039
H2    H     H_    0.228666 0.424920 0.353998 0.193054
H3    H     H_    0.013858 0.383377 0.463407 0.199256
H4    H     H_    0.986142 0.616623 0.536593 0.199254
H5    H     H_    0.753330 0.612820 0.252985 0.196157
H6    H     H_    0.246659 0.387039 0.747008 0.196163
H7    H     H_    0.687103 0.874121 0.032177 0.160971
H8    H     H_    0.312682 0.125958 0.967828 0.160994
H9    H     H_    0.661797 0.878562 0.960469 0.159625
H10   H     H_    0.338530 0.121329 0.039499 0.159605
N1    N     N_R   0.509044 0.485777 0.797999 -0.355065
N2    N     N_R   0.490930 0.514170 0.201995 -0.355066
N3    N     N_2   0.950320 0.457960 0.486880 -0.159770
N4    N     N_2   0.049680 0.542040 0.513120 -0.159771
O1    O     O_R   0.389250 0.738570 0.503220 -0.613273
O2    O     O_R   0.610750 0.261430 0.496780 -0.613274
O3    O     O_R   0.678390 0.711630 0.494810 -0.623135
O4    O     O_R   0.321610 0.288370 0.505190 -0.623132
O5    O     O_R   0.355440 0.513440 0.575450 -0.590828
O6    O     O_R   0.644560 0.486560 0.424550 -0.590829
O7    O     O_R   0.644590 0.486500 0.567040 -0.627868
O8    O     O_R   0.355410 0.513500 0.432960 -0.627868
O9    O     O_2   0.547907 0.759117 0.795503 -0.458794
O10   O     O_2   0.452058 0.240831 0.204486 -0.458793
O11   O     O_2   0.546402 0.786489 0.201696 -0.465734
O12   O     O_2   0.453586 0.213455 0.798309 -0.465744
Zn1   Zn    Zn3+2 0.306940 0.517990 0.505620 0.988261
Zn2   Zn    Zn3+2 0.693060 0.482010 0.494380 0.988260
I1    I     I_    0.901813 0.597022 0.747312 -0.228314
I2    I     I_    0.098173 0.402932 0.252686 -0.228303
I3    I     I_    0.741234 0.971345 0.861184 -0.152118
I4    I     I_    0.258737 0.028628 0.138793 -0.152157
I5    I     I_    0.871808 0.685574 0.352672 -0.266126
I6    I     I_    0.128230 0.314291 0.647315 -0.266113
I7    I     I_    0.755653 0.981433 0.128501 -0.183184
I8    I     I_    0.244285 0.018551 0.871501 -0.183215
H11   H     H_    0.702626 0.010632 0.494003 0.186370
H12   H     H_    0.297374 0.989368 0.505996 0.186371

loop_
_geom_bond_atom_site_label_1
_geom_bond_atom_site_label_2
_ccdc_geom_bond_type
N3    N4    D    
C8    C26   A    
C14   C18   A    
C34   C42   A    
C21   I7    S    
C39   C41   A    
C30   N2    A    
C19   C21   A    
C1    O1    A    
C1    O3    A    
C2    O4    A    
C9    C22   A    
O6    Zn2   S    
C3    C18   A    
C11   C37   A    
C20   H8    S    
C12   C36   A    
C23   O7    A    
C24   O8    A    
C32   N2    A    
C5    C29   A    
C10   C21   A    
C31   O12   S    
C35   I6    S    
C13   C19   A    
C14   C20   A    
C22   I8    S    
C4    C6    A    
C5    C7    A    
O2    Zn2   S    
C15   C26   A    
C6    C8    A    
C37   H1    S    
C25   H9    S    
C38   H2    S    
C3    C9    A    
C36   I5    S    
C26   H10   S    
C19   H7    S    
O7    Zn2   S    
C7    I3    S    
C8    I4    S    
O8    Zn1   S    
C31   N1    A    
C41   N1    S    
C30   O10   S    
C32   O11   S    
C29   O9    S    
C4    C17   A    
C6    C30   A    
C20   C22   A    
C4    C10   A    
O5    Zn1   S    
C16   C25   A    
C15   C17   A    
C24   O6    A    
C40   I2    S    
C40   C42   A    
C3    C5    A    
C2    O2    A    
C12   C24   S    
C27   H11   S    
C7    C25   A    
C13   C17   A    
C33   C41   A    
C11   C35   A    
C37   C39   A    
C42   N2    S    
C38   C40   A    
C29   N1    A    
O4    Zn1   S    
C11   C23   S    
C33   C35   A    
C34   C36   A    
C12   C38   A    
C28   H12   S    
N3    Zn2   S    
C9    C31   A    
O3    Zn2   S    
C10   C32   A    
C23   O5    A    
H3    N3    S    
C16   C18   A    
N4    Zn1   S    
C13   C16   A    
H4    N4    S    
C27   C28   D    
C1    C27   S    
C33   H6    S    
C39   I1    S    
C14   C15   A    
C2    C28   S    
C34   H5    S    
O1    Zn1   S    
