data_mof_unit_2978.cif
_audit_creation_date              2012-10-26T21:10:51-0400
_audit_creation_method            fapswitch 2.2
_symmetry_space_group_name_H-M    P1
_symmetry_Int_Tables_number       1
_space_group_crystal_system       triclinic
_cell_length_a                    10.930228
_cell_length_b                    14.804455
_cell_length_c                    15.504776
_cell_angle_alpha                 63.216997
_cell_angle_beta                  105.148147
_cell_angle_gamma                 102.820074
_cell_volume                      2146.09360917

loop_
_atom_site_label
_atom_site_type_symbol
_atom_type_description
_atom_site_fract_x
_atom_site_fract_y
_atom_site_fract_z
_atom_type_partial_charge
C1    C     C_R   0.478313 0.121361 0.313608 0.542270
C2    C     C_R   0.539017 0.785173 0.958983 -0.135708
C3    C     C_R   0.390753 0.154232 0.138223 -0.201881
C4    C     C_R   0.545688 0.848211 0.861220 -0.188159
C5    C     C_R   0.469758 0.299661 0.177491 0.306621
C6    C     C_R   0.469779 0.702969 0.819372 0.307098
C7    C     C_R   0.410905 0.364733 0.081675 -0.020167
C8    C     C_R   0.447047 0.640755 0.916544 -0.024517
C9    C     C_R   0.343801 0.322100 0.015025 -0.042349
C10   C     C_R   0.491119 0.681792 0.987709 -0.044186
C11   C     C_R   0.419074 0.471622 0.049408 -0.090666
C12   C     C_R   0.517536 0.878843 0.686042 0.565000
C13   C     C_R   0.395994 0.535556 0.948145 -0.085109
C14   C     C_R   0.312137 0.492285 0.885955 0.314203
C15   C     C_R   0.435663 0.516475 0.114975 0.339709
C16   C     C_R   0.263042 0.999981 0.501068 0.546585
C17   C     C_R   0.736137 0.001606 0.496455 0.538329
C18   C     C_R   0.285397 0.385467 0.920448 0.268737
C19   C     C_R   0.486053 0.618705 0.087012 0.294620
C20   C     C_R   0.715476 0.280580 0.668985 0.229425
C21   C     C_R   0.293015 0.718251 0.329867 0.218581
C22   C     C_R   0.689751 0.205170 0.633377 0.192025
C23   C     C_R   0.868788 0.002637 0.491762 -0.006864
C24   C     C_R   0.325032 0.800690 0.356068 0.189381
C25   C     C_R   0.515617 0.284700 0.514082 0.016059
C26   C     C_R   0.476174 0.710709 0.495311 0.012972
C27   C     C_R   0.549619 0.370290 0.538588 -0.040029
C28   C     C_R   0.452505 0.627713 0.468025 -0.040102
C29   C     C_R   0.647539 0.364509 0.620143 0.019079
C30   C     C_R   0.360589 0.634650 0.382758 0.019316
C31   C     C_R   0.488175 0.460120 0.486327 0.057650
C32   C     C_R   0.518269 0.539446 0.520078 0.075528
C33   C     C_R   0.616855 0.529702 0.601531 -0.135181
C34   C     C_R   0.129117 0.001457 0.501398 0.001167
C35   C     C_R   0.400087 0.473808 0.399503 -0.059001
C36   C     C_R   0.679813 0.443900 0.650605 -0.130351
C37   C     C_R   0.338135 0.559172 0.348533 -0.015231
C38   C     C_R   0.326915 0.195904 0.679266 -0.165901
C39   C     C_R   0.637845 0.890550 0.267222 -0.154303
C40   C     C_R   0.262713 0.120479 0.647464 -0.070907
C41   C     C_R   0.728722 0.942295 0.316018 -0.069625
C42   C     C_R   0.174398 0.146695 0.558729 0.004563
C43   C     C_R   0.813910 0.888413 0.400581 0.017748
C44   C     C_R   0.147072 0.247981 0.505073 -0.064404
C45   C     C_R   0.905796 0.942382 0.455607 -0.031671
C46   C     C_R   0.813373 0.783568 0.431412 -0.096214
C47   C     C_R   0.202208 0.322007 0.540335 0.295617
C48   C     C_R   0.726361 0.731667 0.378792 0.280632
C49   C     C_R   0.297931 0.296286 0.625719 -0.121413
C50   C     C_R   0.635479 0.785854 0.299544 -0.075936
C51   C     C_R   0.961526 0.064804 0.526816 -0.154613
C52   C     C_R   0.035300 0.938561 0.465849 -0.146031
C53   C     C_3   0.141544 0.581394 0.807751 -0.093142
C54   C     C_3   0.255245 0.446819 0.180005 -0.135674
C55   C     C_2   0.263573 0.893210 0.284434 0.620135
C56   C     C_R   0.090313 0.067856 0.529967 -0.034709
C57   C     C_2   0.789460 0.136037 0.671282 0.627815
C58   C     C_3   0.768824 0.217408 0.835186 -0.118491
C59   C     C_3   0.081895 0.691240 0.268342 -0.130190
C60   C     C_3   0.152259 0.464805 0.543208 -0.125182
C61   C     C_3   0.838471 0.590245 0.448537 -0.140035
C62   C     C_3   0.248240 0.334484 0.798280 -0.105900
C63   C     C_3   0.663638 0.622112 0.200257 -0.092782
C64   C     C_3   0.568133 0.611484 0.778227 -0.120904
C65   C     C_3   0.675804 0.355760 0.223937 -0.118155
C66   C     C_R   0.449507 0.192847 0.208141 -0.015378
C67   C     C_R   0.512270 0.808602 0.790303 0.003195
C68   C     C_R   0.335101 0.216839 0.044123 -0.135413
Cu1   Cu    Cu3+1 0.466270 0.918260 0.475690 1.003514
Cu2   Cu    Cu3+1 0.533730 0.081740 0.524310 1.001869
H1    H     H_    0.352544 0.353753 0.649773 0.090709
H2    H     H_    0.375753 0.418302 0.369954 0.148242
H3    H     H_    0.398852 0.176629 0.745684 0.105444
H4    H     H_    0.568499 0.931452 0.204682 0.130950
H5    H     H_    0.281454 0.042109 0.691686 0.127586
H6    H     H_    0.729890 0.023708 0.290158 0.103668
H7    H     H_    0.076324 0.268281 0.437788 0.116288
H8    H     H_    0.879283 0.743288 0.497007 0.088472
H9    H     H_    0.933339 0.114582 0.549854 0.176137
H10   H     H_    0.062005 0.889242 0.441129 0.176611
H11   H     H_    0.579407 0.928270 0.841608 0.161582
H12   H     H_    0.562242 0.746682 0.262387 0.195502
H13   H     H_    0.387548 0.075009 0.156501 0.194211
H14   H     H_    0.075681 0.513724 0.845800 0.127550
H15   H     H_    0.087463 0.626564 0.734315 0.132668
H16   H     H_    0.172163 0.630511 0.848563 0.103688
H17   H     H_    0.222168 0.394412 0.142861 0.119303
H18   H     H_    0.212894 0.519660 0.134388 0.109866
H19   H     H_    0.216536 0.408928 0.248930 0.114856
H20   H     H_    0.156169 0.001370 0.255574 0.322049
H21   H     H_    0.979038 0.126545 0.703496 0.326411
H22   H     H_    0.848036 0.214833 0.897564 0.163576
H23   H     H_    0.285903 0.182006 0.994289 0.174346
H24   H     H_    0.734749 0.137544 0.844245 0.121708
H25   H     H_    0.691236 0.252051 0.839473 0.085033
H26   H     H_    0.056734 0.738650 0.298551 0.119345
H27   H     H_    0.072888 0.609367 0.320136 0.121857
H28   H     H_    0.011656 0.699279 0.199911 0.142777
H29   H     H_    0.246757 0.493989 0.575370 0.126979
H30   H     H_    0.094380 0.412499 0.600088 0.159492
H31   H     H_    0.100195 0.531915 0.495828 0.117747
H32   H     H_    0.863407 0.576237 0.527318 0.136894
H33   H     H_    0.915331 0.641882 0.408677 0.081201
H34   H     H_    0.569641 0.818332 0.011939 0.168236
H35   H     H_    0.831420 0.515891 0.445267 0.151067
H36   H     H_    0.329768 0.288359 0.835381 0.080297
H37   H     H_    0.280883 0.411010 0.744489 0.142369
H38   H     H_    0.174962 0.294568 0.758702 0.176435
H39   H     H_    0.711277 0.614606 0.148605 0.068514
H40   H     H_    0.657319 0.548349 0.265853 0.197538
H41   H     H_    0.727480 0.679782 0.223287 0.149534
H42   H     H_    0.604133 0.571545 0.858666 0.089244
H43   H     H_    0.645615 0.667939 0.742687 0.110482
H44   H     H_    0.542363 0.552107 0.749623 0.126799
H45   H     H_    0.756517 0.441246 0.711970 0.150924
H46   H     H_    0.684104 0.412234 0.147569 0.089447
H47   H     H_    0.708693 0.282875 0.239853 0.101063
H48   H     H_    0.740470 0.387098 0.274840 0.132875
H49   H     H_    0.269899 0.564731 0.282281 0.171621
H50   H     H_    0.545022 0.711509 0.558786 0.146385
H51   H     H_    0.434336 0.278524 0.459455 0.150812
H52   H     H_    0.652004 0.589263 0.626517 0.075262
N1    N     N_R   0.584450 0.204570 0.560790 -0.299226
N2    N     N_R   0.415550 0.795430 0.439210 -0.290770
O1    O     O_R   0.455540 0.022090 0.338120 -0.506675
O2    O     O_3   0.390406 0.464586 0.202257 -0.519958
O3    O     O_2   0.259741 0.920613 0.196737 -0.524680
O4    O     O_R   0.196583 0.941582 0.312938 -0.700390
O5    O     O_2   0.765313 0.044181 0.715340 -0.520949
O6    O     O_R   0.916656 0.179180 0.667481 -0.697851
O7    O     O_3   0.815322 0.276336 0.746735 -0.542430
O8    O     O_3   0.205085 0.724593 0.245039 -0.544091
O9    O     O_3   0.166016 0.419282 0.484250 -0.599240
O10   O     O_3   0.719049 0.627733 0.405042 -0.577314
O11   O     O_3   0.192210 0.343111 0.865468 -0.544926
O12   O     O_R   0.544460 0.977910 0.661880 -0.481666
O13   O     O_3   0.540881 0.654745 0.158023 -0.570074
O14   O     O_3   0.458572 0.659746 0.754680 -0.500628
O15   O     O_3   0.550176 0.340020 0.240097 -0.507421
O16   O     O_R   0.512510 0.160150 0.379180 -0.455260
O17   O     O_R   0.487490 0.839850 0.620820 -0.464900
O18   O     O_R   0.291160 0.930970 0.479480 -0.457435
O19   O     O_R   0.708840 0.069030 0.520520 -0.494488
O20   O     O_R   0.348130 0.069020 0.520540 -0.520521
O21   O     O_R   0.651870 0.930980 0.479460 -0.508659
O22   O     O_3   0.247407 0.552292 0.794701 -0.505068

loop_
_geom_bond_atom_site_label_1
_geom_bond_atom_site_label_2
_ccdc_geom_bond_type
C38   C40   A    
Cu2   O16   S    
C8    C13   A    
C23   C45   A    
C27   C29   A    
C41   C43   A    
C14   C18   A    
C16   O18   A    
C3    C68   A    
C60   H29   S    
C22   C57   S    
C58   H22   S    
C22   N1    A    
C39   C41   A    
C38   C49   A    
C64   O14   S    
C24   C55   S    
C7    C11   A    
C54   O2    S    
C29   C36   A    
Cu2   O19   S    
C17   C23   S    
C26   N2    A    
C53   H14   S    
C57   O5    D    
C44   H7    S    
C61   H33   S    
C26   H50   S    
C54   H17   S    
C64   H42   S    
C62   H38   S    
Cu1   O17   S    
C24   N2    A    
C33   C36   A    
Cu1   O21   S    
C12   O17   A    
C51   C56   A    
C39   H4    S    
C16   C34   S    
C15   C19   A    
C11   C15   A    
Cu2   N1    S    
C4    H11   S    
C15   O2    S    
C65   H48   S    
C53   H16   S    
C61   H35   S    
C58   O7    S    
C44   C47   A    
C34   C56   A    
C42   C56   S    
C40   C42   A    
Cu1   O1    S    
C13   C14   A    
C47   O9    S    
Cu2   O12   S    
C63   O13   S    
C42   C44   A    
C26   C28   A    
C61   O10   S    
C5    O15   S    
C20   C29   A    
C12   C67   S    
C46   C48   A    
C59   O8    S    
C64   H44   S    
C27   C31   A    
C57   O6    S    
C28   C32   A    
C54   H19   S    
C47   C49   A    
C16   O20   A    
C5    C7    A    
C6    C8    A    
C62   H37   S    
C45   C52   A    
Cu1   O18   S    
C30   C37   A    
C62   O11   S    
C6    O14   S    
C2    C4    A    
C58   H25   S    
C21   O8    S    
C25   N1    A    
C23   C51   A    
C31   C32   A    
C37   H49   S    
C2    H34   S    
C10   C19   A    
C19   O13   S    
C1    C66   S    
C18   O11   S    
C43   C45   S    
C1    O16   A    
C6    C67   A    
C55   O3    D    
C35   H2    S    
C3    H13   S    
C17   O21   A    
C59   H27   S    
C65   H46   S    
C31   C35   A    
C3    C66   A    
C59   H26   S    
C20   O7    S    
C60   H31   S    
C2    C10   A    
C50   H12   S    
C46   H8    S    
C48   O10   S    
C7    C9    A    
C65   H47   S    
C64   H43   S    
C35   C37   A    
C34   C52   A    
C20   C22   A    
C5    C66   A    
C60   H30   S    
C4    C67   A    
H21   O6    S    
C62   H36   S    
C25   C27   A    
C21   C30   A    
C14   O22   S    
Cu2   O20   S    
C68   H23   S    
Cu1   N2    S    
C40   H5    S    
C17   O19   A    
C1    O1    A    
C32   C33   A    
C63   H40   S    
C28   C30   A    
C61   H32   S    
C58   H24   S    
C9    C68   A    
C41   H6    S    
C54   H18   S    
C11   C13   A    
C33   H52   S    
C49   H1    S    
C48   C50   A    
C53   O22   S    
C63   H41   S    
Cu1   Cu2   S    
C43   C46   A    
C51   H9    S    
C65   O15   S    
C9    C18   A    
C39   C50   A    
C55   O4    S    
C8    C10   A    
C12   O12   A    
C21   C24   A    
C59   H28   S    
H20   O4    S    
C53   H15   S    
C52   H10   S    
C36   H45   S    
C25   H51   S    
C60   O9    S    
C63   H39   S    
C38   H3    S    
