data_mof_unit_4227.cif
_audit_creation_date              2012-10-26T19:40:39-0400
_audit_creation_method            fapswitch 2.2
_symmetry_space_group_name_H-M    P1
_symmetry_Int_Tables_number       1
_space_group_crystal_system       triclinic
_cell_length_a                    9.695969
_cell_length_b                    10.951715
_cell_length_c                    13.520301
_cell_angle_alpha                 90.367239
_cell_angle_beta                  73.577625
_cell_angle_gamma                 90.863106
_cell_volume                      1376.95631181

loop_
_atom_site_label
_atom_site_type_symbol
_atom_type_description
_atom_site_fract_x
_atom_site_fract_y
_atom_site_fract_z
_atom_type_partial_charge
C1    C     C_R   0.501652 0.734705 0.499748 0.540173
C2    C     C_R   0.389833 0.452400 0.809513 -0.027278
C3    C     C_2   0.614510 0.069443 0.488144 -0.076767
C4    C     C_R   0.425597 0.485908 0.698690 0.531240
C5    C     C_2   0.500703 0.134315 0.482987 0.333779
C6    C     C_2   0.622321 0.937166 0.473509 0.081611
C7    C     C_2   0.502440 0.866764 0.507135 -0.045606
C8    C     C_2   0.055304 0.572564 0.557092 0.530244
C9    C     C_2   0.897004 0.559400 0.567132 0.024795
C10   C     C_R   0.500125 0.265493 0.496596 0.558366
C11   C     C_R   0.576009 0.502299 0.300939 0.535247
C12   C     C_R   0.451250 0.445824 0.974132 0.019024
C13   C     C_R   0.793005 0.555500 0.027220 0.103095
C14   C     C_R   0.618215 0.506975 0.188814 -0.023290
C15   C     C_R   0.247639 0.419714 0.861273 -0.077456
C16   C     C_R   0.207784 0.394217 0.966419 0.093857
C17   C     C_R   0.306607 0.412137 0.023160 -0.096917
C18   C     C_R   0.495864 0.451539 0.865001 0.022546
C19   C     C_R   0.553824 0.474079 0.029154 0.015731
C20   C     C_R   0.696838 0.509250 0.974140 0.065251
C21   C     C_R   0.742385 0.491854 0.868012 -0.133927
C22   C     C_R   0.645546 0.454354 0.816134 -0.114195
C23   C     C_R   0.518390 0.471588 0.136919 -0.129106
C24   C     C_R   0.753516 0.551942 0.134249 -0.080062
Cu1   Cu    Cu3+1 0.361370 0.499980 0.499980 1.182157
Cu2   Cu    Cu3+1 0.638630 0.500020 0.500020 0.946028
F1    F     F_    0.388227 0.082203 0.455841 -0.613219
F2    F     F_    0.096500 0.663444 0.611812 -0.640233
F3    F     F_    0.107361 0.394663 0.472049 -0.571585
H1    H     H_    0.828055 0.585964 0.174791 0.148985
H2    H     H_    0.708763 0.114976 0.500324 0.145528
H3    H     H_    0.796239 0.838302 0.479658 0.266158
H4    H     H_    0.756810 0.831873 0.363798 0.252686
H5    H     H_    0.992052 0.549193 0.925700 0.252257
H6    H     H_    0.907615 0.683952 0.930055 0.252921
H7    H     H_    0.019973 0.409639 0.077791 0.247462
H8    H     H_    0.072453 0.265099 0.046623 0.250345
H9    H     H_    0.399607 0.906915 0.545656 0.181939
H10   H     H_    0.822565 0.606219 0.630619 0.139112
H11   H     H_    0.918158 0.473433 0.433566 0.274569
H12   H     H_    0.854059 0.502397 0.824278 0.125758
H13   H     H_    0.414151 0.441150 0.182790 0.145323
H14   H     H_    0.167627 0.411307 0.819506 0.150829
H15   H     H_    0.266493 0.396848 0.104909 0.118339
H16   H     H_    0.693510 0.422982 0.738737 0.167232
N1    N     N_2   0.152660 0.501340 0.501130 0.042281
N2    N     N_2   0.846520 0.501370 0.501160 -0.360577
N3    N     N_3   0.762094 0.888127 0.425460 -0.591823
N4    N     N_3   0.927688 0.612523 0.974808 -0.621685
N5    N     N_3   0.064957 0.351323 0.015960 -0.624492
O1    O     O_R   0.382960 0.678040 0.499980 -0.443084
O2    O     O_R   0.617100 0.678080 0.500020 -0.522202
O3    O     O_R   0.325800 0.499940 0.650950 -0.474558
O4    O     O_R   0.559930 0.499980 0.650990 -0.527738
O5    O     O_R   0.382900 0.321920 0.499980 -0.402327
O6    O     O_R   0.617040 0.321960 0.500020 -0.540095
O7    O     O_R   0.440070 0.500020 0.349010 -0.489067
O8    O     O_R   0.674200 0.500060 0.349050 -0.517581

loop_
_geom_bond_atom_site_label_1
_geom_bond_atom_site_label_2
_ccdc_geom_bond_type
C12   C17   A    
H6    N4    S    
H11   N2    S    
C2    C4    S    
Cu1   O1    S    
C6    C7    D    
C2    C15   A    
Cu2   O2    S    
C4    O3    A    
C2    C18   A    
C11   O8    A    
C10   O6    A    
C19   C23   A    
C19   C20   A    
C13   C20   A    
F3    N1    S    
C3    C6    S    
C4    O4    A    
C11   O7    A    
C17   H15   S    
C15   H14   S    
C5    C10   S    
C5    F1    S    
C21   C22   A    
C3    H2    S    
H8    N5    S    
C1    O1    A    
H3    N3    S    
C23   H13   S    
C6    N3    S    
Cu2   N2    S    
C13   N4    S    
Cu2   O4    S    
C12   C19   A    
C11   C14   S    
C7    H9    S    
C16   N5    S    
C9    N2    D    
C24   H1    S    
C10   O5    A    
C8    F2    S    
C1    O2    A    
C21   H12   S    
C14   C24   A    
C15   C16   A    
Cu1   O7    S    
C9    H10   S    
C22   H16   S    
H7    N5    S    
C20   C21   A    
C12   C18   A    
H4    N3    S    
C8    C9    S    
H5    N4    S    
C14   C23   A    
C8    N1    D    
C1    C7    S    
Cu1   Cu2   S    
C18   C22   A    
Cu1   N1    S    
Cu2   O8    S    
Cu1   O5    S    
C13   C24   A    
Cu1   O3    S    
C16   C17   A    
C3    C5    D    
Cu2   O6    S    
