data_mof_unit_4636.cif
_audit_creation_date              2012-12-10T18:51:35-0500
_audit_creation_method            fapswitch 2.2
_symmetry_space_group_name_H-M    P1
_symmetry_Int_Tables_number       1
_space_group_crystal_system       triclinic
_cell_length_a                    10.680547
_cell_length_b                    9.856207
_cell_length_c                    10.508928
_cell_angle_alpha                 89.749966
_cell_angle_beta                  90.054179
_cell_angle_gamma                 90.191889
_cell_volume                      1106.25429248

loop_
_atom_site_label
_atom_site_type_symbol
_atom_type_description
_atom_site_fract_x
_atom_site_fract_y
_atom_site_fract_z
_atom_type_partial_charge
C1    C     C_R   0.872414 0.500826 0.503041 -0.017951
C2    C     C_3   0.420837 0.402438 0.041768 -0.325278
C3    C     C_3   0.387348 0.525208 0.958079 0.560362
C4    C     C_3   0.615167 0.473443 0.041917 0.553178
C5    C     C_3   0.502477 0.498436 0.877186 -0.090159
C6    C     C_3   0.499979 0.500958 0.122649 -0.129069
C7    C     C_R   0.575820 0.071808 0.581029 -0.073996
C8    C     C_R   0.424242 0.928199 0.418907 -0.070972
C9    C     C_R   0.424253 0.072000 0.418900 -0.078679
C10   C     C_R   0.575820 0.928008 0.581027 -0.067891
C11   C     C_R   0.063835 0.385410 0.545837 -0.179557
C12   C     C_R   0.127532 0.499881 0.501003 0.000468
C13   C     C_R   0.936169 0.615528 0.458857 -0.182758
C14   C     C_R   0.935531 0.385949 0.547036 -0.220201
C15   C     C_R   0.064369 0.615017 0.457751 -0.206699
C16   C     C_3   0.179721 0.571194 0.997122 0.082751
C17   C     C_3   0.051815 0.588905 0.935470 -0.785098
C18   C     C_3   0.761525 0.320892 0.118700 0.090239
C19   C     C_3   0.890315 0.308784 0.179398 -0.825187
C20   C     C_R   0.259973 0.499853 0.500104 0.880415
C21   C     C_R   0.740004 0.500218 0.501094 0.875825
C22   C     C_R   0.499931 0.500309 0.257379 0.918057
C23   C     C_R   0.501136 0.499614 0.742549 0.941883
C24   C     C_3   0.464257 0.623994 0.039726 -0.310735
C25   C     C_3   0.538383 0.375148 0.958966 -0.332606
C26   C     C_3   0.581689 0.595863 0.957640 -0.245446
H1    H     H_    0.636477 0.126134 0.645854 0.118001
H2    H     H_    0.887201 0.704163 0.423502 0.159099
H3    H     H_    0.885961 0.297385 0.582384 0.153280
H4    H     H_    0.113797 0.703457 0.421904 0.147213
H5    H     H_    0.201759 0.664398 0.052341 0.134352
H6    H     H_    0.174267 0.482633 0.063048 0.130112
H7    H     H_    0.026501 0.496472 0.880920 0.259037
H8    H     H_    0.979917 0.605835 0.009977 0.232069
H9    H     H_    0.053182 0.677554 0.869867 0.253770
H10   H     H_    0.762064 0.259997 0.029827 0.133797
H11   H     H_    0.690913 0.278775 0.186083 0.167294
H12   H     H_    0.363620 0.873877 0.354044 0.115160
H13   H     H_    0.895037 0.371482 0.266555 0.269569
H14   H     H_    0.908898 0.201338 0.205191 0.205139
H15   H     H_    0.963349 0.344096 0.111678 0.248736
H16   H     H_    0.363650 0.126480 0.354022 0.123300
H17   H     H_    0.636478 0.873537 0.645856 0.122824
H18   H     H_    0.433153 0.724020 0.075926 0.156059
H19   H     H_    0.567575 0.275351 0.920667 0.152922
H20   H     H_    0.648536 0.672037 0.918947 0.154779
H21   H     H_    0.355002 0.325269 0.080488 0.153751
H22   H     H_    0.112932 0.296653 0.580715 0.159593
N1    N     N_R   0.500000 0.857200 0.500000 -0.078636
N2    N     N_R   0.500000 0.142800 0.500000 -0.079981
O1    O     O_R   0.316770 0.614620 0.499990 -0.621107
O2    O     O_3   0.737473 0.458443 0.091288 -0.626481
O3    O     O_R   0.683230 0.385380 0.500010 -0.630518
O4    O     O_R   0.683230 0.614620 0.500010 -0.629076
O5    O     O_R   0.316770 0.385380 0.499990 -0.629768
O6    O     O_R   0.499970 0.614650 0.313950 -0.623769
O7    O     O_R   0.500030 0.385350 0.686050 -0.626106
O8    O     O_R   0.500030 0.614650 0.686050 -0.614985
O9    O     O_R   0.499970 0.385350 0.313950 -0.636690
O10   O     O_3   0.269905 0.550479 0.901308 -0.611031
Zn1   Zn    Zn3+2 0.500000 0.653120 0.500000 0.956252
Zn2   Zn    Zn3+2 0.500000 0.346880 0.500000 0.941142

loop_
_geom_bond_atom_site_label_1
_geom_bond_atom_site_label_2
_ccdc_geom_bond_type
C23   O8    A    
C4    C26   S    
C11   C12   A    
C13   H2    S    
C1    C21   S    
O4    Zn1   S    
C2    H21   S    
C7    C10   A    
O3    Zn2   S    
C7    H1    S    
C5    C23   S    
O1    Zn1   S    
C12   C15   A    
C6    C24   S    
C3    O10   S    
C12   C20   S    
O8    Zn1   S    
C2    C3    S    
C11   H22   S    
C18   O2    S    
O7    Zn2   S    
C16   H5    S    
C21   O3    A    
C9    H16   S    
C2    C6    S    
C17   H7    S    
C8    H12   S    
C4    O2    S    
C20   O5    A    
C5    C25   S    
C19   H13   S    
C18   H11   S    
C24   C26   S    
C4    C25   S    
C20   O1    A    
C19   H14   S    
C13   C15   A    
C21   O4    A    
C24   H18   S    
C11   C14   A    
N2    Zn2   S    
C16   H6    S    
C17   H8    S    
C26   H20   S    
C14   H3    S    
C5    C26   S    
C6    C22   S    
O5    Zn2   S    
C25   H19   S    
C2    C25   S    
N1    Zn1   S    
C15   H4    S    
C4    C6    S    
C18   C19   S    
C16   O10   S    
C22   O9    A    
C23   O7    A    
O6    Zn1   S    
C16   C17   S    
O9    Zn2   S    
C22   O6    A    
C1    C14   A    
C17   H9    S    
C10   H17   S    
C10   N1    A    
C18   H10   S    
C8    N1    A    
C9    N2    A    
C19   H15   S    
C7    N2    A    
C3    C24   S    
C8    C9    A    
C3    C5    S    
C1    C13   A    
