data_mof_unit_2808.cif
_audit_creation_date              2012-12-10T19:05:54-0500
_audit_creation_method            fapswitch 2.2
_symmetry_space_group_name_H-M    P1
_symmetry_Int_Tables_number       1
_space_group_crystal_system       triclinic
_cell_length_a                    19.331289
_cell_length_b                    10.828788
_cell_length_c                    9.553097
_cell_angle_alpha                 90.368503
_cell_angle_beta                  90.864682
_cell_angle_gamma                 90.580455
_cell_volume                      1999.418423

loop_
_atom_site_label
_atom_site_type_symbol
_atom_type_description
_atom_site_fract_x
_atom_site_fract_y
_atom_site_fract_z
_atom_type_partial_charge
C1    C     C_R   0.498250 0.262379 0.499507 0.801379
C2    C     C_R   0.290601 0.502542 0.496395 -0.128719
C3    C     C_R   0.928998 0.489048 0.514464 0.441238
C4    C     C_R   0.068924 0.488162 0.509583 0.407577
C5    C     C_R   0.814908 0.421481 0.611799 0.444557
C6    C     C_R   0.742256 0.425111 0.606386 -0.306922
C7    C     C_R   0.707932 0.494484 0.503878 -0.069774
C8    C     C_R   0.746102 0.560252 0.405509 -0.188597
C9    C     C_R   0.818029 0.558419 0.410684 -0.230047
C10   C     C_R   0.852958 0.489140 0.512894 0.024419
C11   C     C_R   0.488378 0.064681 0.624100 0.121471
C12   C     C_R   0.367259 0.502518 0.498788 0.811650
C13   C     C_R   0.490656 0.129304 0.498411 -0.096745
C14   C     C_R   0.483189 0.063409 0.371707 -0.213658
C15   C     C_R   0.483549 0.934581 0.372153 -0.220375
C16   C     C_R   0.491491 0.870864 0.499284 -0.098070
C17   C     C_R   0.489028 0.937515 0.624549 0.138003
C18   C     C_3   0.536284 0.934510 0.749442 -0.487756
C19   C     C_3   0.534879 0.074447 0.749878 -0.456920
C20   C     C_R   0.523927 0.600321 0.075942 0.214784
C21   C     C_R   0.468506 0.407916 0.072682 -0.080370
C22   C     C_R   0.468066 0.408368 0.923847 -0.087259
C23   C     C_R   0.498709 0.737747 0.500107 0.795036
C24   C     C_R   0.526704 0.598397 0.929154 0.238414
C25   C     C_3   0.599342 0.652401 0.935918 -0.112353
C26   C     C_3   0.592832 0.659542 0.094281 -0.490161
C27   C     C_R   0.632337 0.498758 0.500939 0.807087
C28   C     C_R   0.256653 0.461392 0.616195 -0.229088
C29   C     C_R   0.184669 0.456360 0.622037 0.143054
C30   C     C_R   0.144958 0.487436 0.502354 0.012386
C31   C     C_R   0.178196 0.525014 0.377933 0.149578
C32   C     C_R   0.251110 0.541002 0.378023 0.162382
Cu1   Cu    Cu3+1 0.500000 0.499980 0.640670 0.938752
Cu2   Cu    Cu3+1 0.500000 0.500020 0.359330 0.936845
H1    H     H_    0.286655 0.433392 0.707146 0.167918
H2    H     H_    0.481110 0.885732 0.272869 0.160426
H3    H     H_    0.510858 0.893227 0.841931 0.190382
H4    H     H_    0.587980 0.897233 0.723783 0.194073
H5    H     H_    0.508042 0.113788 0.841837 0.190496
H6    H     H_    0.585812 0.117775 0.726647 0.200328
H7    H     H_    0.444114 0.332132 0.126911 0.134107
H8    H     H_    0.443051 0.333238 0.867000 0.137943
H9    H     H_    0.603349 0.745310 0.889104 0.160467
H10   H     H_    0.629493 0.600915 0.153731 0.225027
H11   H     H_    0.588820 0.755689 0.134623 0.167582
H12   H     H_    0.712430 0.373467 0.681723 0.138045
H13   H     H_    0.720377 0.615071 0.326422 0.143187
H14   H     H_    0.846494 0.610496 0.333653 0.170872
H15   H     H_    0.480661 0.110717 0.272238 0.158076
N1    N     N_R   0.033518 0.590691 0.472571 -0.223617
N2    N     N_R   0.964777 0.590965 0.474467 -0.248266
N3    N     N_R   0.964482 0.386651 0.552054 -0.158266
N4    N     N_R   0.033264 0.386106 0.549337 -0.228958
N5    N     N_R   0.500440 0.500930 0.147930 -0.175847
N6    N     N_R   0.500440 0.500890 0.852020 -0.181010
O1    O     O_R   0.500000 0.319640 0.618810 -0.585376
O2    O     O_R   0.500010 0.319680 0.381230 -0.586294
O3    O     O_R   0.400140 0.499970 0.618830 -0.583624
O4    O     O_R   0.400150 0.500010 0.381250 -0.575061
O5    O     O_R   0.499990 0.680320 0.618770 -0.577531
O6    O     O_R   0.500000 0.680360 0.381190 -0.587835
O7    O     O_R   0.599850 0.499990 0.618750 -0.577387
O8    O     O_R   0.599860 0.500030 0.381170 -0.578873
C33   C     C_3   0.658231 0.567006 0.892554 -0.732336
H16   H     H_    0.676693 0.594658 0.788229 0.241637
H17   H     H_    0.703537 0.578498 0.964562 0.217749
H18   H     H_    0.641889 0.468349 0.892285 0.240844
C34   C     C_3   0.151459 0.419654 0.757902 -0.815653
H19   H     H_    0.123646 0.330147 0.744470 0.254869
H20   H     H_    0.190326 0.408598 0.843655 0.215957
H21   H     H_    0.114642 0.491806 0.791217 0.240337
C35   C     C_3   0.136733 0.542481 0.243332 -0.827995
H22   H     H_    0.164304 0.501220 0.153499 0.231060
H23   H     H_    0.085722 0.494822 0.244609 0.239892
H24   H     H_    0.128579 0.642379 0.224586 0.243808
C36   C     C_3   0.286106 0.602475 0.255007 -0.815198
H25   H     H_    0.325030 0.671426 0.293195 0.230422
H26   H     H_    0.311267 0.531846 0.188766 0.240417
H27   H     H_    0.249903 0.655357 0.188031 0.227779
O9    O     O_3   0.849361 0.355523 0.714150 -0.717107
H28   H     H_    0.814999 0.314648 0.774959 0.320733

loop_
_geom_bond_atom_site_label_1
_geom_bond_atom_site_label_2
_ccdc_geom_bond_type
Cu1   N6    S    
Cu1   O3    S    
C4    N4    A    
C36   H27   S    
C2    C12   S    
C25   H9    S    
C26   H10   S    
C7    C8    A    
C22   H8    S    
C24   N6    A    
C11   C19   S    
C5    C6    A    
C19   H5    S    
C28   C29   A    
C18   H3    S    
C36   H26   S    
C21   N5    A    
O9    H28   S    
C14   H15   S    
C16   C17   A    
C15   C16   A    
C7    C27   S    
C2    C32   A    
C18   C19   S    
C26   H11   S    
C34   H19   S    
C12   O4    A    
C20   C24   A    
C28   H1    S    
C8    C9    A    
Cu2   O2    S    
C9    C10   A    
C12   O3    A    
Cu1   O1    S    
C13   C14   A    
C35   H24   S    
Cu1   Cu2   S    
C23   O5    A    
C33   H18   S    
C36   H25   S    
C20   N5    A    
C3    N2    A    
Cu1   O7    S    
N1    N2    A    
C25   C26   S    
Cu2   O6    S    
C4    N1    A    
C25   C33   S    
C33   H17   S    
C29   C30   A    
C27   O7    A    
C1    O2    A    
C29   C34   S    
C31   C32   A    
C17   C18   S    
C24   C25   S    
C5    O9    S    
C6    C7    A    
C27   O8    A    
C21   H7    S    
C35   H23   S    
C31   C35   S    
Cu2   N5    S    
C16   C23   S    
Cu2   O4    S    
C1    C13   S    
C15   H2    S    
N3    N4    A    
C11   C17   A    
C6    H12   S    
C1    O1    A    
C35   H22   S    
C32   C36   S    
C3    N3    A    
C22   N6    A    
Cu1   O5    S    
C33   H16   S    
C18   H4    S    
C8    H13   S    
C5    C10   A    
C3    C10   S    
C11   C13   A    
C30   C31   A    
C20   C26   S    
C34   H21   S    
Cu2   O8    S    
C19   H6    S    
C23   O6    A    
C9    H14   S    
C34   H20   S    
C14   C15   A    
C2    C28   A    
C21   C22   A    
C4    C30   S    
