data_mof_unit_639.cif
_audit_creation_date              2012-12-11T15:16:36-0500
_audit_creation_method            fapswitch 2.2
_symmetry_space_group_name_H-M    P1
_symmetry_Int_Tables_number       1
_space_group_crystal_system       triclinic
_cell_length_a                    25.101893
_cell_length_b                    7.235755
_cell_length_c                    21.912889
_cell_angle_alpha                 90.000164
_cell_angle_beta                  110.282912
_cell_angle_gamma                 90.000011
_cell_volume                      3733.26886992

loop_
_atom_site_label
_atom_site_type_symbol
_atom_type_description
_atom_site_fract_x
_atom_site_fract_y
_atom_site_fract_z
_atom_type_partial_charge
O1    O     O_R   0.554350 0.505270 0.581390 -0.530750
O2    O     O_R   0.445650 0.005270 0.418610 -0.530750
O3    O     O_R   0.553380 0.177580 0.454800 -0.540558
O4    O     O_R   0.446620 0.677580 0.545200 -0.540558
C1    C     C_R   0.565912 0.344421 0.438434 0.695002
C2    C     C_R   0.434088 0.844421 0.561566 0.695001
O5    O     O_R   0.560970 0.175640 0.583140 -0.533896
O6    O     O_R   0.439030 0.675640 0.416860 -0.533896
O7    O     O_R   0.453290 0.004120 0.547860 -0.538147
O8    O     O_R   0.546710 0.504120 0.452140 -0.538147
C3    C     C_R   0.576113 0.343924 0.607602 0.686125
C4    C     C_R   0.423886 0.843923 0.392398 0.686126
O9    O     O_3   0.464660 0.338800 0.488280 -0.372886
O10   O     O_3   0.535340 0.838800 0.511720 -0.372885
V1    V     V_3+5 0.506560 0.064420 0.502170 1.429933
V2    V     V_3+5 0.493440 0.564420 0.497830 1.429933
C5    C     C_R   0.150411 0.020146 0.287233 -0.145900
C6    C     C_R   0.849589 0.520143 0.712767 -0.145900
H1    H     H_    0.138902 0.063397 0.328378 0.130148
H2    H     H_    0.861098 0.563393 0.671623 0.130149
C7    C     C_R   0.120845 0.945938 0.172671 -0.056013
C8    C     C_R   0.879155 0.445937 0.827329 -0.056015
C9    C     C_R   0.397355 0.817436 0.273804 -0.216170
C10   C     C_R   0.602645 0.317437 0.726195 -0.216172
C11   C     C_R   0.359947 0.840316 0.210581 -0.099165
C12   C     C_R   0.640053 0.340315 0.789418 -0.099167
C13   C     C_R   0.303272 0.889305 0.197918 0.256874
C14   C     C_R   0.696729 0.389302 0.802082 0.256874
C15   C     C_R   0.281433 0.900376 0.249989 0.013462
C16   C     C_R   0.718567 0.400374 0.750011 0.013463
C17   C     C_R   0.321829 0.893811 0.315243 0.035175
C18   C     C_R   0.678171 0.393811 0.684757 0.035176
C19   C     C_R   0.222250 0.926400 0.240820 0.091338
C20   C     C_R   0.777749 0.426398 0.759180 0.091338
C21   C     C_R   0.206953 0.976640 0.295286 0.126555
C22   C     C_R   0.793046 0.476638 0.704715 0.126555
C23   C     C_R   0.247836 0.980484 0.357690 -0.178944
C24   C     C_R   0.752163 0.480482 0.642311 -0.178945
C25   C     C_R   0.303865 0.933582 0.367816 -0.164998
C26   C     C_R   0.696135 0.433582 0.632184 -0.164999
C27   C     C_R   0.177177 0.897042 0.180695 -0.159221
C28   C     C_R   0.822823 0.397041 0.819305 -0.159221
C29   C     C_R   0.108174 0.010658 0.226097 -0.162649
C30   C     C_R   0.891826 0.510655 0.773903 -0.162650
C31   C     C_R   0.379846 0.851312 0.326586 -0.077461
C32   C     C_R   0.620154 0.351314 0.673414 -0.077460
H3    H     H_    0.184362 0.832285 0.140049 0.162676
H4    H     H_    0.815638 0.332286 0.859950 0.162678
H5    H     H_    0.441304 0.783566 0.281658 0.125712
H6    H     H_    0.558696 0.283567 0.718341 0.125713
H7    H     H_    0.376175 0.829041 0.170929 0.168584
H8    H     H_    0.623826 0.329037 0.829070 0.168585
C33   C     C_R   0.124176 0.765362 0.886015 -0.140060
C34   C     C_R   0.875834 0.265361 0.113996 -0.140066
H9    H     H_    0.111186 0.637705 0.902544 0.126151
H10   H     H_    0.888831 0.137704 0.097476 0.126146
C35   C     C_R   0.160171 0.755041 0.849567 -0.116277
C36   C     C_R   0.839839 0.255041 0.150445 -0.116281
H11   H     H_    0.173535 0.619971 0.839167 0.139201
H12   H     H_    0.826483 0.119970 0.160854 0.139199
C37   C     C_R   0.178172 0.916153 0.826408 0.023787
C38   C     C_R   0.821829 0.416152 0.173592 0.023787
C39   C     C_R   0.159539 0.088237 0.841318 -0.114009
C40   C     C_R   0.840452 0.588237 0.158671 -0.114005
H13   H     H_    0.172564 0.215362 0.824490 0.143128
H14   H     H_    0.827419 0.715362 0.175490 0.143129
C41   C     C_R   0.123644 0.098701 0.878051 -0.133634
C42   C     C_R   0.876347 0.598702 0.121938 -0.133628
C43   C     C_R   0.105177 0.937255 0.900680 -0.038677
C44   C     C_R   0.894823 0.437255 0.099320 -0.038678
N1    N     N_R   0.229763 0.057083 0.759609 -0.258880
N2    N     N_R   0.770228 0.557089 0.240380 -0.258879
N3    N     N_R   0.262603 0.044688 0.723175 -0.237448
N4    N     N_R   0.737388 0.544694 0.276815 -0.237456
C45   C     C_R   0.282620 0.878392 0.711716 0.550836
C46   C     C_R   0.717381 0.378392 0.288285 0.550833
N5    N     N_R   0.269099 0.725822 0.739402 -0.210232
N6    N     N_R   0.730912 0.225816 0.260611 -0.210225
N7    N     N_R   0.236216 0.737991 0.775708 -0.265597
N8    N     N_R   0.763795 0.237985 0.224304 -0.265596
C47   C     C_R   0.215626 0.903772 0.786520 0.502750
C48   C     C_R   0.784375 0.403771 0.213481 0.502748
C49   C     C_R   0.323600 0.704691 0.636308 0.289345
C50   C     C_R   0.676403 0.204694 0.363696 0.289349
C51   C     C_R   0.360876 0.699190 0.601142 -0.187117
C52   C     C_R   0.639127 0.199193 0.398861 -0.187119
H15   H     H_    0.362770 0.574590 0.574573 0.155035
H16   H     H_    0.637233 0.074596 0.425432 0.155037
C53   C     C_R   0.394452 0.852704 0.598831 -0.101482
C54   C     C_R   0.605548 0.352704 0.401169 -0.101481
C55   C     C_R   0.389762 0.013640 0.632491 -0.143420
C56   C     C_R   0.610236 0.513637 0.367508 -0.143421
H17   H     H_    0.414974 0.134700 0.631962 0.135844
H18   H     H_    0.585023 0.634694 0.368034 0.135843
C57   C     C_R   0.353314 0.019621 0.668468 -0.136236
C58   C     C_R   0.646685 0.519618 0.331531 -0.136235
H19   H     H_    0.351905 0.144924 0.694874 0.181617
H20   H     H_    0.648093 0.644918 0.305123 0.181615
C59   C     C_R   0.319971 0.865813 0.671557 -0.044001
C60   C     C_R   0.680030 0.365812 0.328445 -0.044002
O11   O     O_R   0.953220 0.285790 0.047790 -0.540483
O12   O     O_R   0.046780 0.785790 0.952210 -0.540485
O13   O     O_R   0.939020 0.617570 0.916840 -0.529120
O14   O     O_R   0.060980 0.117570 0.083160 -0.529121
C61   C     C_R   0.924002 0.448951 0.892347 0.696641
C62   C     C_R   0.075998 0.948951 0.107653 0.696640
O15   O     O_R   0.946600 0.615450 0.045180 -0.539122
O16   O     O_R   0.053400 0.115450 0.954820 -0.539120
O17   O     O_R   0.054370 0.786770 0.081410 -0.535337
O18   O     O_R   0.945630 0.286770 0.918590 -0.535337
C63   C     C_R   0.934151 0.446976 0.061529 0.688600
C64   C     C_R   0.065849 0.946976 0.938471 0.688599
O19   O     O_3   0.035300 0.454160 0.011680 -0.373205
O20   O     O_3   0.964700 0.954160 0.988320 -0.373205
V3    V     V_3+5 0.993450 0.728620 0.997830 1.446336
V4    V     V_3+5 0.006550 0.228620 0.002170 1.446338
H21   H     H_    0.065170 0.050778 0.220631 0.112717
H22   H     H_    0.934830 0.550773 0.779369 0.112718
H23   H     H_    0.110029 0.233684 0.888181 0.121247
H24   H     H_    0.889954 0.733685 0.111799 0.121253
Br1   Br    Br    0.276585 0.490767 0.629782 -0.508694
Br2   Br    Br    0.723420 0.990772 0.370226 -0.508687
H25   H     H_    0.236075 0.015540 0.399431 0.141844
H26   H     H_    0.763925 0.515537 0.600570 0.141845
Br3   Br    Br    0.265791 0.982696 0.111135 -0.559790
Br4   Br    Br    0.734210 0.482688 0.888865 -0.559791
H27   H     H_    0.333414 0.932796 0.417416 0.112916
H28   H     H_    0.666586 0.432796 0.582584 0.112916

loop_
_geom_bond_atom_site_label_1
_geom_bond_atom_site_label_2
_ccdc_geom_bond_type
C36   C38   A    
C24   C26   A    
C61   O18   A    
C39   H13   S    
C9    C31   A    
C13   C15   A    
C33   H9    S    
O12   C64   A    
O1    C3    A    
C33   C43   A    
C2    O7    A    
O14   C62   A    
O20   V3    S    
O5    C3    A    
N4    C46   A    
C40   C42   A    
C21   C23   A    
C46   N6    A    
C6    C30   A    
C43   C64   S    
C57   C59   A    
C35   H11   S    
C7    C29   A    
C36   H12   S    
C26   H28   S    
C15   C19   A    
C56   C58   A    
C23   H25   S    
C37   C39   A    
C38   C40   A    
O12   V3    S    
C5    H1    S    
O14   V4    S    
C8    C30   A    
C17   C25   A    
C20   C28   A    
C58   H20   S    
C53   C55   A    
C6    H2    S    
C7    C62   S    
O19   V4    S    
N5    N7    A    
C38   C48   S    
O2    C4    A    
O6    V2    S    
C49   C59   A    
N3    C45   A    
C18   C32   A    
C56   H18   S    
C14   Br4   S    
C34   H10   S    
C51   H15   S    
C10   H6    S    
C39   C41   A    
C25   H27   S    
C16   C20   A    
C52   H16   S    
C50   C60   A    
N2    N4    A    
C52   C54   A    
N1    N3    A    
C51   C53   A    
O16   C64   A    
C41   C43   A    
C40   H14   S    
O4    V2    S    
O13   V3    S    
C41   H23   S    
C5    C29   A    
C12   H8    S    
C55   H17   S    
C54   C56   A    
C34   C44   A    
C30   H22   S    
O6    C4    A    
C45   C59   S    
C27   H3    S    
O13   C61   A    
O1    V2    S    
C28   H4    S    
C49   Br1   S    
O2    V1    S    
C45   N5    A    
O15   V3    S    
C29   H21   S    
C7    C27   A    
N8    C48   A    
C49   C51   A    
O4    C2    A    
C11   C13   A    
C8    C61   S    
O18   V4    S    
O3    V1    S    
N7    C47   A    
C34   C36   A    
O11   V4    S    
C33   C35   A    
O15   C63   A    
C1    C54   S    
C10   C12   A    
C4    C31   S    
O3    C1    A    
C57   H19   S    
C35   C37   A    
C46   C60   S    
C2    C53   S    
C12   C14   A    
C11   H7    S    
C19   C27   A    
O16   V4    S    
C22   C24   A    
O7    V1    S    
C10   C32   A    
C1    O8    A    
C15   C17   A    
O8    V2    S    
C42   H24   S    
C16   C18   A    
C13   Br3   S    
C8    C28   A    
C6    C22   A    
O11   C63   A    
C58   C60   A    
O5    V1    S    
C19   C21   A    
C20   C22   A    
C14   C16   A    
N6    N8    A    
C18   C26   A    
C24   H26   S    
C9    H5    S    
C44   C63   S    
O17   V3    S    
C55   C57   A    
C9    C11   A    
C23   C25   A    
C17   C31   A    
O9    V2    S    
C42   C44   A    
O10   V1    S    
C50   C52   A    
C3    C32   S    
C37   C47   S    
C5    C21   A    
C50   Br2   S    
N2    C48   A    
N1    C47   A    
C62   O17   A    
