data_mof_unit_4882.cif
_audit_creation_date              2012-12-10T18:38:36-0500
_audit_creation_method            fapswitch 2.2
_symmetry_space_group_name_H-M    P1
_symmetry_Int_Tables_number       1
_space_group_crystal_system       triclinic
_cell_length_a                    15.841151
_cell_length_b                    15.08345
_cell_length_c                    13.979865
_cell_angle_alpha                 90.405349
_cell_angle_beta                  90.482382
_cell_angle_gamma                 90.220531
_cell_volume                      3340.11039457

loop_
_atom_site_label
_atom_site_type_symbol
_atom_type_description
_atom_site_fract_x
_atom_site_fract_y
_atom_site_fract_z
_atom_type_partial_charge
C1    C     C_R   0.499873 0.330491 0.499688 0.787735
C2    C     C_R   0.497324 0.670212 0.499843 0.793843
C3    C     C_R   0.426616 0.193569 0.543114 -0.208987
C4    C     C_R   0.496608 0.811758 0.409979 -0.231957
C5    C     C_R   0.494659 0.234875 0.498899 -0.022166
C6    C     C_R   0.489919 0.767180 0.497432 -0.039049
C7    C     C_R   0.556029 0.185067 0.452530 -0.219468
C8    C     C_R   0.472963 0.815515 0.580548 -0.192396
C9    C     C_R   0.550232 0.093285 0.451966 -0.146899
C10   C     C_R   0.470004 0.907409 0.578251 -0.163987
C11   C     C_R   0.480754 0.050423 0.493515 0.041685
C12   C     C_R   0.478397 0.952679 0.491468 0.049384
C13   C     C_R   0.565712 0.540136 0.109193 -0.374813
C14   C     C_R   0.453405 0.436255 0.890790 -0.376587
C15   C     C_R   0.562038 0.544845 0.210701 0.639551
C16   C     C_R   0.448910 0.441872 0.789342 0.631882
C17   C     C_R   0.438519 0.455170 0.206604 0.102749
C18   C     C_R   0.551049 0.557109 0.793934 0.101043
C19   C     C_R   0.437194 0.456946 0.106023 -0.322796
C20   C     C_R   0.549232 0.558489 0.894476 -0.321673
C21   C     C_R   0.501668 0.498023 0.054616 0.103938
C22   C     C_R   0.501546 0.497130 0.945676 0.103399
C23   C     C_R   0.339990 0.500290 0.499655 0.815832
C24   C     C_R   0.659961 0.499387 0.500241 0.828633
C25   C     C_3   0.973521 0.465505 0.581263 0.427307
C26   C     C_3   0.026053 0.526369 0.414291 0.420626
C27   C     C_3   0.030088 0.414725 0.511010 0.387895
C28   C     C_3   0.970373 0.577318 0.484653 0.409793
C29   C     C_1   0.250377 0.500776 0.498932 -0.182510
C30   C     C_1   0.749453 0.496976 0.500174 -0.170764
C31   C     C_3   0.027267 0.550619 0.570370 -0.417372
C32   C     C_3   0.972258 0.441193 0.425185 -0.500410
C33   C     C_3   0.083263 0.499140 0.498588 -0.031565
C34   C     C_3   0.916390 0.493515 0.497188 -0.059490
C35   C     C_1   0.174851 0.500583 0.498526 0.050399
C36   C     C_1   0.824875 0.494902 0.498828 0.024205
C37   C     C_R   0.417803 0.101395 0.539822 0.006276
C38   C     C_R   0.490023 0.904046 0.405468 0.016081
Cu1   Cu    Cu3+1 0.500000 0.499990 0.596430 0.974768
Cu2   Cu    Cu3+1 0.500000 0.500010 0.403570 0.979676
H1    H     H_    0.385395 0.424407 0.068938 0.141409
H2    H     H_    0.586334 0.608419 0.931662 0.146344
H3    H     H_    0.947789 0.398174 0.366428 0.157861
H4    H     H_    0.050797 0.593741 0.629556 0.167111
H5    H     H_    0.378800 0.233683 0.577355 0.147336
H6    H     H_    0.505630 0.774646 0.344295 0.147268
H7    H     H_    0.609155 0.217170 0.418637 0.132434
H8    H     H_    0.461573 0.782452 0.647285 0.146663
H9    H     H_    0.600289 0.055456 0.418968 0.143136
H10   H     H_    0.461732 0.943339 0.644833 0.143113
H11   H     H_    0.619861 0.568188 0.074247 0.140843
H12   H     H_    0.419583 0.383347 0.925414 0.138788
N1    N     N_R   0.500000 0.500020 0.258690 -0.220586
N2    N     N_R   0.500000 0.499980 0.741310 -0.220820
O1    O     O_R   0.500010 0.371450 0.581430 -0.535955
O2    O     O_R   0.499990 0.628550 0.418570 -0.575091
O3    O     O_R   0.500010 0.371460 0.418560 -0.594305
O4    O     O_R   0.499990 0.628540 0.581440 -0.585388
O5    O     O_R   0.379080 0.499990 0.581420 -0.567021
O6    O     O_R   0.620920 0.500010 0.418580 -0.521238
O7    O     O_R   0.379080 0.500000 0.418550 -0.574297
O8    O     O_R   0.620920 0.500000 0.581450 -0.592233
O9    O     O_3   0.069161 0.333102 0.532094 -0.619989
C39   C     C_3   0.035830 0.265074 0.473449 0.025692
H13   H     H_    0.052244 0.277445 0.397408 0.148265
H14   H     H_    0.965930 0.260742 0.480687 0.130678
C40   C     C_3   0.074125 0.176795 0.504224 -0.312306
H15   H     H_    0.144156 0.181040 0.501522 0.229845
H16   H     H_    0.055766 0.162584 0.579169 0.212188
C41   C     C_3   0.043920 0.101035 0.439505 -0.945403
H17   H     H_    0.974106 0.094659 0.442405 0.255662
H18   H     H_    0.072331 0.037886 0.463710 0.255125
H19   H     H_    0.063312 0.112998 0.364502 0.250939
O10   O     O_3   0.932611 0.659700 0.464082 -0.618593
C42   C     C_3   0.987473 0.730519 0.488097 0.080160
H20   H     H_    0.983969 0.779823 0.429545 0.156148
H21   H     H_    0.055282 0.711262 0.494272 0.139321
C43   C     C_3   0.957085 0.774482 0.580360 -0.340972
H22   H     H_    0.893099 0.802055 0.567825 0.219201
H23   H     H_    0.953156 0.724445 0.638097 0.217731
C44   C     C_3   0.015975 0.849057 0.612551 -0.967049
H24   H     H_    0.079978 0.822377 0.627356 0.255919
H25   H     H_    0.991526 0.879871 0.679095 0.257661
H26   H     H_    0.019676 0.900701 0.556516 0.256697
C45   C     C_R   0.373440 0.399320 0.251417 0.171386
C46   C     C_R   0.289834 0.429645 0.258003 -0.140544
C47   C     C_R   0.226604 0.373929 0.293119 -0.134776
C48   C     C_R   0.246026 0.287158 0.319686 -0.133936
C49   C     C_R   0.328183 0.255407 0.309483 -0.169794
C50   C     C_R   0.391270 0.310601 0.273438 -0.114507
H27   H     H_    0.273961 0.496501 0.236754 0.136462
H28   H     H_    0.162563 0.397915 0.299504 0.160108
H29   H     H_    0.197251 0.243968 0.346630 0.134382
H30   H     H_    0.342780 0.187755 0.328563 0.137876
H31   H     H_    0.454064 0.284253 0.262898 0.137904
C51   C     C_R   0.610310 0.620228 0.750281 0.187247
C52   C     C_R   0.693186 0.594102 0.729228 -0.114391
C53   C     C_R   0.752316 0.656408 0.698054 -0.144230
C54   C     C_R   0.730294 0.745875 0.692532 -0.118730
C55   C     C_R   0.649819 0.773200 0.719719 -0.141833
C56   C     C_R   0.590709 0.710803 0.750447 -0.166755
H32   H     H_    0.711861 0.525512 0.736821 0.128242
H33   H     H_    0.815455 0.635490 0.679627 0.155771
H34   H     H_    0.776070 0.794458 0.669776 0.123210
H35   H     H_    0.633717 0.842863 0.718643 0.134808
H36   H     H_    0.530270 0.732944 0.776814 0.111811
O11   O     O_3   0.944399 0.438017 0.671561 -0.607140
C57   C     C_3   0.908595 0.352365 0.664910 0.072834
H37   H     H_    0.959718 0.302116 0.665620 0.173805
H38   H     H_    0.869345 0.343313 0.598993 0.126304
C58   C     C_3   0.852305 0.337281 0.751470 -0.330676
H39   H     H_    0.890748 0.343417 0.818104 0.223369
H40   H     H_    0.802219 0.388639 0.753124 0.219651
C59   C     C_3   0.810936 0.245772 0.747726 -0.936130
H41   H     H_    0.770494 0.239083 0.682732 0.257811
H42   H     H_    0.770871 0.236750 0.811740 0.260472
H43   H     H_    0.859865 0.193207 0.746991 0.252658
O12   O     O_3   0.059065 0.561084 0.328884 -0.621541
C60   C     C_3   0.993766 0.575113 0.261031 0.093579
H44   H     H_    0.000973 0.643406 0.232904 0.157955
H45   H     H_    0.928629 0.570816 0.290654 0.157501
C61   C     C_3   0.002672 0.509153 0.178209 -0.365953
H46   H     H_    0.065194 0.518440 0.144089 0.223866
H47   H     H_    0.999286 0.440375 0.205861 0.211692
C62   C     C_3   0.933146 0.521830 0.103343 -0.924267
H48   H     H_    0.870218 0.509909 0.135413 0.255493
H49   H     H_    0.942013 0.473982 0.043576 0.259922
H50   H     H_    0.935438 0.590166 0.074320 0.257182
C63   C     C_R   0.342061 0.061667 0.584397 0.094887
C64   C     C_R   0.288323 0.004724 0.532021 -0.127752
C65   C     C_R   0.216416 0.969113 0.574540 -0.137649
C66   C     C_R   0.196868 0.990958 0.669103 -0.114340
C67   C     C_R   0.249768 0.047675 0.721639 -0.141810
C68   C     C_R   0.322228 0.082677 0.679711 -0.180883
H51   H     H_    0.301673 0.988054 0.458408 0.114888
H52   H     H_    0.175766 0.924934 0.533753 0.125774
H53   H     H_    0.140885 0.964011 0.701909 0.132500
H54   H     H_    0.234732 0.064407 0.794939 0.126920
H55   H     H_    0.363149 0.125860 0.721644 0.133825
C69   C     C_R   0.495875 0.947059 0.310291 0.100456
C70   C     C_R   0.433899 0.007152 0.279302 -0.125701
C71   C     C_R   0.440646 0.047989 0.190215 -0.143475
C72   C     C_R   0.508782 0.028675 0.130900 -0.108983
C73   C     C_R   0.570299 0.968459 0.160570 -0.131524
C74   C     C_R   0.563976 0.927777 0.249767 -0.178526
H56   H     H_    0.380419 0.022467 0.323830 0.106234
H57   H     H_    0.392932 0.094526 0.167093 0.124778
H58   H     H_    0.513866 0.060304 0.061925 0.121054
H59   H     H_    0.623096 0.953518 0.114609 0.126290
H60   H     H_    0.612746 0.882188 0.272207 0.119393
O13   O     O_3   0.626375 0.585050 0.263331 -0.582987
C75   C     C_3   0.645359 0.671910 0.232047 0.028269
H61   H     H_    0.640168 0.716812 0.294955 0.165885
H62   H     H_    0.601229 0.698198 0.176524 0.113550
C76   C     C_3   0.736663 0.675535 0.197171 -0.338367
H63   H     H_    0.779725 0.653296 0.255393 0.236691
H64   H     H_    0.744638 0.630115 0.135110 0.208207
C77   C     C_3   0.761592 0.769177 0.167733 -0.932152
H65   H     H_    0.719614 0.792775 0.109245 0.253250
H66   H     H_    0.827678 0.769178 0.141863 0.255592
H67   H     H_    0.757330 0.815284 0.229789 0.254133
O14   O     O_3   0.397927 0.383655 0.737770 -0.587808
C78   C     C_3   0.312187 0.398361 0.760841 0.022954
H68   H     H_    0.293106 0.466866 0.740942 0.155398
H69   H     H_    0.300415 0.388690 0.838393 0.121712
C79   C     C_3   0.256691 0.331993 0.706000 -0.331270
H70   H     H_    0.263460 0.342110 0.627778 0.231197
H71   H     H_    0.277486 0.263753 0.723280 0.212173
C80   C     C_3   0.164023 0.341547 0.733148 -0.831298
H72   H     H_    0.156286 0.335594 0.811737 0.230635
H73   H     H_    0.126532 0.287936 0.698260 0.274264
H74   H     H_    0.139482 0.406796 0.709523 0.279412

loop_
_geom_bond_atom_site_label_1
_geom_bond_atom_site_label_2
_ccdc_geom_bond_type
C25   C31   S    
C77   H66   S    
C47   C48   A    
C78   H68   S    
C26   C32   S    
Cu2   O6    S    
C17   N1    A    
C76   H64   S    
C18   C51   S    
C80   H72   S    
C58   H39   S    
C28   O10   S    
C15   O13   S    
C59   H41   S    
C51   C56   A    
C50   H31   S    
C4    H6    S    
C45   C46   A    
C27   C33   S    
C23   O5    A    
C55   H35   S    
C62   H48   S    
C1    C5    S    
C15   N1    A    
C78   H69   S    
O14   C78   S    
C46   H27   S    
C43   H23   S    
Cu1   N2    S    
C72   C73   A    
C57   H37   S    
C49   H30   S    
C11   C37   A    
O12   C60   S    
C77   H67   S    
C17   C19   A    
C13   H11   S    
C74   H60   S    
Cu1   O1    S    
C64   H51   S    
C57   H38   S    
C66   C67   A    
Cu2   O2    S    
C53   H33   S    
C62   H50   S    
O11   C57   S    
C31   C33   S    
C41   H17   S    
C14   C16   A    
C18   C20   A    
C52   H32   S    
C24   O6    A    
C25   C34   S    
C54   H34   S    
C28   C34   S    
C67   H54   S    
C21   C22   S    
C76   C77   S    
C79   H71   S    
C80   H73   S    
C79   H70   S    
C2    C6    S    
C44   H25   S    
C52   C53   A    
C24   C30   S    
C60   H45   S    
C72   H58   S    
C14   H12   S    
O10   C42   S    
C40   H15   S    
C39   C40   S    
C78   C79   S    
C9    H9    S    
C69   C70   A    
C4    C6    A    
C65   H52   S    
C31   H4    S    
C49   C50   A    
C68   H55   S    
C5    C7    A    
C46   C47   A    
C6    C8    A    
C16   O14   S    
C66   H53   S    
Cu1   O4    S    
C3    H5    S    
C44   H24   S    
Cu2   O7    S    
O9    C39   S    
C40   H16   S    
C39   H14   S    
C42   H20   S    
C8    H8    S    
C73   H59   S    
C1    O3    A    
C42   H21   S    
C26   C33   S    
C59   H42   S    
C54   C55   A    
C32   C34   S    
C75   C76   S    
O13   C75   S    
Cu1   O5    S    
C51   C52   A    
C41   H19   S    
C13   C21   A    
C58   H40   S    
C75   H61   S    
C60   H44   S    
C9    C11   A    
C10   C12   A    
C70   H56   S    
C20   C22   A    
Cu2   N1    S    
C13   C15   A    
C77   H65   S    
C80   H74   S    
C17   C45   S    
C61   H47   S    
C65   C66   A    
C10   H10   S    
C23   C29   S    
Cu1   Cu2   S    
C44   H26   S    
C25   O11   S    
C63   C64   A    
C60   C61   S    
C56   H36   S    
C7    C9    A    
Cu1   O8    S    
C48   H29   S    
C24   O8    A    
Cu2   O3    S    
C19   C21   A    
C27   C32   S    
C43   H22   S    
C71   H57   S    
C28   C31   S    
C26   O12   S    
C75   H62   S    
C73   C74   A    
C3    C5    A    
C69   C74   A    
C20   H2    S    
C45   C50   A    
C2    O4    A    
C25   C27   S    
C29   C35   T    
C26   C28   S    
C57   C58   S    
C30   C36   T    
C40   C41   S    
C39   H13   S    
C14   C22   A    
C61   C62   S    
C64   C65   A    
C1    O1    A    
C2    O2    A    
C70   C71   A    
C43   C44   S    
C67   C68   A    
C55   C56   A    
C33   C35   S    
C32   H3    S    
C37   C63   S    
C58   C59   S    
C34   C36   S    
C12   C38   A    
C42   C43   S    
C16   N2    A    
C59   H43   S    
C18   N2    A    
C63   C68   A    
C23   O7    A    
C48   C49   A    
C3    C37   A    
C79   C80   S    
C8    C10   A    
C53   C54   A    
C76   H63   S    
C62   H49   S    
C38   C69   S    
C71   C72   A    
C27   O9    S    
C4    C38   A    
C41   H18   S    
C61   H46   S    
C47   H28   S    
C19   H1    S    
C11   C12   S    
C7    H7    S    
