data_mof_unit_4460.cif
_audit_creation_date              2012-12-10T18:02:11-0500
_audit_creation_method            fapswitch 2.2
_symmetry_space_group_name_H-M    P1
_symmetry_Int_Tables_number       1
_space_group_crystal_system       triclinic
_cell_length_a                    10.950719
_cell_length_b                    9.672137
_cell_length_c                    23.47257
_cell_angle_alpha                 91.426025
_cell_angle_beta                  94.77008
_cell_angle_gamma                 89.121616
_cell_volume                      2476.54309047

loop_
_atom_site_label
_atom_site_type_symbol
_atom_type_description
_atom_site_fract_x
_atom_site_fract_y
_atom_site_fract_z
_atom_type_partial_charge
C1    C     C_R   0.262530 0.501200 0.497809 0.837510
C2    C     C_R   0.738056 0.499323 0.500303 0.853266
C3    C     C_R   0.583280 0.413900 0.241223 -0.261734
C4    C     C_R   0.433593 0.377613 0.756112 -0.270168
C5    C     C_R   0.592149 0.424990 0.300952 0.446060
C6    C     C_R   0.434388 0.378284 0.696743 0.431952
C7    C     C_R   0.499162 0.494948 0.328690 -0.198203
C8    C     C_R   0.460005 0.502336 0.669362 -0.209760
C9    C     C_R   0.403338 0.560163 0.296009 -0.429484
C10   C     C_R   0.457941 0.626898 0.701422 -0.423949
C11   C     C_R   0.400417 0.559465 0.236474 0.522535
C12   C     C_R   0.448484 0.627665 0.760883 0.518300
C13   C     C_R   0.488575 0.481999 0.208697 0.178571
C14   C     C_R   0.444086 0.500777 0.788451 0.210564
C15   C     C_R   0.062451 0.384734 0.480737 0.290962
C16   C     C_R   0.935661 0.627349 0.501144 0.314047
C17   C     C_R   0.942503 0.376719 0.496434 0.311444
C18   C     C_R   0.063817 0.626855 0.508214 0.284125
C19   C     C_R   0.873023 0.500223 0.500240 -0.391082
C20   C     C_R   0.128531 0.504769 0.495192 -0.384644
C21   C     C_R   0.423175 0.072124 0.462457 0.420316
C22   C     C_R   0.587427 0.927746 0.534015 0.313169
C23   C     C_R   0.584636 0.078221 0.535052 0.368509
C24   C     C_R   0.412123 0.926102 0.467796 0.346249
C25   C     C_R   0.499965 0.498497 0.391256 0.802600
C26   C     C_R   0.486981 0.501295 0.608113 0.787889
C27   C     C_R   0.554598 0.541272 0.880975 0.610328
C28   C     C_R   0.385386 0.421591 0.116138 0.604969
C29   C     C_R   0.354337 0.444531 0.876053 0.536332
C30   C     C_R   0.579410 0.533049 0.121050 0.520594
C31   C     C_R   0.360534 0.436254 0.935848 -0.017294
C32   C     C_R   0.576010 0.534235 0.061213 -0.012916
C33   C     C_R   0.465364 0.485710 0.968407 -0.017920
C34   C     C_R   0.472534 0.481450 0.028656 -0.017343
C35   C     C_R   0.563048 0.539537 0.940876 -0.038935
C36   C     C_R   0.376080 0.424842 0.056199 -0.038284
C37   C     C_R   0.264626 0.380327 0.963762 -0.161469
C38   C     C_R   0.672729 0.588243 0.033301 -0.159739
C39   C     C_R   0.272687 0.373816 0.023298 -0.166478
C40   C     C_R   0.666698 0.589951 0.973739 -0.163258
Cu1   Cu    Cu3+1 0.500000 0.640660 0.500000 0.973282
Cu2   Cu    Cu3+1 0.500000 0.359340 0.500000 1.034319
H1    H     H_    0.183224 0.341081 0.939725 0.187343
H2    H     H_    0.753479 0.629088 0.057346 0.189084
H3    H     H_    0.197188 0.329911 0.043437 0.186872
H4    H     H_    0.743016 0.631981 0.953591 0.188460
H5    H     H_    0.652633 0.356096 0.220021 0.190306
H6    H     H_    0.424847 0.280322 0.777215 0.185400
H7    H     H_    0.329366 0.610397 0.316163 0.159699
H8    H     H_    0.464952 0.723449 0.680843 0.163420
N1    N     N_R   0.450597 0.496346 0.849837 -0.437630
N2    N     N_R   0.484883 0.477496 0.147306 -0.443495
N3    N     N_R   0.500000 0.852070 0.500000 -0.287664
N4    N     N_R   0.500000 0.147930 0.500000 -0.272697
O1    O     O_R   0.319640 0.618740 0.500000 -0.523896
O2    O     O_R   0.680360 0.381260 0.500000 -0.494307
O3    O     O_R   0.680360 0.618740 0.500000 -0.492430
O4    O     O_R   0.319640 0.381260 0.500000 -0.534973
O5    O     O_R   0.499960 0.618810 0.417880 -0.630898
O6    O     O_R   0.500040 0.381190 0.582120 -0.528463
O7    O     O_R   0.500040 0.618810 0.582120 -0.597318
O8    O     O_R   0.499960 0.381190 0.417880 -0.540056
O9    O     O_2   0.650016 0.586447 0.853986 -0.521134
O10   O     O_2   0.295825 0.363028 0.143101 -0.525903
O11   O     O_2   0.252726 0.401992 0.844388 -0.560702
O12   O     O_2   0.675541 0.588913 0.152759 -0.565941
O13   O     O_3   0.692473 0.367289 0.331679 -0.593485
C41   C     C_3   0.779153 0.472111 0.346424 0.043650
H9    H     H_    0.835635 0.439761 0.385102 0.158164
H10   H     H_    0.736520 0.573483 0.357783 0.129745
C42   C     C_3   0.864544 0.490560 0.299045 -0.807568
H11   H     H_    0.814393 0.539000 0.261490 0.277300
H12   H     H_    0.941182 0.559098 0.314785 0.198584
H13   H     H_    0.902802 0.388889 0.285836 0.259560
O14   O     O_3   0.417097 0.254556 0.666648 -0.593324
C43   C     C_3   0.294679 0.248752 0.642084 0.115642
H14   H     H_    0.293695 0.180643 0.603335 0.170848
H15   H     H_    0.256814 0.350783 0.627285 0.105678
C44   C     C_3   0.211558 0.186911 0.683601 -0.887055
H16   H     H_    0.201978 0.258645 0.720645 0.273091
H17   H     H_    0.119234 0.168714 0.661895 0.198731
H18   H     H_    0.250486 0.086994 0.699163 0.250949
O15   O     O_3   0.308150 0.630500 0.205371 -0.548433
C45   C     C_3   0.345276 0.768683 0.200863 0.036319
H19   H     H_    0.428039 0.773336 0.176409 0.161532
H20   H     H_    0.365488 0.818695 0.243865 0.135062
C46   C     C_3   0.242564 0.850672 0.169148 -0.739444
H21   H     H_    0.158996 0.849195 0.192890 0.249169
H22   H     H_    0.270903 0.959597 0.165333 0.212519
H23   H     H_    0.221452 0.804951 0.125628 0.254894
O16   O     O_3   0.456792 0.748574 0.794159 -0.548047
C47   C     C_3   0.374088 0.851340 0.772105 0.034516
H24   H     H_    0.283438 0.807366 0.756516 0.135595
H25   H     H_    0.413753 0.905804 0.736945 0.148647
C48   C     C_3   0.353211 0.957523 0.819361 -0.729949
H26   H     H_    0.441197 0.006851 0.834732 0.251177
H27   H     H_    0.287759 0.038878 0.803002 0.207951
H28   H     H_    0.314844 0.906490 0.855679 0.251408
O17   O     O_3   0.116617 0.270429 0.456236 -0.519660
C49   C     C_3   0.082375 0.268418 0.396629 0.131108
H29   H     H_    0.162161 0.232566 0.374400 0.203449
H30   H     H_    0.057505 0.371947 0.378725 0.091073
C50   C     C_3   0.979269 0.166620 0.381404 -0.784286
H31   H     H_    0.892190 0.204632 0.397325 0.282271
H32   H     H_    0.965391 0.152020 0.334262 0.203527
H33   H     H_    0.003599 0.065874 0.400737 0.257576
O18   O     O_3   0.872492 0.751539 0.494911 -0.501611
C51   C     C_3   0.883021 0.798355 0.438857 0.127819
H34   H     H_    0.888446 0.712662 0.406453 0.088058
H35   H     H_    0.967112 0.859971 0.438776 0.169423
C52   C     C_3   0.772765 0.888638 0.419716 -0.791875
H36   H     H_    0.767416 0.981499 0.448077 0.265400
H37   H     H_    0.781258 0.923267 0.375488 0.196228
H38   H     H_    0.687167 0.828858 0.420103 0.256300
O19   O     O_3   0.895533 0.248848 0.506864 -0.512213
C53   C     C_3   0.965954 0.191497 0.554487 0.102434
H39   H     H_    0.931045 0.231490 0.594458 0.140019
H40   H     H_    0.065348 0.215930 0.557867 0.129712
C54   C     C_3   0.959013 0.035598 0.551796 -0.656680
H41   H     H_    0.019495 0.994867 0.519580 0.276188
H42   H     H_    0.989133 0.993590 0.594265 0.172439
H43   H     H_    0.864442 0.002809 0.539798 0.317245
O20   O     O_3   0.123963 0.747399 0.524969 -0.513671
C55   C     C_3   0.152568 0.744876 0.584827 0.144871
H44   H     H_    0.194346 0.644271 0.599157 0.101579
H45   H     H_    0.068298 0.764235 0.607337 0.125058
C56   C     C_3   0.244786 0.857016 0.602416 -0.770466
H46   H     H_    0.209907 0.958573 0.586950 0.243007
H47   H     H_    0.260953 0.862142 0.649643 0.164400
H48   H     H_    0.332969 0.833581 0.584008 0.262545
O21   O     O_3   0.362221 0.136087 0.416237 -0.535681
C57   C     C_3   0.432482 0.114932 0.368293 0.070716
H49   H     H_    0.449291 0.004563 0.358411 0.095189
H50   H     H_    0.524815 0.161101 0.375900 0.193321
C58   C     C_3   0.366413 0.177066 0.315021 -0.779195
H51   H     H_    0.335822 0.284390 0.324165 0.250975
H52   H     H_    0.428931 0.177561 0.280142 0.220632
H53   H     H_    0.285231 0.115050 0.299969 0.224104
O22   O     O_3   0.688818 0.859794 0.560487 -0.516628
C59   C     C_3   0.670215 0.826671 0.617599 0.164835
H54   H     H_    0.572930 0.818140 0.624770 0.119791
H55   H     H_    0.703154 0.905744 0.648746 0.075918
C60   C     C_3   0.746602 0.699662 0.635662 -0.708134
H56   H     H_    0.845559 0.721867 0.634447 0.215630
H57   H     H_    0.729150 0.672143 0.679892 0.201128
H58   H     H_    0.724587 0.610155 0.607048 0.232999
O23   O     O_3   0.682694 0.155611 0.559110 -0.514428
C61   C     C_3   0.696486 0.154278 0.619488 0.133074
H59   H     H_    0.777355 0.088413 0.631475 0.134795
H60   H     H_    0.613559 0.118237 0.638991 0.142361
C62   C     C_3   0.732496 0.296631 0.644976 -0.750561
H61   H     H_    0.744324 0.371540 0.611081 0.247682
H62   H     H_    0.663528 0.336292 0.673086 0.229358
H63   H     H_    0.820042 0.290129 0.672434 0.181215
O24   O     O_3   0.298982 0.868226 0.451730 -0.505133
C63   C     C_3   0.294533 0.804708 0.396830 0.215010
H64   H     H_    0.273651 0.693977 0.401071 0.155542
H65   H     H_    0.380892 0.809364 0.375516 0.101385
C64   C     C_3   0.190026 0.865868 0.358257 -0.884634
H66   H     H_    0.189788 0.979882 0.362104 0.287267
H67   H     H_    0.199925 0.834421 0.313069 0.214062
H68   H     H_    0.101171 0.827429 0.370210 0.224405

loop_
_geom_bond_atom_site_label_1
_geom_bond_atom_site_label_2
_ccdc_geom_bond_type
C60   H58   S    
C38   C40   A    
C46   H21   S    
C58   H53   S    
C8    C26   S    
Cu1   Cu2   S    
C12   O16   S    
C48   H26   S    
C45   C46   S    
Cu1   O7    S    
C5    O13   S    
Cu2   O4    S    
C48   H28   S    
O20   C55   S    
C52   H37   S    
C53   H39   S    
C40   H4    S    
C63   H64   S    
C26   O7    A    
C43   H15   S    
C57   C58   S    
C14   N1    S    
C4    H6    S    
C21   N4    A    
C33   C35   A    
O19   C53   S    
C11   C13   A    
C51   H34   S    
C60   H57   S    
C62   H63   S    
Cu1   O1    S    
C16   O18   S    
Cu2   O2    S    
C45   H19   S    
C21   O21   S    
O23   C61   S    
C53   H40   S    
C57   H49   S    
O18   C51   S    
C31   C33   A    
C32   C38   A    
C52   H38   S    
Cu2   O8    S    
C18   C20   A    
C3    C13   A    
C24   O24   S    
C18   O20   S    
C39   H3    S    
C58   H51   S    
C62   H62   S    
C29   C31   A    
C64   H66   S    
C49   H30   S    
C27   N1    A    
C22   N3    A    
C54   H42   S    
C16   C19   A    
C15   C20   A    
C2    O3    A    
O13   C41   S    
C53   C54   S    
C6    O14   S    
C61   C62   S    
C9    H7    S    
C43   H14   S    
Cu1   O5    S    
C4    C6    A    
Cu2   O6    S    
O16   C47   S    
C5    C7    A    
C41   H9    S    
C6    C8    A    
C27   C35   A    
C24   N3    A    
C23   O23   S    
C22   O22   S    
C36   C39   A    
C49   C50   S    
C31   C37   A    
C32   C34   A    
C37   H1    S    
O14   C43   S    
C56   H47   S    
C38   H2    S    
C44   H18   S    
C13   N2    S    
O15   C45   S    
C62   H61   S    
C61   H60   S    
C47   H25   S    
C33   C34   A    
C64   H68   S    
C50   H32   S    
C16   C18   A    
C59   H54   S    
C59   C60   S    
C9    C11   A    
Cu1   N3    S    
C30   O12   S    
C10   C12   A    
C55   C56   S    
C29   O11   S    
C28   O10   S    
C8    C10   A    
C12   C14   A    
C46   H22   S    
C46   H23   S    
C56   H46   S    
C10   H8    S    
C50   H31   S    
C17   O19   S    
C23   N4    A    
C55   H45   S    
C29   N1    A    
C54   H43   S    
C58   H52   S    
C30   N2    A    
C48   H27   S    
C1    C20   S    
C52   H36   S    
C2    C19   S    
C63   C64   S    
C45   H20   S    
C3    C5    A    
C42   H13   S    
O22   C59   S    
C51   C52   S    
C15   C17   A    
C59   H55   S    
C44   H17   S    
C7    C25   S    
O17   C49   S    
C11   O15   S    
C63   H65   S    
C64   H67   S    
C1    O1    A    
C56   H48   S    
Cu1   O3    S    
C42   H11   S    
C37   C39   A    
C2    O2    A    
C1    O4    A    
Cu2   N4    S    
C30   C32   A    
C28   N2    A    
C41   C42   S    
C3    H5    S    
C47   H24   S    
C17   C19   A    
C51   H35   S    
C35   C40   A    
C50   H33   S    
C34   C36   A    
C25   O8    A    
C47   C48   S    
C4    C14   A    
O21   C57   S    
C44   H16   S    
C7    C9    A    
C43   C44   S    
C28   C36   A    
C57   H50   S    
C54   H41   S    
C15   O17   S    
C21   C24   A    
C42   H12   S    
O24   C63   S    
C41   H10   S    
C22   C23   A    
C27   O9    S    
C49   H29   S    
C25   O5    A    
C26   O6    A    
C61   H59   S    
C60   H56   S    
C55   H44   S    
