data_mof_unit_1642.cif
_audit_creation_date              2012-12-10T20:30:15-0500
_audit_creation_method            fapswitch 2.2
_symmetry_space_group_name_H-M    P1
_symmetry_Int_Tables_number       1
_space_group_crystal_system       triclinic
_cell_length_a                    9.920063
_cell_length_b                    10.711768
_cell_length_c                    13.114513
_cell_angle_alpha                 90.781091
_cell_angle_beta                  68.462146
_cell_angle_gamma                 88.558754
_cell_volume                      1295.45928565

loop_
_atom_site_label
_atom_site_type_symbol
_atom_type_description
_atom_site_fract_x
_atom_site_fract_y
_atom_site_fract_z
_atom_type_partial_charge
C1    C     C_R   0.502588 0.739826 0.493297 0.964596
C2    C     C_R   0.370291 0.499269 0.827327 -0.179679
C3    C     C_R   0.389616 0.940498 0.477585 0.047947
C4    C     C_R   0.418786 0.495558 0.705778 0.892703
C5    C     C_R   0.513221 0.870984 0.471705 -0.201086
C6    C     C_R   0.647138 0.932747 0.442992 0.388686
C7    C     C_R   0.644902 0.062374 0.448252 -0.214092
C8    C     C_R   0.512789 0.128909 0.477124 -0.151232
C9    C     C_R   0.390329 0.067693 0.479592 0.046076
C10   C     C_3   0.236666 0.083431 0.556411 -0.455454
C11   C     C_3   0.233887 0.941509 0.554296 0.474393
C12   C     C_R   0.477424 0.536559 0.964477 -0.090627
C13   C     C_R   0.897439 0.589927 0.557136 0.243030
C14   C     C_R   0.963710 0.420482 0.433168 0.398332
C15   C     C_R   0.106818 0.420102 0.433870 -0.167902
C16   C     C_R   0.503136 0.260216 0.496209 0.904843
C17   C     C_R   0.039246 0.589007 0.558023 0.145159
C18   C     C_3   0.980869 0.610416 0.678861 -0.504043
C19   C     C_3   0.829333 0.612690 0.677308 -0.122168
C20   C     C_R   0.582039 0.498622 0.295124 0.885019
C21   C     C_R   0.788883 0.376297 0.010434 -0.208447
C22   C     C_R   0.637340 0.487024 0.176018 -0.072361
C23   C     C_R   0.473962 0.466694 0.873706 -0.029628
C24   C     C_R   0.248814 0.573658 0.891139 0.032549
C25   C     C_R   0.260012 0.653576 0.972969 0.420994
C26   C     C_R   0.382039 0.643031 0.001910 0.261830
C27   C     C_3   0.133836 0.891066 0.499318 -0.738239
C28   C     C_3   0.807653 0.248947 0.804095 -0.884633
C29   C     C_3   0.746406 0.738246 0.710013 -0.708367
C30   C     C_3   0.107180 0.564110 0.877077 -0.751902
C31   C     C_R   0.575137 0.497047 0.014091 0.103736
C32   C     C_R   0.688675 0.407832 0.960670 0.142092
C33   C     C_R   0.690881 0.345160 0.864738 0.130031
C34   C     C_R   0.577600 0.368977 0.827458 -0.141791
C35   C     C_R   0.547724 0.529726 0.123174 -0.148457
C36   C     C_R   0.763778 0.417010 0.117601 -0.153333
Cl1   Cl    Cl    0.208136 0.878004 0.685503 -0.632344
Cl2   Cl    Cl    0.926338 0.316070 0.343900 -0.613866
Cl3   Cl    Cl    0.423041 0.772629 0.069819 -0.533993
Cl4   Cl    Cl    0.123196 0.769006 0.037214 -0.447659
Cl5   Cl    Cl    0.819287 0.856581 0.404817 -0.562546
H1    H     H_    0.835384 0.384017 0.157608 0.216450
H2    H     H_    0.446727 0.577198 0.172021 0.200383
H3    H     H_    0.572725 0.313047 0.759468 0.160185
H4    H     H_    0.145719 0.942438 0.423559 0.254036
H5    H     H_    0.161979 0.791894 0.475126 0.255119
H6    H     H_    0.019688 0.901513 0.556317 0.244252
H7    H     H_    0.792482 0.210772 0.729991 0.247157
H8    H     H_    0.915330 0.292267 0.776885 0.226020
H9    H     H_    0.806101 0.169904 0.858354 0.274496
H10   H     H_    0.808673 0.815355 0.660802 0.247741
H11   H     H_    0.641638 0.733450 0.697856 0.256768
H12   H     H_    0.744692 0.109800 0.435095 0.237814
H13   H     H_    0.723100 0.758948 0.798195 0.260634
H14   H     H_    0.018908 0.554672 0.958250 0.258933
H15   H     H_    0.086019 0.650229 0.839222 0.287607
H16   H     H_    0.107585 0.478216 0.829007 0.217086
H17   H     H_    0.227244 0.125638 0.636827 0.218989
H18   H     H_    0.167813 0.131080 0.517260 0.196080
H19   H     H_    0.188322 0.354144 0.381904 0.190157
H20   H     H_    0.000519 0.526877 0.720198 0.189619
H21   H     H_    0.012582 0.701139 0.702717 0.270558
H22   H     H_    0.766095 0.533397 0.720458 0.206464
H23   H     H_    0.881130 0.313618 0.970491 0.177752
N1    N     N_R   0.856940 0.500860 0.500710 -0.149679
N2    N     N_R   0.142580 0.500820 0.500710 -0.130734
O1    O     O_R   0.385310 0.683210 0.499990 -0.592545
O2    O     O_R   0.614650 0.683240 0.500000 -0.571036
O3    O     O_R   0.328390 0.499940 0.653610 -0.589070
O4    O     O_R   0.557730 0.499980 0.653620 -0.634503
O5    O     O_R   0.385350 0.316760 0.500000 -0.624572
O6    O     O_R   0.614690 0.316790 0.500010 -0.592714
O7    O     O_R   0.442270 0.500020 0.346380 -0.622866
O8    O     O_R   0.671610 0.500060 0.346390 -0.554461
Zn1   Zn    Zn3+2 0.346870 0.499980 0.499990 0.971720
Zn2   Zn    Zn3+2 0.653130 0.500020 0.500010 1.027992

loop_
_geom_bond_atom_site_label_1
_geom_bond_atom_site_label_2
_ccdc_geom_bond_type
C15   H19   S    
C36   H1    S    
C16   O6    A    
O6    Zn2   S    
C4    O4    A    
C7    C8    A    
C21   C36   A    
C13   N1    A    
C22   C35   A    
C12   C23   A    
C17   N2    A    
N1    Zn2   S    
O8    Zn2   S    
C1    C5    S    
C10   H17   S    
C25   Cl4   S    
C5    C6    A    
C26   Cl3   S    
C29   H13   S    
C30   H16   S    
C1    O2    A    
C18   C19   S    
C11   Cl1   S    
C21   H23   S    
C28   H9    S    
C19   H22   S    
C8    C9    A    
C6    Cl5   S    
C35   H2    S    
C9    C10   S    
C2    C24   A    
C27   H4    S    
C8    C16   S    
O7    Zn1   S    
C16   O5    A    
C4    O3    A    
C33   C34   A    
C21   C32   A    
C13   C19   S    
C34   H3    S    
C24   C25   A    
C18   H21   S    
C25   C26   A    
C15   N2    A    
C30   H15   S    
C12   C26   A    
C2    C4    S    
C3    C9    A    
C14   Cl2   S    
C28   H8    S    
C31   C32   A    
C11   C27   S    
C23   C34   A    
C17   C18   S    
C20   O8    A    
C27   H5    S    
C20   C22   S    
C28   C33   S    
C12   C31   A    
O4    Zn2   S    
C31   C35   A    
O1    Zn1   S    
C7    H12   S    
C19   C29   S    
C29   H10   S    
C27   H6    S    
C28   H7    S    
C3    C5    A    
C18   H20   S    
C6    C7    A    
O2    Zn2   S    
C22   C36   A    
C30   H14   S    
C13   C17   A    
C32   C33   A    
C10   H18   S    
O5    Zn1   S    
N2    Zn1   S    
C1    O1    A    
C14   N1    A    
C20   O7    A    
O3    Zn1   S    
C24   C30   S    
C3    C11   S    
C10   C11   S    
C2    C23   A    
C14   C15   A    
C29   H11   S    
