data_mof_unit_4136.cif
_audit_creation_date              2012-12-10T17:30:24-0500
_audit_creation_method            fapswitch 2.2
_symmetry_space_group_name_H-M    P1
_symmetry_Int_Tables_number       1
_space_group_crystal_system       triclinic
_cell_length_a                    12.050131
_cell_length_b                    12.839074
_cell_length_c                    14.994543
_cell_angle_alpha                 92.08795
_cell_angle_beta                  86.90489
_cell_angle_gamma                 93.446652
_cell_volume                      2310.98750817

loop_
_atom_site_label
_atom_site_type_symbol
_atom_type_description
_atom_site_fract_x
_atom_site_fract_y
_atom_site_fract_z
_atom_type_partial_charge
Br1   Br    Br    0.589717 0.815499 0.109954 -0.347035
Br2   Br    Br    0.536960 0.167422 0.896328 -0.325940
Br3   Br    Br    0.689472 0.184951 0.405992 -0.366716
Br4   Br    Br    0.370877 0.832288 0.629253 -0.407017
Br5   Br    Br    0.258837 0.207472 0.607666 -0.307569
Br6   Br    Br    0.704026 0.758780 0.341025 -0.490328
C1    C     C_R   0.521754 0.700526 0.496543 0.913578
C2    C     C_R   0.360637 0.135530 0.525204 0.299932
C3    C     C_R   0.448241 0.871850 0.517631 0.170347
C4    C     C_R   0.541317 0.125871 0.440356 0.222933
C5    C     C_R   0.435163 0.970296 0.485464 -0.094954
C6    C     C_R   0.522831 0.016988 0.432531 0.038409
C7    C     C_R   0.952896 0.422636 0.398636 -0.103171
C8    C     C_R   0.050929 0.609808 0.577672 -0.114671
C9    C     C_R   0.837254 0.428775 0.411469 0.100152
C10   C     C_R   0.165639 0.595491 0.570607 0.045988
C11   C     C_R   0.858407 0.536983 0.541696 0.065575
C12   C     C_R   0.477851 0.298579 0.498932 0.973553
C13   C     C_R   0.140229 0.455252 0.464813 0.054013
C14   C     C_R   0.977077 0.540316 0.528907 -0.021698
C15   C     C_R   0.023935 0.471140 0.463408 -0.017017
C16   C     C_R   0.501032 0.499571 0.672648 0.896776
C17   C     C_R   0.499297 0.500173 0.327432 0.821728
C18   C     C_R   0.518416 0.404040 0.184568 -0.091297
C19   C     C_R   0.521423 0.593449 0.815915 -0.086283
C20   C     C_R   0.498223 0.497863 0.231909 -0.191681
C21   C     C_R   0.505849 0.498216 0.768224 -0.141698
C22   C     C_R   0.485763 0.590948 0.188399 -0.051746
C23   C     C_R   0.548262 0.684820 0.959380 -0.152738
C24   C     C_R   0.498966 0.401487 0.810009 -0.055736
C25   C     C_R   0.511351 0.592908 0.096068 0.034939
C26   C     C_R   0.509459 0.399009 0.903077 -0.015882
C27   C     C_R   0.514379 0.496702 0.046614 -0.001652
C28   C     C_R   0.516413 0.495764 0.952658 0.024896
C29   C     C_R   0.515611 0.401891 0.091152 0.060829
C30   C     C_R   0.526700 0.592202 0.908988 0.066156
C31   C     C_R   0.539403 0.686460 0.051607 0.305430
C32   C     C_R   0.514965 0.304612 0.949274 0.224714
C33   C     C_2   0.541351 0.309852 0.233971 0.481973
C34   C     C_R   0.515660 0.307521 0.041595 -0.141811
C35   C     C_2   0.526785 0.693046 0.767117 0.475643
C36   C     C_2   0.995816 0.379207 0.311122 0.526146
C37   C     C_2   0.015104 0.706413 0.625587 0.507445
C38   C     C_2   0.436217 0.680577 0.238693 0.512999
C39   C     C_2   0.470014 0.305597 0.756303 0.499165
C40   C     C_2   0.651377 0.984965 0.296440 0.630376
C41   C     C_2   0.229869 0.973508 0.520062 0.590680
C42   C     C_2   0.187576 0.362479 0.419671 0.438321
C43   C     C_2   0.804208 0.586453 0.621302 0.438150
C44   C     C_R   0.461097 0.185157 0.489672 -0.244686
C45   C     C_R   0.531421 0.810522 0.478478 -0.148461
C46   C     C_R   0.596162 0.951960 0.382529 -0.073759
C47   C     C_R   0.343392 0.027484 0.513699 -0.072117
C48   C     C_R   0.602894 0.848485 0.407739 0.112404
H1    H     H_    0.575037 0.757188 0.928232 0.227849
H2    H     H_    0.396386 0.257033 0.775393 0.122733
H3    H     H_    0.732221 0.958042 0.274391 0.130715
H4    H     H_    0.219912 0.890021 0.506211 0.059110
H5    H     H_    0.265904 0.368568 0.381456 0.084148
H6    H     H_    0.740472 0.640911 0.614303 0.072477
H7    H     H_    0.515295 0.233755 0.074157 0.224895
H8    H     H_    0.222801 0.646758 0.607020 0.206441
H9    H     H_    0.782239 0.395006 0.362157 0.200797
H10   H     H_    0.493695 0.291085 0.295351 0.026299
H11   H     H_    0.568980 0.697864 0.701529 0.043728
H12   H     H_    0.077874 0.404197 0.283866 0.029403
H13   H     H_    0.942559 0.744146 0.605930 0.053562
H14   H     H_    0.452254 0.696462 0.308396 0.064470
N1    N     N_R   0.207800 0.519350 0.516680 -0.151777
N2    N     N_R   0.792200 0.480650 0.483320 -0.147868
O1    O     O_R   0.421700 0.658830 0.504450 -0.618617
O2    O     O_2   0.479373 0.768830 0.797718 -0.470804
O3    O     O_2   0.938848 0.316560 0.267377 -0.478260
O4    O     O_2   0.068279 0.746791 0.686131 -0.477871
O5    O     O_2   0.371895 0.734382 0.203508 -0.508467
O6    O     O_2   0.530062 0.278698 0.692515 -0.514049
O7    O     O_2   0.604734 0.040595 0.247738 -0.470155
O8    O     O_2   0.145761 0.020927 0.535087 -0.458338
O9    O     O_2   0.138787 0.276653 0.425631 -0.494978
O10   O     O_2   0.830243 0.565999 0.695999 -0.521196
O11   O     O_R   0.578300 0.341170 0.495550 -0.550148
O12   O     O_R   0.609310 0.646410 0.493750 -0.618160
O13   O     O_R   0.390690 0.353590 0.506250 -0.621779
O14   O     O_R   0.406180 0.506230 0.637500 -0.598333
O15   O     O_R   0.593820 0.493770 0.362500 -0.591372
O16   O     O_R   0.593800 0.493820 0.626800 -0.602162
O17   O     O_R   0.406200 0.506180 0.373200 -0.675874
O18   O     O_2   0.617954 0.256161 0.208837 -0.452504
Zn1   Zn    Zn3+2 0.374730 0.508290 0.507150 0.978538
Zn2   Zn    Zn3+2 0.625270 0.491710 0.492850 1.029960

loop_
_geom_bond_atom_site_label_1
_geom_bond_atom_site_label_2
_ccdc_geom_bond_type
C24   C26   A    
C24   C39   S    
C3    C45   A    
C18   C33   S    
C33   H10   S    
C23   C30   A    
C43   H6    S    
C39   O6    D    
C42   O9    D    
C13   C15   A    
C18   C20   A    
C1    O1    A    
C40   C46   S    
C12   O11   A    
C17   C20   S    
C39   H2    S    
C25   C27   A    
C26   C32   A    
C5    C47   A    
Br1   C31   S    
C41   C47   S    
C37   O4    D    
C11   N2    A    
C17   O17   A    
C21   C24   A    
N2    Zn2   S    
C10   H8    S    
C33   O18   D    
Br6   C48   S    
N1    Zn1   S    
C7    C36   S    
C6    C46   A    
C46   C48   A    
C12   O13   A    
O13   Zn1   S    
C18   C29   A    
C8    C14   A    
O16   Zn2   S    
C19   C35   S    
C13   C42   S    
C35   H11   S    
C23   H1    S    
C22   C38   S    
C34   H7    S    
C25   C31   A    
C16   O14   A    
C38   O5    D    
C40   O7    D    
Br2   C32   S    
O1    Zn1   S    
O15   Zn2   S    
C27   C28   A    
C7    C15   A    
C3    C5    A    
C4    C6    A    
C35   O2    D    
O11   Zn2   S    
C16   C21   S    
C7    C9    A    
C40   H3    S    
C8    C10   A    
C38   H14   S    
O14   Zn1   S    
C11   C43   S    
C4    C44   A    
C2    C44   A    
C12   C44   S    
C42   H5    S    
C9    N2    A    
C36   O3    D    
C11   C14   A    
C22   C25   A    
C10   N1    A    
C2    C47   A    
Br5   C2    S    
C5    C6    A    
C19   C21   A    
C20   C22   A    
O12   Zn2   S    
C43   O10   D    
C45   C48   A    
O17   Zn1   S    
C29   C34   A    
C1    C45   S    
Br3   C4    S    
C41   H4    S    
C32   C34   A    
C27   C29   A    
C28   C30   A    
C16   O16   A    
C13   N1    A    
C19   C30   A    
C1    O12   A    
C14   C15   A    
C37   H13   S    
C17   O15   A    
C23   C31   A    
C36   H12   S    
C9    H9    S    
C41   O8    D    
Br4   C3    S    
C26   C28   A    
C8    C37   S    
