data_mof_unit_4171.cif
_audit_creation_date              2012-12-10T19:42:14-0500
_audit_creation_method            fapswitch 2.2
_symmetry_space_group_name_H-M    P1
_symmetry_Int_Tables_number       1
_space_group_crystal_system       triclinic
_cell_length_a                    10.875605
_cell_length_b                    10.894555
_cell_length_c                    9.696083
_cell_angle_alpha                 90.17969
_cell_angle_beta                  90.651049
_cell_angle_gamma                 89.586145
_cell_volume                      1148.72970777

loop_
_atom_site_label
_atom_site_type_symbol
_atom_type_description
_atom_site_fract_x
_atom_site_fract_y
_atom_site_fract_z
_atom_type_partial_charge
C1    C     C_R   0.497592 0.265359 0.499860 0.847276
C2    C     C_R   0.207772 0.582184 0.977107 -0.126992
C3    C     C_R   0.932523 0.488125 0.378087 -0.222477
C4    C     C_R   0.871663 0.499770 0.503941 -0.094912
C5    C     C_R   0.940258 0.517658 0.627248 0.002692
C6    C     C_R   0.067271 0.514441 0.621879 -0.227714
C7    C     C_R   0.128012 0.504707 0.496205 -0.095154
C8    C     C_R   0.059240 0.497125 0.371904 -0.000913
C9    C     C_R   0.877642 0.665357 0.816528 0.050281
C10   C     C_R   0.832217 0.684387 0.950010 -0.180975
C11   C     C_R   0.793343 0.585626 0.029142 -0.164864
C12   C     C_R   0.262177 0.502818 0.498810 0.777538
C13   C     C_R   0.800702 0.466379 0.976969 -0.134960
C14   C     C_R   0.846896 0.445525 0.845093 -0.118772
C15   C     C_R   0.885028 0.544097 0.763440 0.098143
C16   C     C_2   0.491805 0.932620 0.386680 -0.169620
C17   C     C_2   0.508148 0.866820 0.502051 -0.325371
C18   C     C_2   0.497808 0.066681 0.385989 -0.164736
C19   C     C_2   0.489283 0.133370 0.501692 -0.330500
C20   C     C_2   0.467078 0.406102 0.921554 -0.079617
C21   C     C_2   0.472311 0.404417 0.076933 -0.060758
C22   C     C_R   0.501479 0.734693 0.500199 0.844556
C23   C     C_R   0.737746 0.499407 0.501242 0.782883
C24   C     C_R   0.191330 0.672950 0.076575 -0.161699
C25   C     C_R   0.142707 0.642869 0.204127 -0.113384
C26   C     C_R   0.112751 0.520792 0.235043 0.107043
C27   C     C_R   0.129925 0.427633 0.134467 0.049833
C28   C     C_R   0.175534 0.460726 0.004668 -0.161843
Cu1   Cu    Cu3+1 0.500020 0.500020 0.638630 0.932285
Cu2   Cu    Cu3+1 0.499980 0.499980 0.361370 0.930090
H1    H     H_    0.247533 0.606151 0.879212 0.151344
H2    H     H_    0.756771 0.602013 0.130848 0.152776
H3    H     H_    0.770700 0.389962 0.038887 0.138214
H4    H     H_    0.852580 0.352470 0.805900 0.116702
H5    H     H_    0.475599 0.887373 0.288187 0.164267
H6    H     H_    0.529553 0.908415 0.600856 0.149346
H7    H     H_    0.507725 0.111051 0.286582 0.160474
H8    H     H_    0.473123 0.092451 0.601358 0.144054
H9    H     H_    0.434453 0.323793 0.870357 0.150183
H10   H     H_    0.534527 0.574751 0.894634 0.203350
H11   H     H_    0.449816 0.318713 0.126750 0.149666
H12   H     H_    0.216448 0.766834 0.054946 0.119654
H13   H     H_    0.514029 0.581370 0.106384 0.193006
H14   H     H_    0.129279 0.714823 0.280021 0.116627
H15   H     H_    0.190387 0.391489 0.926078 0.124278
H16   H     H_    0.881227 0.478623 0.282470 0.161700
H17   H     H_    0.118630 0.523472 0.716986 0.157234
H18   H     H_    0.825374 0.776325 0.992294 0.126696
N1    N     N_2   0.498640 0.498660 0.846910 -0.281360
N2    N     N_2   0.498610 0.498630 0.153040 -0.281215
O1    O     O_R   0.500020 0.321960 0.617040 -0.584504
O2    O     O_R   0.499980 0.321920 0.382900 -0.583985
O3    O     O_R   0.319660 0.500030 0.617070 -0.586707
O4    O     O_R   0.319620 0.499990 0.382930 -0.569523
O5    O     O_R   0.500020 0.678080 0.617100 -0.585723
O6    O     O_R   0.499980 0.678040 0.382960 -0.581205
O7    O     O_R   0.680380 0.500010 0.617070 -0.566146
O8    O     O_R   0.680340 0.499970 0.382930 -0.589323
C29   C     C_R   0.106811 0.295826 0.162941 0.084545
C30   C     C_R   0.164651 0.236541 0.275135 -0.134149
C31   C     C_R   0.147959 0.110955 0.296772 -0.157611
C32   C     C_R   0.072994 0.043279 0.207228 -0.121679
C33   C     C_R   0.015907 0.100856 0.094808 -0.143006
C34   C     C_R   0.033524 0.226171 0.072008 -0.167912
H19   H     H_    0.225135 0.286139 0.344044 0.137373
H20   H     H_    0.193773 0.065957 0.382679 0.140165
H21   H     H_    0.059895 0.946135 0.224333 0.119471
H22   H     H_    0.958733 0.048201 0.024650 0.129337
H23   H     H_    0.990566 0.268578 0.983074 0.122294
C35   C     C_R   0.915037 0.773672 0.735468 0.093087
C36   C     C_R   0.004993 0.853660 0.788053 -0.168280
C37   C     C_R   0.035752 0.959691 0.715660 -0.147653
C38   C     C_R   0.976465 0.987056 0.590789 -0.119330
C39   C     C_R   0.886869 0.908100 0.537671 -0.137714
C40   C     C_R   0.855752 0.802095 0.609911 -0.127493
H24   H     H_    0.050447 0.834446 0.885543 0.125108
H25   H     H_    0.104675 0.021265 0.757080 0.127681
H26   H     H_    0.998977 0.070106 0.536025 0.136009
H27   H     H_    0.840279 0.929917 0.441481 0.136138
H28   H     H_    0.783387 0.744217 0.569657 0.116378

loop_
_geom_bond_atom_site_label_1
_geom_bond_atom_site_label_2
_ccdc_geom_bond_type
C23   O8    A    
C24   H12   S    
C38   C39   A    
C7    C8    A    
Cu1   N1    S    
Cu2   O4    S    
C29   C34   A    
Cu1   Cu2   S    
C32   H21   S    
C18   H7    S    
C4    C23   S    
C16   H5    S    
Cu1   O1    S    
C5    C6    A    
H10   N1    S    
C8    C26   S    
C18   C19   D    
C37   H25   S    
C31   H20   S    
C16   C17   D    
C38   H26   S    
C35   C36   A    
C17   H6    S    
C40   H28   S    
C12   O3    A    
Cu2   N2    S    
C29   C30   A    
C13   C14   A    
C25   H14   S    
C21   N2    D    
C7    C12   S    
C28   H15   S    
C1    C19   S    
C6    H17   S    
C9    C35   S    
C3    C8    A    
C39   C40   A    
C20   H9    S    
C4    C5    A    
C22   O6    A    
Cu1   O5    S    
C25   C26   A    
Cu2   O6    S    
C30   C31   A    
C13   H3    S    
C32   C33   A    
C19   H8    S    
C20   N1    D    
C30   H19   S    
C26   C27   A    
C34   H23   S    
C24   C25   A    
C1    O1    A    
C6    C7    A    
C21   H11   S    
Cu1   O7    S    
C11   H2    S    
C39   H27   S    
C10   H18   S    
C3    C4    A    
C35   C40   A    
C9    C10   A    
C23   O7    A    
Cu2   O2    S    
C33   H22   S    
C37   C38   A    
C14   H4    S    
H13   N2    S    
C22   O5    A    
C3    H16   S    
C17   C22   S    
C9    C15   A    
C36   C37   A    
C27   C29   S    
C2    C24   A    
C11   C13   A    
C36   H24   S    
Cu1   O3    S    
Cu2   O8    S    
C31   C32   A    
C1    O2    A    
C5    C15   S    
C10   C11   A    
C33   C34   A    
C20   C21   S    
C16   C18   S    
C27   C28   A    
C14   C15   A    
C2    H1    S    
C2    C28   A    
C12   O4    A    
