data_mof_unit_548.cif
_audit_creation_date              2012-10-26T20:38:26-0400
_audit_creation_method            fapswitch 2.2
_symmetry_space_group_name_H-M    P1
_symmetry_Int_Tables_number       1
_space_group_crystal_system       triclinic
_cell_length_a                    15.874094
_cell_length_b                    11.098669
_cell_length_c                    9.860879
_cell_angle_alpha                 112.105705
_cell_angle_beta                  97.97547
_cell_angle_gamma                 91.419975
_cell_volume                      1588.40459003

loop_
_atom_site_label
_atom_site_type_symbol
_atom_type_description
_atom_site_fract_x
_atom_site_fract_y
_atom_site_fract_z
_atom_type_partial_charge
C1    C     C_R   0.493624 0.253256 0.439038 0.540362
C2    C     C_3   0.027382 0.583567 0.438927 0.196613
C3    C     C_3   0.017945 0.382780 0.425728 0.220649
C4    C     C_3   0.982131 0.626672 0.578096 0.134271
C5    C     C_1   0.250780 0.498043 0.503794 0.002301
C6    C     C_1   0.749313 0.503311 0.496721 -0.000615
C7    C     C_3   0.039353 0.544500 0.644049 0.220759
C8    C     C_3   0.961501 0.464004 0.360285 0.245032
C9    C     C_3   0.084071 0.500573 0.504739 0.011199
C10   C     C_3   0.916337 0.505973 0.498035 0.003549
C11   C     C_1   0.175498 0.497985 0.504916 0.046507
C12   C     C_R   0.506218 0.746738 0.560962 0.538243
C13   C     C_1   0.824704 0.505256 0.496440 0.041099
C14   C     C_2   0.489795 0.111569 0.402368 0.197959
C15   C     C_2   0.509801 0.888411 0.597616 0.196664
C16   C     C_3   0.003467 0.291873 0.694697 0.034953
C17   C     C_3   0.967997 0.168953 0.709531 -0.264539
C18   C     C_3   0.033179 0.122116 0.803753 -0.482103
C19   C     C_3   0.033204 0.775078 0.394157 0.003630
C20   C     C_3   0.053137 0.823067 0.275018 -0.274952
C21   C     C_3   0.024659 0.959047 0.303034 -0.469909
C22   C     C_3   0.890825 0.508295 0.164743 0.017200
C23   C     C_2   0.501729 0.069535 0.513794 -0.054839
C24   C     C_3   0.825953 0.447738 0.022623 -0.260054
C25   C     C_3   0.801336 0.548084 0.955815 -0.450179
C26   C     C_3   0.101826 0.701533 0.875687 0.008425
C27   C     C_3   0.172941 0.766617 0.829235 -0.279509
C28   C     C_3   0.195961 0.907691 0.937267 -0.471315
C29   C     C_2   0.499066 0.930471 0.486149 -0.055213
C30   C     C_2   0.506878 0.510630 0.081117 0.151161
C31   C     C_2   0.493530 0.488766 0.918720 0.152935
C32   C     C_R   0.340006 0.499087 0.501086 0.545023
C33   C     C_R   0.660008 0.500948 0.498948 0.547384
C34   C     C_3   0.973869 0.424310 0.563161 0.245908
Cu1   Cu    Cu3+1 0.514700 0.521810 0.644910 0.979801
Cu2   Cu    Cu3+1 0.485300 0.478190 0.355090 0.996518
H1    H     H_    0.488051 0.861006 0.371793 0.178953
H2    H     H_    0.950155 0.090245 0.597732 0.172257
H3    H     H_    0.089550 0.091054 0.747695 0.141005
H4    H     H_    0.003601 0.038068 0.820143 0.162275
H5    H     H_    0.054149 0.200925 0.914514 0.186091
H6    H     H_    0.066103 0.845097 0.503688 0.138952
H7    H     H_    0.962795 0.770668 0.391997 0.151103
H8    H     H_    0.123019 0.825106 0.273083 0.183867
H9    H     H_    0.019892 0.754937 0.164831 0.152066
H10   H     H_    0.954822 0.959639 0.304516 0.152688
H11   H     H_    0.039319 0.988749 0.212607 0.176160
H12   H     H_    0.513764 0.139029 0.628122 0.177848
H13   H     H_    0.059248 0.030073 0.410476 0.179131
H14   H     H_    0.946023 0.554929 0.139604 0.183256
H15   H     H_    0.859669 0.582998 0.249455 0.125953
H16   H     H_    0.853652 0.366692 0.940191 0.188897
H17   H     H_    0.767803 0.407386 0.047327 0.184594
H18   H     H_    0.773947 0.630975 0.036524 0.172454
H19   H     H_    0.752892 0.501637 0.854685 0.196323
H20   H     H_    0.858145 0.585415 0.924507 0.166434
H21   H     H_    0.124558 0.708509 0.990221 0.159098
H22   H     H_    0.042789 0.753467 0.882424 0.162462
H23   H     H_    0.445196 0.413824 0.843600 0.152926
H24   H     H_    0.230620 0.711537 0.826906 0.194097
H25   H     H_    0.152546 0.765693 0.716562 0.155971
H26   H     H_    0.139015 0.964398 0.942581 0.148024
H27   H     H_    0.246105 0.953281 0.899459 0.172164
H28   H     H_    0.220708 0.911300 0.049907 0.169120
H29   H     H_    0.529944 0.931050 0.811006 0.354055
H30   H     H_    0.466491 0.068849 0.189064 0.351964
H31   H     H_    0.620027 0.687650 0.894367 0.368206
H32   H     H_    0.378868 0.313941 0.106060 0.369669
H33   H     H_    0.555691 0.584855 0.156039 0.147675
H34   H     H_    0.982353 0.206069 0.297891 0.345993
H35   H     H_    0.006740 0.811522 0.683643 0.304259
H36   H     H_    0.024275 0.367285 0.807828 0.196688
H37   H     H_    0.059502 0.267233 0.635355 0.167470
H38   H     H_    0.909638 0.189598 0.761993 0.186129
N1    N     N_2   0.463210 0.445420 0.137360 -0.094793
N2    N     N_2   0.536790 0.554580 0.862640 -0.099735
O1    O     O_R   0.507840 0.332340 0.577400 -0.534883
O2    O     O_3   0.955186 0.750008 0.652709 -0.727028
O3    O     O_3   0.938328 0.337955 0.618907 -0.569349
O4    O     O_3   0.065171 0.652240 0.364727 -0.571396
O5    O     O_3   0.918961 0.409123 0.212215 -0.555510
O6    O     O_3   0.085544 0.567599 0.786276 -0.585749
O7    O     O_3   0.523716 0.978052 0.742975 -0.710729
O8    O     O_3   0.474273 0.021889 0.257048 -0.712314
O9    O     O_3   0.595142 0.649005 0.956938 -0.652524
O10   O     O_3   0.403774 0.352553 0.043474 -0.634519
O11   O     O_R   0.492160 0.667660 0.422600 -0.533476
O12   O     O_R   0.483020 0.295500 0.332650 -0.503207
O13   O     O_R   0.516980 0.704500 0.667350 -0.502094
O14   O     O_R   0.391490 0.518400 0.622350 -0.506351
O15   O     O_R   0.608510 0.481600 0.377650 -0.504374
O16   O     O_R   0.366660 0.481570 0.377600 -0.485733
O17   O     O_R   0.633340 0.518430 0.622400 -0.503563
O18   O     O_3   0.038131 0.256507 0.346178 -0.703869

loop_
_geom_bond_atom_site_label_1
_geom_bond_atom_site_label_2
_ccdc_geom_bond_type
C24   H16   S    
H32   O10   S    
Cu1   Cu2   S    
C16   H36   S    
C25   H20   S    
C14   O8    S    
C21   H13   S    
Cu2   O12   S    
C26   C27   S    
C23   C29   S    
H34   O18   S    
C5    C11   T    
C27   H24   S    
C33   O15   A    
C30   C31   S    
H29   O7    S    
C1    O1    A    
C31   H23   S    
C18   H4    S    
C27   H25   S    
C32   O14   A    
C19   C20   S    
C16   C17   S    
C20   H9    S    
C19   H6    S    
C22   H14   S    
C5    C32   S    
Cu2   O16   S    
C1    O12   A    
C26   O6    S    
C4    C7    S    
C20   H8    S    
C19   H7    S    
C15   C29   D    
Cu1   O17   S    
Cu2   O11   S    
Cu1   N2    S    
H31   O9    S    
C16   H37   S    
C22   O5    S    
C12   O13   A    
C25   H18   S    
C3    C8    S    
C18   H5    S    
C15   O7    S    
C3    C34   S    
C24   H17   S    
Cu1   O1    S    
C8    O5    S    
C14   C23   D    
C2    C4    S    
C18   H3    S    
Cu1   O14   S    
C4    O2    S    
C3    C9    S    
Cu2   N1    S    
C34   O3    S    
C9    C11   S    
N1    O10   S    
C12   C15   S    
C17   C18   S    
C10   C34   S    
C24   C25   S    
C26   H22   S    
Cu1   O13   S    
Cu2   O15   S    
C17   H38   S    
C7    C34   S    
C22   C24   S    
C4    C10   S    
C28   H28   S    
C30   H33   S    
C21   H10   S    
C7    C9    S    
C23   H12   S    
C12   O11   A    
C2    C8    S    
C25   H19   S    
C10   C13   S    
C33   O17   A    
C6    C33   S    
C16   O3    S    
C6    C13   T    
C30   N1    D    
C31   N2    D    
C32   O16   A    
C3    O18   S    
C17   H2    S    
C19   O4    S    
C26   H21   S    
C2    O4    S    
H30   O8    S    
C28   H27   S    
C7    O6    S    
C20   C21   S    
C8    C10   S    
C29   H1    S    
C27   C28   S    
C1    C14   S    
C2    C9    S    
N2    O9    S    
H35   O2    S    
C22   H15   S    
C21   H11   S    
C28   H26   S    
