data_mof_unit_2394.cif
_audit_creation_date              2013-03-05T15:47:56-0500
_audit_creation_method            fapswitch 2.2
_symmetry_space_group_name_H-M    P1
_symmetry_Int_Tables_number       1
_space_group_crystal_system       triclinic
_cell_length_a                    11.782415
_cell_length_b                    12.979396
_cell_length_c                    13.319938
_cell_angle_alpha                 93.742667
_cell_angle_beta                  75.559738
_cell_angle_gamma                 98.840472
_cell_volume                      1948.43912208

loop_
_atom_site_label
_atom_site_type_symbol
_atom_site_description
_atom_site_fract_x
_atom_site_fract_y
_atom_site_fract_z
_atom_type_partial_charge
O1    O     O_R   0.419710 0.645650 0.494620 -0.548592
O2    O     O_R   0.611450 0.658430 0.507430 -0.558925
C1    C     C_R   0.520149 0.700074 0.501634 0.908811
O3    O     O_R   0.357340 0.490460 0.641450 -0.523519
O4    O     O_R   0.549080 0.503250 0.654260 -0.605634
C2    C     C_R   0.435163 0.485646 0.696045 0.832810
Cu1   Cu    Cu3+1 0.386470 0.492430 0.492410 1.004366
Cu2   Cu    Cu3+1 0.613530 0.507570 0.507590 0.970400
O5    O     O_R   0.388550 0.341570 0.492570 -0.557844
O6    O     O_R   0.580290 0.354350 0.505380 -0.585952
O7    O     O_R   0.450920 0.496750 0.345740 -0.587175
O8    O     O_R   0.642660 0.509540 0.358550 -0.560022
C3    C     C_R   0.481439 0.299768 0.493586 0.827876
C4    C     C_R   0.564169 0.504976 0.303336 0.826054
C5    C     C_R   0.740405 0.454167 0.031462 -0.138011
H1    H     H_    0.784724 0.485846 0.177682 0.177914
H2    H     H_    0.830098 0.441965 0.994424 0.179984
C6    C     C_R   0.600987 0.497679 0.189200 -0.046034
C7    C     C_R   0.273143 0.457818 0.861450 0.123872
C8    C     C_R   0.236259 0.440580 0.968185 0.165624
C9    C     C_R   0.319241 0.433985 0.025993 0.119166
C10   C     C_R   0.442398 0.445181 0.975584 -0.010133
C11   C     C_R   0.474435 0.435820 0.865895 -0.067638
C12   C     C_R   0.534534 0.459494 0.029251 0.058610
C13   C     C_R   0.650414 0.440501 0.976990 0.054240
C14   C     C_R   0.671974 0.403651 0.873371 0.120635
C15   C     C_R   0.582653 0.396512 0.819404 0.157970
C16   C     C_R   0.515624 0.496704 0.132587 -0.210755
C17   C     C_R   0.715245 0.480624 0.136979 -0.157710
C18   C     C_R   0.393713 0.458622 0.808561 -0.158973
H3    H     H_    0.434016 0.524956 0.170709 0.174208
C19   C     C_R   0.474156 0.186650 0.481460 -0.088178
C20   C     C_R   0.529578 0.813082 0.506028 -0.103315
C21   C     C_R   0.592819 0.978811 0.584193 0.137719
C22   C     C_R   0.583928 0.870077 0.578974 0.078067
C23   C     C_R   0.481688 0.862964 0.439168 0.044962
C24   C     C_R   0.471230 0.969808 0.456558 0.035389
C25   C     C_R   0.535469 0.028667 0.523911 0.033483
C26   C     C_R   0.540027 0.136582 0.530960 -0.239965
C27   C     C_R   0.401394 0.128854 0.422640 0.167294
C28   C     C_R   0.398000 0.020443 0.411104 0.144180
H4    H     H_    0.593971 0.183329 0.576168 0.208972
N1    N     N_R   0.215880 0.481050 0.481000 -0.203955
N2    N     N_R   0.784100 0.518950 0.519000 -0.215304
C29   C     C_R   0.928957 0.584388 0.613847 0.073317
C30   C     C_R   0.816174 0.579676 0.596143 -0.012673
C31   C     C_R   0.862038 0.458644 0.455789 0.306007
C32   C     C_R   0.980325 0.465377 0.465702 -0.027630
C33   C     C_R   0.016696 0.531514 0.543854 0.010227
C34   C     C_R   0.138698 0.541356 0.547239 0.371183
C35   C     C_R   0.178277 0.414442 0.409965 0.042576
C36   C     C_R   0.062627 0.406834 0.399778 -0.275437
H5    H     H_    0.239288 0.368289 0.359273 0.156275
H6    H     H_    0.040425 0.354501 0.339156 0.188131
H7    H     H_    0.751292 0.621403 0.648114 0.160874
N3    N     N_3   0.332361 0.180792 0.372422 -0.577555
H8    H     H_    0.242892 0.151753 0.400610 0.253084
H9    H     H_    0.356337 0.163721 0.292778 0.228492
I1    I     I_    0.686046 0.062869 0.690662 -0.321563
N4    N     N_3   0.307988 0.964381 0.365097 -0.592515
H10   H     H_    0.343973 0.949687 0.286521 0.260085
H11   H     H_    0.269089 0.896047 0.404867 0.262928
N5    N     N_3   0.629380 0.816113 0.647842 -0.574910
H12   H     H_    0.720415 0.840610 0.635501 0.247499
H13   H     H_    0.587622 0.834673 0.724341 0.247923
I2    I     I_    0.461365 0.779923 0.297588 -0.402342
I3    I     I_    0.204543 0.661894 0.646212 -0.301228
N6    N     N_3   0.947098 0.636292 0.707823 -0.553696
H14   H     H_    0.931802 0.713490 0.707000 0.235519
H15   H     H_    0.884644 0.600257 0.770376 0.237045
I4    I     I_    0.835869 0.349780 0.796521 -0.357781
I5    I     I_    0.806752 0.348157 0.344132 -0.367422
N7    N     N_3   0.185632 0.467754 0.806140 -0.517759
H16   H     H_    0.138690 0.527979 0.841479 0.261730
H17   H     H_    0.126254 0.398418 0.812717 0.260512
N8    N     N_3   0.273299 0.396057 0.129476 -0.617868
H18   H     H_    0.331827 0.354478 0.151708 0.235231
H19   H     H_    0.251565 0.458154 0.181096 0.219270
N9    N     N_3   0.112106 0.429641 0.017719 -0.596589
H20   H     H_    0.086439 0.356010 0.050319 0.262046
H21   H     H_    0.098438 0.486162 0.077459 0.233302
N10   N     N_3   0.593413 0.328253 0.729304 -0.527353
H22   H     H_    0.657913 0.363866 0.668025 0.278800
H23   H     H_    0.512796 0.307938 0.708773 0.207293

loop_
_geom_bond_atom_site_label_1
_geom_bond_atom_site_label_2
_geom_bond_distance
_ccdc_geom_bond_type
N5    H13   1.045341 S    
N7    H16   1.045715 S    
C4    C6    1.474228 S    
C3    C19   1.458189 S    
C7    C8    1.401304 A    
Cu1   Cu2   2.709211 S    
C29   C30   1.398084 A    
Cu1   O7    1.912536 S    
C9    N8    1.438693 S    
C14   C15   1.404104 A    
N4    H11   1.045287 S    
C23   C24   1.410075 A    
N8    H19   1.044621 S    
O4    C2    1.308928 A    
O7    C4    1.303499 A    
C23   I2    2.157769 S    
C5    C13   1.411118 A    
C1    C20   1.452295 S    
C20   C23   1.403173 A    
N3    H8    1.045577 S    
Cu1   O5    1.962136 S    
C21   C22   1.397489 A    
C19   C26   1.387653 A    
O5    C3    1.297403 A    
N2    C30   1.347690 A    
N6    H14   1.046183 S    
C27   N3    1.436047 S    
C30   H7    1.082266 S    
C11   C15   1.426359 A    
C34   I3    2.157618 S    
N2    C31   1.383522 A    
O1    Cu1   1.966698 S    
C9    C10   1.428144 A    
C14   I4    2.145118 S    
N7    H17   1.045578 S    
O3    Cu1   1.929661 S    
C36   H6    1.077483 S    
C5    C17   1.393432 A    
C26   H4    1.076737 S    
C16   H3    1.075837 S    
C35   C36   1.390699 A    
C11   C18   1.433065 A    
C12   C16   1.403851 A    
C7    N7    1.433430 S    
C6    C16   1.397666 A    
C12   C13   1.420049 A    
O3    C2    1.315146 A    
N9    H21   1.045707 S    
H1    C17   1.080826 S    
N9    H20   1.045561 S    
N4    H10   1.043582 S    
C35   H5    1.081196 S    
C24   C25   1.425767 A    
C31   C32   1.421383 A    
C29   C33   1.436219 A    
Cu2   O8    1.929661 S    
C29   N6    1.430212 S    
C6    C17   1.396302 A    
N8    H18   1.044791 S    
Cu2   O6    1.966699 S    
C27   C28   1.400974 A    
C2    C18   1.502866 S    
O8    C4    1.310095 A    
N10   H22   1.043728 S    
N10   H23   1.043897 S    
C21   I1    2.148163 S    
C10   C12   1.425386 A    
Cu1   N1    2.035445 S    
C5    H2    1.080056 S    
C32   C33   1.413116 A    
C8    N9    1.436094 S    
C21   C25   1.411705 A    
C15   N10   1.435664 S    
O2    Cu2   1.962133 S    
Cu2   N2    2.035210 S    
C28   N4    1.434753 S    
O6    C3    1.306219 A    
O4    Cu2   1.912537 S    
N1    C34   1.395199 A    
O2    C1    1.296508 A    
C13   C14   1.405180 A    
N1    C35   1.350385 A    
C25   C26   1.391336 A    
C20   C22   1.404384 A    
N3    H9    1.045663 S    
C19   C27   1.404325 A    
C24   C28   1.424686 A    
C31   I5    2.147185 S    
N5    H12   1.045316 S    
C32   C36   1.415448 A    
C8    C9    1.402134 A    
N6    H15   1.045837 S    
C33   C34   1.435209 A    
C10   C11   1.416957 A    
C22   N5    1.436324 S    
O1    C1    1.302982 A    
C7    C18   1.418371 A    
