data_mof_unit_3995.cif
_audit_creation_date              2012-12-11T14:49:44-0500
_audit_creation_method            fapswitch 2.2
_symmetry_space_group_name_H-M    P1
_symmetry_Int_Tables_number       1
_space_group_crystal_system       monoclinic
_cell_length_a                    11.009117
_cell_length_b                    11.009117
_cell_length_c                    18.978228
_cell_angle_alpha                 90.0
_cell_angle_beta                  90.0
_cell_angle_gamma                 120.000169
_cell_volume                      1992.00546896

loop_
_atom_site_label
_atom_site_type_symbol
_atom_type_description
_atom_site_fract_x
_atom_site_fract_y
_atom_site_fract_z
_atom_type_partial_charge
C1    C     C_R   0.531263 0.465940 0.645631 0.644572
C2    C     C_R   0.461300 0.531042 0.355604 0.649449
C3    C     C_R   0.468958 0.930257 0.144396 0.649448
C4    C     C_R   0.069743 0.538700 0.355604 0.649447
C5    C     C_R   0.436675 0.074297 0.528853 0.144039
C6    C     C_R   0.637623 0.563327 0.971146 0.144039
C7    C     C_R   0.925704 0.362377 0.528854 0.144039
C8    C     C_R   0.436675 0.074297 0.971146 0.144039
C9    C     C_R   0.637623 0.563327 0.528854 0.144039
C10   C     C_R   0.925704 0.362377 0.971146 0.144038
C11   C     C_R   0.956366 0.380353 0.043639 0.180875
C12   C     C_R   0.934677 0.468737 0.854369 0.644571
C13   C     C_R   0.619647 0.576013 0.456361 0.180874
C14   C     C_R   0.423988 0.043635 0.043639 0.180875
C15   C     C_R   0.956366 0.380353 0.456361 0.180875
C16   C     C_R   0.619647 0.576013 0.043639 0.180874
C17   C     C_R   0.423988 0.043635 0.456361 0.180875
C18   C     C_R   0.482351 0.966136 0.429814 0.078748
C19   C     C_R   0.483785 0.517649 0.070186 0.078748
C20   C     C_R   0.033864 0.516215 0.429814 0.078748
C21   C     C_R   0.482351 0.966136 0.070186 0.078749
C22   C     C_R   0.483785 0.517649 0.429814 0.078748
C23   C     C_R   0.534060 0.065323 0.645631 0.644571
C24   C     C_R   0.033864 0.516215 0.070186 0.078748
C25   C     C_R   0.986730 0.480691 0.925851 0.032480
C26   C     C_R   0.519309 0.506039 0.574149 0.032480
C27   C     C_R   0.493961 0.013270 0.925851 0.032480
C28   C     C_R   0.986730 0.480691 0.574149 0.032480
C29   C     C_R   0.519309 0.506039 0.925851 0.032480
C30   C     C_R   0.493961 0.013270 0.574149 0.032480
C31   C     C_R   0.542391 0.908341 0.475168 0.148480
C32   C     C_R   0.365950 0.457608 0.024832 0.148480
C33   C     C_R   0.091658 0.634050 0.475168 0.148480
C34   C     C_R   0.531263 0.465940 0.854369 0.644572
C35   C     C_R   0.542391 0.908341 0.024832 0.148480
C36   C     C_R   0.365950 0.457608 0.475168 0.148480
C37   C     C_R   0.091658 0.634050 0.024832 0.148480
C38   C     C_R   0.077721 0.614269 0.951848 0.170826
C39   C     C_R   0.385731 0.463452 0.548152 0.170826
C40   C     C_R   0.536547 0.922278 0.951848 0.170826
C41   C     C_R   0.077721 0.614269 0.548152 0.170826
C42   C     C_R   0.385731 0.463452 0.951848 0.170826
C43   C     C_R   0.536547 0.922278 0.548152 0.170826
C44   C     C_R   0.934677 0.468737 0.645631 0.644571
C45   C     C_R   0.534060 0.065323 0.854369 0.644571
C46   C     C_R   0.461300 0.531042 0.144396 0.649449
C47   C     C_R   0.468958 0.930257 0.355604 0.649448
C48   C     C_R   0.069743 0.538700 0.144396 0.649447
Cr1   Cr    Cr6+3 0.776430 0.541680 0.750000 1.167051
Cr2   Cr    Cr6+3 0.765250 0.223570 0.750000 1.167052
Cr3   Cr    Cr6+3 0.458320 0.234750 0.750000 1.167051
Cr4   Cr    Cr6+3 0.541680 0.776430 0.250000 1.155443
Cr5   Cr    Cr6+3 0.223570 0.765250 0.250000 1.155443
Cr6   Cr    Cr6+3 0.234750 0.458320 0.250000 1.155443
H1    H     H_    0.412033 0.235443 0.518587 0.324656
H2    H     H_    0.901660 0.186511 0.436218 0.346597
H3    H     H_    0.813490 0.715149 0.063782 0.346597
H4    H     H_    0.284853 0.098342 0.436218 0.346597
H5    H     H_    0.689905 0.861575 0.477108 0.343102
H6    H     H_    0.171669 0.310093 0.022891 0.343102
H7    H     H_    0.138424 0.828331 0.477108 0.343102
H8    H     H_    0.689905 0.861575 0.022891 0.343102
H9    H     H_    0.171669 0.310093 0.477108 0.343102
H10   H     H_    0.138424 0.828331 0.022892 0.343102
H11   H     H_    0.230391 0.799569 0.927854 0.338528
H12   H     H_    0.823411 0.587970 0.981413 0.324657
H13   H     H_    0.200433 0.430824 0.572146 0.338528
H14   H     H_    0.569174 0.769608 0.927854 0.338528
H15   H     H_    0.230390 0.799569 0.572146 0.338528
H16   H     H_    0.200433 0.430824 0.927854 0.338528
H17   H     H_    0.569175 0.769608 0.572146 0.338528
H18   H     H_    0.764559 0.176588 0.518587 0.324657
H19   H     H_    0.412033 0.235443 0.981413 0.324657
H20   H     H_    0.823411 0.587970 0.518587 0.324657
H21   H     H_    0.764559 0.176588 0.981413 0.324657
H22   H     H_    0.901660 0.186510 0.063782 0.346597
H23   H     H_    0.813490 0.715149 0.436218 0.346598
H24   H     H_    0.284853 0.098342 0.063782 0.346597
O1    O     O_R   0.916700 0.566820 0.669930 -0.426454
O2    O     O_R   0.566820 0.916700 0.330070 -0.465794
O3    O     O_R   0.083300 0.650120 0.169930 -0.465794
O4    O     O_R   0.349880 0.433180 0.330070 -0.465794
O5    O     O_R   0.649840 0.534790 0.674920 -0.465362
O6    O     O_R   0.884950 0.350160 0.825080 -0.465362
O7    O     O_R   0.465210 0.115050 0.674920 -0.465362
O8    O     O_R   0.649840 0.534790 0.825080 -0.465362
O9    O     O_R   0.884950 0.350160 0.674920 -0.465362
O10   O     O_R   0.465210 0.115050 0.825080 -0.465362
O11   O     O_R   0.534790 0.649840 0.174920 -0.443096
O12   O     O_R   0.650120 0.083300 0.830070 -0.426454
O13   O     O_R   0.350160 0.884950 0.325080 -0.443095
O14   O     O_R   0.115050 0.465210 0.174920 -0.443096
O15   O     O_R   0.534790 0.649840 0.325080 -0.443096
O16   O     O_R   0.350160 0.884950 0.174920 -0.443095
O17   O     O_R   0.115050 0.465210 0.325080 -0.443096
O18   O     O_3   0.666667 0.333333 0.750000 -0.357176
O19   O     O_3   0.333333 0.666667 0.250000 -0.360959
O20   O     O_3   0.399952 0.167680 0.555893 -0.657451
O21   O     O_3   0.767729 0.600051 0.944107 -0.657450
O22   O     O_3   0.832322 0.232271 0.555894 -0.657450
O23   O     O_R   0.433180 0.349880 0.669930 -0.426454
O24   O     O_3   0.399952 0.167680 0.944107 -0.657451
O25   O     O_3   0.767729 0.600051 0.555893 -0.657450
O26   O     O_3   0.832322 0.232271 0.944106 -0.657450
O27   O     O_3   0.909718 0.268398 0.089642 -0.663462
O28   O     O_3   0.731603 0.641320 0.410357 -0.663462
O29   O     O_3   0.358681 0.090283 0.089643 -0.663462
O30   O     O_3   0.909718 0.268398 0.410358 -0.663462
O31   O     O_3   0.731603 0.641320 0.089642 -0.663462
O32   O     O_3   0.358681 0.090283 0.410357 -0.663462
O33   O     O_3   0.607739 0.840282 0.447208 -0.676960
O34   O     O_R   0.916700 0.566820 0.830070 -0.426454
O35   O     O_3   0.232542 0.392259 0.052792 -0.676959
O36   O     O_3   0.159717 0.767458 0.447208 -0.676960
O37   O     O_3   0.607739 0.840282 0.052792 -0.676960
O38   O     O_3   0.232542 0.392259 0.447208 -0.676959
O39   O     O_3   0.159717 0.767458 0.052792 -0.676959
O40   O     O_3   0.146176 0.723787 0.904800 -0.645331
O41   O     O_3   0.276214 0.422390 0.595200 -0.645331
O42   O     O_3   0.577609 0.853823 0.904800 -0.645331
O43   O     O_3   0.146176 0.723787 0.595200 -0.645331
O44   O     O_3   0.276214 0.422390 0.904800 -0.645331
O45   O     O_R   0.650120 0.083300 0.669930 -0.426454
O46   O     O_3   0.577609 0.853823 0.595200 -0.645331
O47   O     O_R   0.433180 0.349880 0.830070 -0.426454
O48   O     O_R   0.566820 0.916700 0.169930 -0.465794
O49   O     O_R   0.083300 0.650120 0.330070 -0.465794
O50   O     O_R   0.349880 0.433180 0.169930 -0.465794

loop_
_geom_bond_atom_site_label_1
_geom_bond_atom_site_label_2
_ccdc_geom_bond_type
C15   O30   S    
H22   O27   S    
C29   C42   A    
Cr4   O19   S    
Cr6   O4    S    
C17   O32   S    
Cr3   O7    S    
Cr4   O11   S    
C19   C46   S    
Cr2   O6    S    
C46   O11   A    
Cr6   O14   S    
C33   O36   S    
C31   C43   A    
C14   C21   A    
C46   O50   A    
H23   O28   S    
C16   C19   A    
C9    C26   A    
C26   C39   A    
C5    C17   A    
C11   C24   A    
C48   O3    A    
C12   O6    A    
Cr5   O3    S    
C34   O8    A    
C41   O43   S    
C9    C13   A    
H2    O30   S    
Cr5   O49   S    
Cr2   O12   S    
H3    O31   S    
Cr5   O13   S    
H5    O33   S    
H11   O40   S    
Cr6   O19   S    
C35   O37   S    
C32   O35   S    
C44   O9    A    
Cr3   O18   S    
C27   C45   S    
C7    C15   A    
C44   O1    A    
C18   C47   S    
H6    O35   S    
C47   O2    A    
C19   C32   A    
C16   O31   S    
C24   C37   A    
C2    O15   A    
C32   C42   A    
C15   C20   A    
C3    O48   A    
C7    O22   S    
Cr3   O47   S    
C23   C30   S    
H17   O46   S    
C45   O10   A    
Cr4   O48   S    
C23   O45   A    
Cr5   O19   S    
Cr6   O50   S    
C29   C34   S    
C28   C44   S    
H10   O39   S    
Cr1   O1    S    
H24   O29   S    
C24   C48   S    
H12   O21   S    
C11   O27   S    
C37   C38   A    
C25   C38   A    
C4    O17   A    
H16   O44   S    
H15   O43   S    
C27   C40   A    
C9    O25   S    
C17   C18   A    
Cr4   O15   S    
C45   O12   A    
Cr6   O17   S    
Cr2   O9    S    
Cr1   O34   S    
C20   C33   A    
C10   C25   A    
C14   O29   S    
C40   O42   S    
C23   O7    A    
H21   O26   S    
C30   C43   A    
C3    C21   S    
C1    O5    A    
H9    O38   S    
C36   O38   S    
C1    O23   A    
C12   O34   A    
C42   O44   S    
C5    C30   A    
H18   O22   S    
H19   O24   S    
C8    C14   A    
C4    O49   A    
Cr5   O16   S    
H4    O32   S    
C47   O13   A    
Cr1   O8    S    
C36   C39   A    
Cr2   O45   S    
C13   O28   S    
Cr3   O10   S    
C21   C35   A    
Cr3   O23   S    
C22   C36   A    
C12   C25   S    
C33   C41   A    
C6    O21   S    
Cr1   O5    S    
C10   O26   S    
C35   C40   A    
H8    O37   S    
C2    C22   S    
H14   O42   S    
Cr2   O18   S    
C1    C26   S    
H13   O41   S    
C34   O47   A    
C39   O41   S    
H1    O20   S    
C13   C22   A    
C3    O16   A    
Cr1   O18   S    
C2    O4    A    
C10   C11   A    
C7    C28   A    
C6    C16   A    
C4    C20   S    
C6    C29   A    
C37   O39   S    
C5    O20   S    
C48   O14   A    
H7    O36   S    
C8    C27   A    
C31   O33   S    
C38   O40   S    
C18   C31   A    
Cr4   O2    S    
C8    O24   S    
C43   O46   S    
C28   C41   A    
H20   O25   S    
