data_mof_unit_2587.cif
_audit_creation_date              2012-12-10T19:37:57-0500
_audit_creation_method            fapswitch 2.2
_symmetry_space_group_name_H-M    P1
_symmetry_Int_Tables_number       1
_space_group_crystal_system       triclinic
_cell_length_a                    10.984661
_cell_length_b                    15.929552
_cell_length_c                    17.209853
_cell_angle_alpha                 96.348708
_cell_angle_beta                  92.570965
_cell_angle_gamma                 92.241472
_cell_volume                      2986.96514087

loop_
_atom_site_label
_atom_site_type_symbol
_atom_type_description
_atom_site_fract_x
_atom_site_fract_y
_atom_site_fract_z
_atom_type_partial_charge
C1    C     C_R   0.503312 0.489287 0.348440 0.996196
C2    C     C_3   0.878151 0.500811 0.500283 -0.347579
C3    C     C_3   0.931270 0.544108 0.583921 0.559967
C4    C     C_3   0.931374 0.546132 0.427904 0.483793
C5    C     C_R   0.516345 0.483444 0.262084 -0.274112
C6    C     C_R   0.543583 0.557692 0.226547 0.278201
C7    C     C_R   0.565369 0.551036 0.146102 0.269051
C8    C     C_R   0.514727 0.478441 0.097844 0.080424
C9    C     C_R   0.473342 0.408480 0.134121 0.161948
C10   C     C_R   0.504561 0.405035 0.213571 0.275954
C11   C     C_R   0.535445 0.450888 0.855532 0.239403
C12   C     C_R   0.260308 0.500371 0.504981 0.962917
C13   C     C_R   0.492919 0.442313 0.777081 0.230657
C14   C     C_R   0.519526 0.528281 0.901995 0.179021
C15   C     C_R   0.488082 0.515931 0.737761 -0.273818
C16   C     C_R   0.489609 0.595989 0.783103 0.277106
C17   C     C_R   0.492252 0.600046 0.865724 0.254167
C18   C     C_R   0.443445 0.760099 0.464006 0.417384
C19   C     C_R   0.448580 0.849462 0.477751 0.181032
C20   C     C_R   0.523955 0.893458 0.538495 0.118774
C21   C     C_R   0.591508 0.844189 0.586764 0.147797
C22   C     C_R   0.591153 0.753919 0.568283 0.471264
C23   C     C_R   0.494181 0.510311 0.651236 0.913286
C24   C     C_R   0.590240 0.166743 0.531574 0.083200
C25   C     C_R   0.578335 0.255716 0.532826 0.485203
C26   C     C_R   0.486715 0.113086 0.509204 0.117102
C27   C     C_R   0.389838 0.233287 0.458795 0.383821
C28   C     C_R   0.381537 0.150309 0.481519 0.184163
C29   C     C_R   0.740060 0.500012 0.499418 1.012503
C30   C     C_3   0.063996 0.406178 0.494593 0.678427
C31   C     C_3   0.920829 0.407076 0.495076 0.037295
C32   C     C_3   0.077896 0.544770 0.589337 0.443758
C33   C     C_3   0.074236 0.548022 0.437965 0.076969
C34   C     C_3   0.121663 0.500398 0.507664 -0.335824
Cu1   Cu    Cu3+1 0.493900 0.415220 0.496180 1.166138
Cu2   Cu    Cu3+1 0.506100 0.584780 0.503820 1.171624
H1    H     H_    0.887445 0.378482 0.546390 0.145150
H2    H     H_    0.109484 0.614137 0.450865 0.228331
N1    N     N_2   0.506839 0.470346 0.014548 -0.081140
N2    N     N_2   0.524840 0.537206 0.985016 -0.049217
N3    N     N_R   0.515260 0.712130 0.509560 -0.287631
N4    N     N_2   0.528994 0.985276 0.553835 -0.027975
N5    N     N_2   0.489725 0.022429 0.497814 -0.060150
N6    N     N_R   0.484730 0.287850 0.490450 -0.276159
O1    O     O_R   0.494300 0.420530 0.382500 -0.522059
O2    O     O_R   0.504600 0.563720 0.388950 -0.494866
O3    O     O_R   0.312540 0.428400 0.496760 -0.512964
O4    O     O_R   0.322840 0.571590 0.503210 -0.535784
O5    O     O_R   0.495400 0.436280 0.611050 -0.539432
O6    O     O_R   0.505700 0.579470 0.617500 -0.480090
O7    O     O_R   0.677160 0.428410 0.496790 -0.508755
O8    O     O_R   0.687460 0.571600 0.503240 -0.513162
O9    O     O_3   0.113705 0.357417 0.551473 -0.682594
H3    H     H_    0.058542 0.353217 0.594878 0.349326
S1    S     S_3+6 0.886430 0.655411 0.418092 0.110297
O10   O     O_2   0.904207 0.717089 0.490309 -0.195890
O11   O     O_2   0.962019 0.689524 0.356941 -0.188450
O12   O     O_3   0.739867 0.655503 0.386034 -0.439459
H4    H     H_    0.722619 0.715902 0.384564 0.386022
S2    S     S_3+6 0.145071 0.651648 0.621149 0.070514
O13   O     O_2   0.279942 0.649144 0.637735 -0.266443
O14   O     O_2   0.122149 0.713348 0.562929 -0.213056
O15   O     O_3   0.085340 0.688185 0.706014 -0.462878
H5    H     H_    0.124256 0.745319 0.720110 0.397531
O16   O     O_3   0.892391 0.626905 0.594319 -0.613035
H6    H     H_    0.883713 0.643776 0.650997 0.410765
S3    S     S_3+6 0.421604 0.343054 0.738313 0.110608
O17   O     O_2   0.516118 0.284411 0.707288 -0.273873
O18   O     O_2   0.359000 0.304475 0.802563 -0.148125
O19   O     O_3   0.315730 0.353738 0.666939 -0.504593
H7    H     H_    0.300594 0.296088 0.639301 0.396582
S4    S     S_3+6 0.632048 0.372730 0.886879 0.140844
O20   O     O_2   0.555889 0.300080 0.909817 -0.142133
O21   O     O_2   0.708575 0.340821 0.820547 -0.222252
O22   O     O_3   0.725955 0.412788 0.962978 -0.457054
H8    H     H_    0.759870 0.362962 0.984454 0.397338
S5    S     S_3+6 0.382159 0.325164 0.080988 0.156274
O23   O     O_2   0.462534 0.259676 0.043782 -0.104473
O24   O     O_2   0.300844 0.284569 0.135511 -0.209493
O25   O     O_3   0.295240 0.361916 0.010351 -0.440333
H9    H     H_    0.244882 0.404590 0.038357 0.348417
S6    S     S_3+6 0.597489 0.318660 0.231891 0.161753
O26   O     O_2   0.620511 0.308704 0.316925 -0.193257
O27   O     O_2   0.543216 0.236624 0.191181 -0.147984
O28   O     O_3   0.732360 0.337152 0.193071 -0.481791
H10   H     H_    0.780315 0.287267 0.201474 0.392628
O29   O     O_3   0.486374 0.668631 0.746190 -0.606980
H11   H     H_    0.523228 0.716633 0.782102 0.377704
S7    S     S_3+6 0.666786 0.628258 0.112536 0.121033
O30   O     O_2   0.593380 0.693987 0.078030 -0.216639
O31   O     O_2   0.747977 0.670636 0.179312 -0.168142
O32   O     O_3   0.755978 0.582450 0.044604 -0.441725
H12   H     H_    0.796051 0.629991 0.021533 0.391200
O33   O     O_3   0.471162 0.673520 0.912791 -0.622820
H13   H     H_    0.416996 0.708324 0.883224 0.360595
O34   O     O_3   0.096591 0.368452 0.421561 -0.521153
H14   H     H_    0.074284 0.307340 0.419015 0.398306
O35   O     O_3   0.555375 0.635000 0.271623 -0.615154
H15   H     H_    0.539422 0.680121 0.237717 0.383192
O36   O     O_3   0.659996 0.311443 0.576885 -0.639989
H16   H     H_    0.700330 0.282971 0.618627 0.354851
S8    S     S_3+6 0.734456 0.125412 0.553901 0.102594
O37   O     O_2   0.751935 0.045431 0.501323 -0.168980
O38   O     O_2   0.836389 0.187901 0.542616 -0.304990
O39   O     O_3   0.741614 0.104216 0.647455 -0.380354
H17   H     H_    0.706665 0.153267 0.677682 0.367318
S9    S     S_3+6 0.671302 0.894999 0.672652 0.111580
O40   O     O_2   0.796792 0.922642 0.651572 -0.168771
O41   O     O_2   0.605211 0.970889 0.705307 -0.180251
O42   O     O_3   0.683528 0.829232 0.742359 -0.522916
H18   H     H_    0.735371 0.861083 0.785154 0.398682
O43   O     O_3   0.665641 0.706233 0.610160 -0.595036
H19   H     H_    0.741090 0.740651 0.626526 0.377384
S10   S     S_3+6 0.317044 0.245569 0.366187 0.136773
O44   O     O_2   0.300611 0.335802 0.353131 -0.221334
O45   O     O_2   0.397449 0.206370 0.305480 -0.190559
O46   O     O_3   0.180532 0.193691 0.350897 -0.464003
H20   H     H_    0.155119 0.199690 0.295896 0.400461
O47   O     O_3   0.371203 0.893175 0.433646 -0.554706
H21   H     H_    0.306472 0.911617 0.469132 0.398435
S11   S     S_3+6 0.238329 0.095813 0.483916 0.124479
O48   O     O_2   0.212100 0.040133 0.408173 -0.163263
O49   O     O_2   0.240266 0.042358 0.550640 -0.239426
O50   O     O_3   0.128095 0.165501 0.497745 -0.459043
H22   H     H_    0.050719 0.131262 0.487327 0.420839
S12   S     S_3+6 0.332653 0.721305 0.387346 0.128130
O51   O     O_2   0.211364 0.753151 0.411203 -0.178839
O52   O     O_2   0.365844 0.761927 0.315821 -0.214664
O53   O     O_3   0.312092 0.618028 0.360920 -0.514022
H23   H     H_    0.305179 0.611232 0.302924 0.360598
O54   O     O_3   0.864663 0.356227 0.430188 -0.565267
H24   H     H_    0.868153 0.296315 0.440696 0.374694
O55   O     O_3   0.115794 0.497051 0.649614 -0.688583
H25   H     H_    0.206172 0.497348 0.652516 0.362360
O56   O     O_3   0.877812 0.502213 0.643989 -0.697825
H26   H     H_    0.920312 0.450804 0.654154 0.360164
O57   O     O_3   0.127060 0.515391 0.368613 -0.602292
H27   H     H_    0.109902 0.554730 0.329002 0.380315
S13   S     S_3+6 0.878303 0.489414 0.331939 0.145522
O58   O     O_2   0.748470 0.460646 0.335960 -0.247985
O59   O     O_2   0.884818 0.546859 0.268325 -0.201242
O60   O     O_3   0.958123 0.404080 0.303765 -0.397106
H28   H     H_    0.968777 0.404959 0.247020 0.383807

loop_
_geom_bond_atom_site_label_1
_geom_bond_atom_site_label_2
_ccdc_geom_bond_type
O29   H11   S    
S12   O51   D    
C11   C13   A    
O39   H17   S    
Cu1   Cu2   S    
C12   O4    A    
Cu1   O3    S    
S10   O44   D    
C7    C8    A    
S5    O23   D    
S2    O15   S    
C1    C5    S    
C5    C6    A    
C6    O35   S    
C24   C26   A    
S4    O22   S    
O28   H10   S    
C30   C31   S    
C11   C14   A    
C1    O2    A    
C23   O5    A    
C22   N3    A    
C15   C16   A    
C7    S7    S    
S8    O39   S    
S2    O14   D    
C18   C19   A    
O42   H18   S    
O32   H12   S    
S11   O50   S    
C31   O54   S    
S8    O37   D    
C27   N6    A    
C19   C20   A    
C33   O57   S    
C8    C9    A    
Cu1   O5    S    
C16   O29   S    
C30   O34   S    
S9    O40   D    
Cu2   O2    S    
O19   H7    S    
C8    N1    S    
S7    O31   D    
C9    C10   A    
C24   S8    S    
Cu2   O8    S    
S4    O20   D    
C15   C23   S    
C19   O47   S    
C21   C22   A    
S9    O41   D    
C14   C17   A    
Cu2   N3    S    
C3    O16   S    
C12   O3    A    
C25   N6    A    
O43   H19   S    
C26   N5    S    
S5    O24   D    
C30   O9    S    
C30   C34   S    
S3    O17   D    
O56   H26   S    
C24   C25   A    
S4    O21   D    
C18   N3    A    
N1    N2    D    
C11   S4    S    
C16   C17   A    
C23   O6    A    
S12   O53   S    
O12   H4    S    
O9    H3    S    
C10   S6    S    
C31   H1    S    
S2    O13   D    
S3    O18   D    
C32   C34   S    
C2    C4    S    
O22   H8    S    
C25   O36   S    
C20   N4    S    
O47   H21   S    
O34   H14   S    
S1    O10   D    
C33   C34   S    
C3    C32   S    
C9    S5    S    
S7    O32   S    
S8    O38   D    
Cu1   N6    S    
S11   O48   D    
C21   S9    S    
O16   H6    S    
S6    O27   D    
C13   C15   A    
C4    S1    S    
Cu1   O7    S    
O55   H25   S    
S9    O42   S    
N4    N5    D    
C32   S2    S    
C12   C34   S    
O54   H24   S    
Cu1   O1    S    
Cu2   O6    S    
O53   H23   S    
C13   S3    S    
S5    O25   S    
C4    C33   S    
S12   O52   D    
C28   S11   S    
O25   H9    S    
S10   O45   D    
S13   O58   D    
C6    C7    A    
S6    O28   S    
O57   H27   S    
C26   C28   A    
C33   H2    S    
S3    O19   S    
S1    O11   D    
C2    C3    S    
C5    C10   A    
O46   H20   S    
C18   S12   S    
C4    S13   S    
S13   O59   D    
C1    O1    A    
C32   O55   S    
O36   H16   S    
S13   O60   S    
O35   H15   S    
Cu2   O4    S    
C3    O56   S    
O33   H13   S    
S11   O49   D    
S10   O46   S    
C29   O7    A    
C14   N2    S    
O15   H5    S    
C27   S10   S    
C2    C29   S    
C20   C21   A    
S6    O26   D    
S1    O12   S    
C27   C28   A    
O60   H28   S    
C2    C31   S    
C17   O33   S    
S7    O30   D    
C22   O43   S    
O50   H22   S    
C29   O8    A    
