data_mof_unit_79.cif
_audit_creation_date              2013-03-05T16:01:51-0500
_audit_creation_method            fapswitch 2.2
_symmetry_space_group_name_H-M    P1
_symmetry_Int_Tables_number       1
_space_group_crystal_system       triclinic
_cell_length_a                    20.583355
_cell_length_b                    7.261328
_cell_length_c                    13.170822
_cell_angle_alpha                 91.668604
_cell_angle_beta                  103.522321
_cell_angle_gamma                 88.633504
_cell_volume                      1912.8680352

loop_
_atom_site_label
_atom_site_type_symbol
_atom_site_description
_atom_site_fract_x
_atom_site_fract_y
_atom_site_fract_z
_atom_type_partial_charge
O1    O     O_R   0.449520 0.506760 0.599710 -0.596980
O2    O     O_R   0.550480 0.006760 0.400290 -0.568160
O3    O     O_R   0.587930 0.180200 0.595790 -0.603233
O4    O     O_R   0.412070 0.680200 0.404210 -0.565965
C1    C     C_R   0.614513 0.344065 0.618672 1.013463
C2    C     C_R   0.385488 0.844736 0.381175 1.015539
O5    O     O_R   0.452350 0.177380 0.611700 -0.566813
O6    O     O_R   0.547650 0.677380 0.388300 -0.594753
O7    O     O_R   0.413930 0.001760 0.416320 -0.604038
O8    O     O_R   0.586070 0.501760 0.583680 -0.567996
C3    C     C_R   0.433205 0.349131 0.634818 1.007139
C4    C     C_R   0.566821 0.840854 0.364815 1.010468
O9    O     O_3   0.487550 0.337460 0.435880 -0.282368
O10   O     O_3   0.512450 0.837460 0.564120 -0.282297
V1    V     V_3+5 0.502310 0.064670 0.511900 1.233104
V2    V     V_3+5 0.497690 0.564670 0.488100 1.240775
C5    C     C_R   0.625104 0.695425 0.123146 -0.214456
C6    C     C_R   0.373427 0.539125 0.867025 -0.210987
H1    H     H_    0.537044 0.665983 0.175278 0.197544
H2    H     H_    0.461434 0.557587 0.813170 0.197680
H3    H     H_    0.708755 0.645732 0.000823 0.161567
H4    H     H_    0.289091 0.611683 0.986028 0.161707
H5    H     H_    0.604518 0.620189 0.050825 0.156641
H6    H     H_    0.393286 0.627007 0.934653 0.154346
C7    C     C_R   0.608540 0.829044 0.286728 -0.087308
C8    C     C_R   0.391332 0.375852 0.711987 -0.085544
C9    C     C_R   0.926984 0.954490 0.317366 -0.170728
C10   C     C_R   0.073798 0.249518 0.688269 -0.170408
C11   C     C_R   0.890101 0.988395 0.392138 -0.097001
C12   C     C_R   0.111132 0.201484 0.615821 -0.094420
C13   C     C_R   0.821988 0.952132 0.369606 -0.180446
C14   C     C_R   0.178966 0.240733 0.636288 -0.181459
C15   C     C_R   0.789036 0.877616 0.271107 0.073737
C16   C     C_R   0.211143 0.332595 0.730119 0.071877
C17   C     C_R   0.827960 0.835979 0.196038 0.091738
C18   C     C_R   0.171704 0.388421 0.802346 0.091376
C19   C     C_R   0.718999 0.840892 0.244925 0.078947
C20   C     C_R   0.280872 0.373061 0.754216 0.075528
C21   C     C_R   0.691373 0.751039 0.147497 0.169575
C22   C     C_R   0.307608 0.480047 0.846024 0.169270
C23   C     C_R   0.730264 0.711868 0.075667 -0.205347
C24   C     C_R   0.268230 0.532617 0.915254 -0.207659
C25   C     C_R   0.797136 0.756431 0.098624 -0.238219
C26   C     C_R   0.201685 0.485128 0.894795 -0.237982
C27   C     C_R   0.675382 0.886146 0.312132 -0.297673
C28   C     C_R   0.324990 0.315140 0.690017 -0.298010
C29   C     C_R   0.585467 0.726868 0.193727 -0.037299
C30   C     C_R   0.413454 0.494438 0.798516 -0.038894
C31   C     C_R   0.896823 0.878430 0.219265 -0.164721
C32   C     C_R   0.103198 0.342847 0.781562 -0.164531
H7    H     H_    0.692449 0.957735 0.386136 0.120240
H8    H     H_    0.308642 0.230420 0.620533 0.120041
H9    H     H_    0.979360 0.990017 0.335625 0.105280
H10   H     H_    0.021705 0.211548 0.672120 0.105007
H11   H     H_    0.796675 0.982102 0.431283 0.125006
H12   H     H_    0.204667 0.199204 0.576639 0.124138
H13   H     H_    0.914316 0.046291 0.467863 0.115443
H14   H     H_    0.087516 0.130301 0.543716 0.114770
H15   H     H_    0.824522 0.724842 0.039362 0.159073
H16   H     H_    0.173821 0.527981 0.951820 0.158850
H17   H     H_    0.113495 0.634630 0.465201 0.122138
H18   H     H_    0.884889 0.545536 0.524853 0.122518
C33   C     C_R   0.223041 0.994664 0.042921 -0.168458
C34   C     C_R   0.777745 0.242398 0.962760 -0.168273
C35   C     C_R   0.274108 0.057169 0.001542 -0.187072
C36   C     C_R   0.727001 0.186899 0.007082 -0.183651
C37   C     C_R   0.339487 0.041533 0.057631 -0.186318
C38   C     C_R   0.661515 0.197450 0.950905 -0.191306
C39   C     C_R   0.354897 0.962216 0.156247 0.350628
C40   C     C_R   0.645677 0.264270 0.849180 0.351054
C41   C     C_R   0.303212 0.913045 0.205710 -0.038649
C42   C     C_R   0.697099 0.304420 0.797145 -0.038261
C43   C     C_R   0.235926 0.923873 0.145077 0.090656
C44   C     C_R   0.764503 0.299599 0.857717 0.089447
C45   C     C_R   0.316273 0.850666 0.311329 -0.290525
C46   C     C_R   0.683571 0.352722 0.688961 -0.286399
C47   C     C_R   0.261886 0.792757 0.351810 0.112863
C48   C     C_R   0.737557 0.404540 0.645732 0.110753
C49   C     C_R   0.195524 0.794322 0.288139 0.129632
C50   C     C_R   0.804032 0.409320 0.708930 0.131116
C51   C     C_R   0.182724 0.859003 0.184870 -0.275441
C52   C     C_R   0.817365 0.357537 0.814787 -0.276148
C53   C     C_R   0.272130 0.734872 0.456389 -0.195129
C54   C     C_R   0.726851 0.449746 0.538946 -0.198153
C55   C     C_R   0.219038 0.678259 0.496242 -0.107773
C56   C     C_R   0.779522 0.500889 0.496477 -0.106995
C57   C     C_R   0.154579 0.678233 0.433681 -0.116351
C58   C     C_R   0.844093 0.506687 0.558420 -0.117325
C59   C     C_R   0.142633 0.736067 0.330935 -0.176267
C60   C     C_R   0.856545 0.460630 0.663236 -0.175777
H19   H     H_    0.173447 0.001423 0.992604 0.147165
H20   H     H_    0.827339 0.240916 0.013134 0.147564
H21   H     H_    0.263196 0.109221 0.923185 0.160334
H22   H     H_    0.738264 0.144177 0.087432 0.158056
H23   H     H_    0.378882 0.078403 0.020403 0.180482
H24   H     H_    0.622374 0.166699 0.990005 0.180618
H25   H     H_    0.321046 0.733917 0.509141 0.116256
H26   H     H_    0.677897 0.445232 0.486484 0.118762
H27   H     H_    0.227960 0.635125 0.576359 0.130593
H28   H     H_    0.770186 0.535203 0.414820 0.129917
H29   H     H_    0.091393 0.736485 0.286000 0.103691
H30   H     H_    0.907915 0.463650 0.707485 0.102842
O11   O     O_R   0.913760 0.203480 0.916370 -0.584682
O12   O     O_R   0.086240 0.703480 0.083630 -0.586730
O13   O     O_R   0.047590 0.535230 0.888250 -0.593341
O14   O     O_R   0.952410 0.035230 0.111750 -0.592305
C61   C     C_R   0.063901 0.365059 0.861652 0.901611
C62   C     C_R   0.935948 0.871904 0.138490 0.901809
O15   O     O_R   0.912020 0.532880 0.904260 -0.590391
O16   O     O_R   0.087980 0.032880 0.095740 -0.587792
O17   O     O_R   0.949590 0.708460 0.099750 -0.591248
O18   O     O_R   0.050410 0.208460 0.900250 -0.588948
C63   C     C_R   0.886420 0.364984 0.881894 0.905583
C64   C     C_R   0.113545 0.864769 0.118304 0.906313
O19   O     O_3   0.012370 0.375360 0.064120 -0.284823
O20   O     O_3   0.987630 0.875360 0.935880 -0.284589
V3    V     V_3+5 0.997700 0.648160 0.988110 1.153289
V4    V     V_3+5 0.002300 0.148160 0.011890 1.159241
N1    N     N_R   0.422035 0.901302 0.194345 0.192748
O21   O     O_R   0.470544 0.005958 0.184575 -0.442153
O22   O     O_R   0.432861 0.725234 0.205940 -0.474224
N2    N     N_R   0.578332 0.322138 0.809091 0.193217
O23   O     O_R   0.567079 0.495136 0.787279 -0.473981
O24   O     O_R   0.530192 0.223131 0.825837 -0.445584

loop_
_geom_bond_atom_site_label_1
_geom_bond_atom_site_label_2
_geom_bond_distance
_ccdc_geom_bond_type
C36   C38   1.379206 A    
C33   C35   1.383091 A    
C9    C11   1.390462 A    
C61   O18   1.320355 A    
O1    C3    1.326068 A    
C42   C46   1.438648 A    
O2    C4    1.343178 A    
O16   V4    2.025630 S    
C2    O7    1.315836 A    
O15   V3    2.033799 S    
C2    C45   1.504771 S    
C21   C23   1.394412 A    
O5    C3    1.346814 A    
O13   C61   1.331287 A    
C5    H5    1.085028 S    
C27   H7    1.078302 S    
C6    H6    1.084783 S    
O11   C63   1.333494 A    
C46   C48   1.424379 A    
C56   C58   1.388328 A    
C47   C53   1.418450 A    
C28   H8    1.078089 S    
O20   V3    1.794726 S    
C5    C21   1.393089 A    
C39   C41   1.428100 A    
C6    C22   1.393379 A    
C60   H30   1.081834 S    
H17   C57   1.082746 S    
C10   C32   1.399511 A    
C35   C37   1.379245 A    
C51   C64   1.487789 S    
C17   C31   1.417838 A    
C13   C15   1.414561 A    
C12   C14   1.393519 A    
C17   C25   1.405691 A    
O16   C64   1.331426 A    
C16   C18   1.432215 A    
O15   C63   1.337122 A    
C36   H22   1.082081 S    
N1    O22   1.299760 A    
O6    V2    2.046949 S    
O14   V4    2.047292 S    
C37   H23   1.083305 S    
C23   C25   1.382619 A    
O13   V3    1.996361 S    
C24   C26   1.382814 A    
C44   C52   1.415623 A    
C43   C51   1.415314 A    
C31   C62   1.475990 S    
C47   C49   1.425963 A    
C41   C45   1.438245 A    
C49   C59   1.415854 A    
C55   C57   1.388539 A    
C8    C30   1.402325 A    
C42   C44   1.429779 A    
C49   C51   1.415514 A    
C10   H10   1.083981 S    
O5    V1    1.996100 S    
C33   C43   1.418373 A    
C3    C8    1.484499 S    
H18   C58   1.082749 S    
C39   N1    1.420081 S    
C15   C19   1.431342 A    
C37   C39   1.400545 A    
C14   C16   1.414622 A    
O4    V2    2.025654 S    
C55   H27   1.082197 S    
O18   V4    2.018290 S    
C40   N2    1.421175 S    
O6    C4    1.327118 A    
O19   V4    1.766769 S    
H1    C29   1.072110 S    
O1    V2    2.014511 S    
C38   H24   1.083250 S    
O2    V1    1.986578 S    
C45   C47   1.424403 A    
H2    C30   1.072456 S    
O12   C64   1.332777 A    
C50   C52   1.416775 A    
C53   C55   1.393201 A    
C58   C60   1.393074 A    
C57   C59   1.393078 A    
C32   C61   1.475089 S    
H3    C23   1.084818 S    
C18   C26   1.405716 A    
O4    C2    1.315726 A    
C34   H20   1.079593 S    
C19   C27   1.427638 A    
C7    C27   1.407345 A    
C18   C32   1.417473 A    
C41   C43   1.429450 A    
O12   V3    1.999678 S    
C7    C29   1.402938 A    
C59   H29   1.081991 S    
C16   C20   1.431324 A    
C5    C29   1.383956 A    
C52   C63   1.489242 S    
C11   H13   1.083041 S    
O3    C1    1.318738 A    
C6    C30   1.384226 A    
N1    O21   1.301142 A    
C9    H9    1.083998 S    
C25   H15   1.081093 S    
C62   O17   1.327994 A    
C4    C7    1.485566 S    
O17   V3    1.989260 S    
C54   H26   1.080981 S    
C1    C46   1.505653 S    
C10   C12   1.390476 A    
O7    V1    2.009466 S    
C1    O8    1.318689 A    
C19   C21   1.422450 A    
O8    V2    2.006405 S    
C20   C22   1.422321 A    
C56   H28   1.082763 S    
H4    C24   1.084578 S    
O14   C62   1.320855 A    
C26   H16   1.081287 S    
C12   H14   1.083001 S    
C22   C24   1.394526 A    
C35   H21   1.081045 S    
C15   C17   1.432617 A    
C48   C50   1.426247 A    
C50   C60   1.416264 A    
C20   C28   1.427111 A    
C8    C28   1.406880 A    
O11   V4    1.996935 S    
C48   C54   1.418782 A    
C11   C13   1.393372 A    
C53   H25   1.081363 S    
O9    V2    1.766864 S    
C33   H19   1.080183 S    
C38   C40   1.401000 A    
C34   C44   1.418664 A    
O10   V1    1.794750 S    
C54   C56   1.393205 A    
O3    V1    2.033800 S    
C40   C42   1.428486 A    
C13   H11   1.077477 S    
N2    O23   1.300084 A    
N2    O24   1.301063 A    
C14   H12   1.077464 S    
C9    C31   1.399838 A    
C34   C36   1.383124 A    
