data_mof_unit_521.cif
_audit_creation_date              2012-12-11T14:55:59-0500
_audit_creation_method            fapswitch 2.2
_symmetry_space_group_name_H-M    P1
_symmetry_Int_Tables_number       1
_space_group_crystal_system       triclinic
_cell_length_a                    8.328824
_cell_length_b                    15.076287
_cell_length_c                    19.250083
_cell_angle_alpha                 99.323314
_cell_angle_beta                  91.146808
_cell_angle_gamma                 99.125261
_cell_volume                      2352.47723239

loop_
_atom_site_label
_atom_site_type_symbol
_atom_type_description
_atom_site_fract_x
_atom_site_fract_y
_atom_site_fract_z
_atom_type_partial_charge
Ba1   Ba    Ba6+2 0.854510 0.539840 0.465770 1.668806
Ba2   Ba    Ba6+2 0.335330 0.460240 0.534240 1.655887
C1    C     C_3   0.697209 0.870045 0.294728 0.301566
C2    C     C_R   0.023877 0.529404 0.726382 0.065990
C3    C     C_R   0.844753 0.414799 0.806902 -0.162335
C4    C     C_3   0.126458 0.734313 0.279459 0.332442
C5    C     C_R   0.780767 0.427701 0.742138 0.001416
C6    C     C_R   0.350446 0.557175 0.177393 -0.071227
C7    C     C_R   0.409072 0.556698 0.245789 -0.003964
C8    C     C_R   0.142162 0.429861 0.192058 -0.154071
C9    C     C_R   0.170751 0.454259 0.266317 0.052231
C10   C     C_R   0.981073 0.475344 0.841943 0.000066
C11   C     C_R   0.878051 0.476385 0.699484 -0.242019
C12   C     C_3   0.654767 0.775271 0.314371 0.356911
C13   C     C_R   0.217502 0.489496 0.145918 0.043192
C14   C     C_R   0.296091 0.523270 0.289954 -0.304672
C15   C     C_R   0.760683 0.418245 0.959432 -0.079602
C16   C     C_3   0.105709 0.764565 0.208493 0.268175
C17   C     C_R   0.659915 0.384639 0.009123 -0.084136
C18   C     C_R   0.712654 0.402274 0.079001 -0.084870
C19   C     C_R   0.869793 0.446655 0.097504 -0.054271
C20   C     C_R   0.987760 0.458412 0.046520 0.022236
C21   C     C_R   0.929757 0.449164 0.973900 0.024872
C22   C     C_R   0.156970 0.483188 0.067839 0.004525
C23   C     C_3   0.460540 0.324629 0.316689 0.346790
C24   C     C_R   0.265757 0.502592 0.013434 0.024223
C25   C     C_R   0.207739 0.493915 0.941265 0.003640
C26   C     C_R   0.038646 0.472066 0.919669 -0.023247
C27   C     C_R   0.435696 0.529283 0.027825 -0.075458
C28   C     C_3   0.214287 0.753850 0.632749 0.309184
C29   C     C_R   0.537646 0.562550 0.978624 -0.089990
C30   C     C_R   0.484251 0.546077 0.908925 -0.070293
C31   C     C_R   0.325626 0.502736 0.890510 -0.065172
C32   C     C_R   0.762425 0.235177 0.516279 -0.259176
C33   C     C_R   0.851663 0.177995 0.544457 0.012387
C34   C     C_3   0.413182 0.297170 0.238436 -0.368371
C35   C     C_R   0.788924 0.084690 0.537967 -0.122951
C36   C     C_R   0.637163 0.046903 0.501051 0.031048
C37   C     C_R   0.554140 0.107116 0.470601 -0.125446
C38   C     C_R   0.615346 0.199679 0.478879 0.017617
C39   C     C_R   0.406246 0.912183 0.462845 -0.145547
C40   C     C_3   0.175604 0.849904 0.652544 0.205009
C41   C     C_R   0.335927 0.821198 0.460636 0.051653
C42   C     C_R   0.579209 0.793553 0.518363 0.022006
C43   C     C_R   0.651142 0.884369 0.520708 -0.194911
C44   C     C_R   0.564872 0.946933 0.494453 0.001440
C45   C     C_3   0.031482 0.256369 0.720562 0.346307
C46   C     C_R   0.421155 0.764071 0.491310 0.158742
C47   C     C_3   0.854780 0.248985 0.319321 0.772186
C48   C     C_3   0.839523 0.149879 0.331668 -0.370968
C49   C     C_3   0.729746 0.663369 0.678246 0.320153
C50   C     C_3   0.749679 0.688980 0.758068 -0.396308
C51   C     C_3   0.164120 0.984321 0.612079 0.210158
C52   C     C_3   0.856493 0.208209 0.195807 0.114887
C53   C     C_3   0.669720 0.875334 0.175153 0.178528
C54   C     C_3   0.075042 0.717004 0.088572 0.161032
C55   C     C_3   0.379070 0.620895 0.434156 0.331975
C56   C     C_3   0.050892 0.224719 0.790995 -0.380318
C57   C     C_3   0.502298 0.225953 0.701371 0.359294
C58   C     C_3   0.502284 0.149795 0.744377 -0.403637
C59   C     C_R   0.063122 0.538351 0.799894 -0.151679
H1    H     H_    0.722946 0.774950 0.364564 0.001602
H2    H     H_    0.829095 0.884537 0.283989 0.012103
H3    H     H_    0.855976 0.744005 0.772877 0.110530
H4    H     H_    0.769094 0.629081 0.781838 0.062845
H5    H     H_    0.638256 0.712902 0.779435 0.127155
H6    H     H_    0.521970 0.762797 0.322433 -0.073638
H7    H     H_    0.678902 0.920772 0.341372 -0.000351
H8    H     H_    0.362633 0.357074 0.343411 -0.000318
H9    H     H_    0.574669 0.374792 0.322977 0.069841
H10   H     H_    0.285468 0.261285 0.231226 0.096848
H11   H     H_    0.425578 0.358490 0.212833 0.047259
H12   H     H_    0.260904 0.887172 0.696895 0.019014
H13   H     H_    0.492985 0.251077 0.212035 0.166309
H14   H     H_    0.102405 0.326153 0.724278 0.068744
H15   H     H_    0.900379 0.257126 0.709873 -0.053772
H16   H     H_    0.004187 0.270976 0.833740 0.073136
H17   H     H_    0.982253 0.154764 0.788664 0.107232
H18   H     H_    0.181308 0.224827 0.803823 0.145145
H19   H     H_    0.625767 0.239097 0.680315 -0.078472
H20   H     H_    0.413513 0.202393 0.655818 0.088000
H21   H     H_    0.540475 0.089822 0.711459 0.074791
H22   H     H_    0.378626 0.129225 0.762767 0.118296
H23   H     H_    0.048100 0.844688 0.669969 0.055040
H24   H     H_    0.589075 0.173121 0.790726 0.113086
H25   H     H_    0.161798 0.591353 0.822487 0.071619
H26   H     H_    0.786846 0.356192 0.827711 0.063025
H27   H     H_    0.407982 0.610923 0.150979 0.086349
H28   H     H_    0.051933 0.371321 0.171762 0.052519
H29   H     H_    0.834167 0.477820 0.646463 0.054965
H30   H     H_    0.239498 0.575503 0.317805 0.041820
H31   H     H_    0.696606 0.425391 0.912808 0.079895
H32   H     H_    0.533557 0.356310 0.994863 0.077255
H33   H     H_    0.628236 0.387783 0.119288 0.085169
H34   H     H_    0.787113 0.283567 0.361195 -0.012212
H35   H     H_    0.248273 0.714071 0.282762 -0.047627
H36   H     H_    0.895864 0.472303 0.152319 0.141893
H37   H     H_    0.497372 0.520015 0.074690 0.070311
H38   H     H_    0.664538 0.589426 0.992939 0.073867
H39   H     H_    0.570126 0.560740 0.869384 0.100018
H40   H     H_    0.294439 0.474864 0.836464 0.132317
H41   H     H_    0.332151 0.953565 0.440454 0.084114
H42   H     H_    0.860981 0.043840 0.562052 0.050914
H43   H     H_    0.772801 0.904049 0.543944 0.104488
H44   H     H_    0.442747 0.084747 0.439073 0.073477
H45   H     H_    0.918081 0.111409 0.296560 0.092821
H46   H     H_    0.990739 0.793302 0.207824 0.034085
H47   H     H_    0.811100 0.306963 0.521018 0.071600
H48   H     H_    0.210474 0.818581 0.202997 0.054502
H49   H     H_    0.345791 0.758250 0.623353 0.024916
H50   H     H_    0.139180 0.720179 0.584668 0.108124
H51   H     H_    0.264018 0.025437 0.648092 0.036783
H52   H     H_    0.044579 0.987378 0.636385 0.023019
H53   H     H_    0.162521 0.014873 0.563505 0.097477
H54   H     H_    0.828442 0.234985 0.147361 0.056093
H55   H     H_    0.991097 0.216188 0.202595 0.038514
H56   H     H_    0.711022 0.115396 0.322402 0.104037
H57   H     H_    0.801916 0.134921 0.187297 0.041460
H58   H     H_    0.713353 0.809115 0.160621 0.063893
H59   H     H_    0.772212 0.933084 0.177643 0.004223
H60   H     H_    0.581337 0.880934 0.132842 0.053100
H61   H     H_    0.176640 0.770306 0.078692 0.020926
H62   H     H_    0.956328 0.741491 0.085414 0.014684
H63   H     H_    0.071676 0.657665 0.045942 0.074022
H64   H     H_    0.028940 0.675580 0.282500 0.091733
H65   H     H_    0.455021 0.569244 0.438216 0.089981
H66   H     H_    0.411357 0.657402 0.389414 -0.094554
H67   H     H_    0.879435 0.148541 0.386759 0.058880
H68   H     H_    0.272395 0.573039 0.423236 0.109653
H69   H     H_    0.843518 0.643069 0.657538 -0.013923
H70   H     H_    0.627942 0.605413 0.665154 0.092372
O1    O     O_2   0.872980 0.435970 0.325550 -0.469512
O2    O     O_2   0.184591 0.184986 0.541446 -0.485276
O3    O     O_3   0.090192 0.195762 0.667931 -0.617404
O4    O     O_3   0.121550 0.444190 0.414290 -0.499739
O5    O     O_3   0.581680 0.612000 0.537440 -0.484778
O6    O     O_2   0.334450 0.276040 0.463130 -0.424489
O7    O     O_3   0.483715 0.246730 0.344251 -0.635586
O8    O     O_2   0.479412 0.480558 0.751298 -0.507980
O9    O     O_3   0.456730 0.302511 0.743957 -0.595791
O10   O     O_3   0.664480 0.604250 0.370890 -0.514725
O11   O     O_2   0.738783 0.540142 0.242970 -0.486942
O12   O     O_3   0.697407 0.739128 0.650337 -0.637415
O13   O     O_3   0.018283 0.290655 0.328058 -0.656934
O14   O     O_3   0.698575 0.709385 0.260776 -0.610178
O15   O     O_2   0.855250 0.723990 0.536920 -0.466005
O16   O     O_3   0.087370 0.653760 0.407230 -0.499314
O17   O     O_2   0.999828 0.815660 0.456636 -0.452758
O18   O     O_3   0.192037 0.894059 0.593359 -0.672996
O19   O     O_3   0.785199 0.256576 0.252936 -0.660189
O20   O     O_3   0.590293 0.879704 0.239312 -0.639109
O21   O     O_3   0.099877 0.689179 0.153909 -0.657576
O22   O     O_3   0.348460 0.677276 0.495882 -0.677624
O23   O     O_3   0.114584 0.807448 0.333299 -0.657106
O24   O     O_2   0.316730 0.564060 0.674500 -0.448876
O25   O     O_3   0.068160 0.555880 0.585710 -0.487575
O26   O     O_3   0.525240 0.395830 0.629120 -0.465515
O27   O     O_3   0.181206 0.708455 0.689763 -0.686478
O28   O     O_3   0.608030 0.388080 0.462570 -0.506424
O29   O     O_3   0.102340 0.346310 0.592780 -0.476706
P1    P     P_3+3 0.039940 0.410170 0.336360 0.984450
P2    P     P_3+3 0.679300 0.712470 0.558210 1.005112
P3    P     P_3+3 0.134592 0.773682 0.415588 0.987451
P4    P     P_3+3 0.149780 0.589910 0.663640 0.988257
P5    P     P_3+3 0.054939 0.226988 0.586011 0.942285
P6    P     P_3+3 0.623494 0.601427 0.280305 0.919720
P7    P     P_3+3 0.511003 0.275192 0.435978 0.946516
P8    P     P_3+3 0.562139 0.400702 0.718211 0.932251

loop_
_geom_bond_atom_site_label_1
_geom_bond_atom_site_label_2
_ccdc_geom_bond_type
O9    P8    S    
C5    P8    S    
C53   H60   S    
Ba2   O24   S    
C11   H29   S    
C48   H56   S    
O4    P1    S    
C1    H7    S    
C16   H48   S    
C46   O22   S    
Ba1   O1    S    
C52   O19   S    
C53   H58   S    
C43   C44   A    
C25   C31   A    
O15   P2    D    
C12   O14   S    
O10   P6    S    
C15   C21   A    
C47   O19   S    
C28   H49   S    
C32   C38   A    
C54   H63   S    
C55   H68   S    
C7    P6    S    
C33   C35   A    
C7    C14   A    
C22   C24   A    
C45   H15   S    
C32   C33   A    
C8    C13   A    
C36   C37   A    
O13   P1    S    
C58   H22   S    
C12   H1    S    
C47   O13   S    
C9    P1    S    
C39   H41   S    
C37   H44   S    
Ba1   Ba2   S    
C2    C11   A    
C40   O18   S    
O1    P1    D    
C38   P7    S    
C56   H16   S    
C33   P5    S    
C16   H46   S    
C58   H21   S    
C17   C18   A    
C8    H28   S    
C6    C7    A    
C52   H55   S    
C39   C44   A    
C2    P4    S    
C29   H38   S    
C54   O21   S    
Ba1   O5    S    
C41   C46   A    
O12   P2    S    
C17   H32   S    
C34   H10   S    
O27   P4    S    
C53   H59   S    
Ba1   P1    S    
C57   C58   S    
C19   C20   A    
C51   O18   S    
C39   C41   A    
Ba1   O15   S    
C15   H31   S    
C42   P2    S    
C1    H2    S    
C16   O21   S    
O26   P8    S    
C49   H69   S    
C51   H52   S    
O14   P6    S    
C4    C16   S    
C49   C50   S    
C54   H62   S    
O23   P3    S    
Ba1   O28   S    
C40   H23   S    
C3    C10   A    
C50   H3    S    
Ba2   P4    S    
C55   H65   S    
C3    C5    A    
C49   H70   S    
Ba2   O28   S    
O5    P2    S    
O29   P5    S    
C55   O22   S    
C2    C59   A    
Ba2   O5    S    
C30   H39   S    
O7    P7    S    
C6    H27   S    
C54   H61   S    
Ba1   O25   S    
C35   C36   A    
C43   H43   S    
O2    P5    D    
O11   P6    D    
C19   H36   S    
C9    C14   A    
C29   C30   A    
C12   H6    S    
C52   H54   S    
C24   C25   A    
O3    P5    S    
C21   C26   A    
C47   H34   S    
C4    O23   S    
C1    C12   S    
C34   H13   S    
C56   H18   S    
C24   C27   A    
C27   H37   S    
C51   H51   S    
C13   C22   S    
C10   C26   S    
Ba1   P2    S    
C6    C13   A    
C4    H35   S    
C8    C9    A    
C52   H57   S    
C45   O3    S    
C31   H40   S    
Ba1   O16   S    
C23   H8    S    
O6    P7    D    
C3    H26   S    
C50   H5    S    
C51   H53   S    
C35   H42   S    
C28   O27   S    
C18   H33   S    
C40   H12   S    
Ba2   O25   S    
O17   P3    D    
C42   C43   A    
C57   H20   S    
C4    H64   S    
C57   H19   S    
C55   H66   S    
C58   H24   S    
C53   O20   S    
C49   O12   S    
O24   P4    D    
Ba2   O6    S    
C1    O20   S    
Ba2   O4    S    
C28   H50   S    
C32   H47   S    
C30   C31   A    
C23   O7    S    
C45   H14   S    
C27   C29   A    
O16   P3    S    
C45   C56   S    
C10   C59   A    
C57   O9    S    
Ba2   O26   S    
C15   C17   A    
O28   P7    S    
C20   C22   A    
O8    P8    D    
C36   C44   S    
Ba1   O10   S    
C59   H25   S    
C56   H17   S    
C23   C34   S    
C37   C38   A    
C42   C46   A    
C5    C11   A    
C48   H67   S    
C18   C19   A    
O25   P4    S    
C14   H30   S    
Ba2   O29   S    
C47   C48   S    
C25   C26   A    
C48   H45   S    
C20   C21   A    
C28   C40   S    
C23   H9    S    
Ba1   O4    S    
C50   H4    S    
C34   H11   S    
C41   P3    S    
