data_mof_unit_1438.cif
_audit_creation_date              2012-12-10T19:08:05-0500
_audit_creation_method            fapswitch 2.2
_symmetry_space_group_name_H-M    P1
_symmetry_Int_Tables_number       1
_space_group_crystal_system       triclinic
_cell_length_a                    9.067639
_cell_length_b                    10.810941
_cell_length_c                    9.584779
_cell_angle_alpha                 89.730599
_cell_angle_beta                  90.187106
_cell_angle_gamma                 89.87276
_cell_volume                      939.575362659

loop_
_atom_site_label
_atom_site_type_symbol
_atom_type_description
_atom_site_fract_x
_atom_site_fract_y
_atom_site_fract_z
_atom_type_partial_charge
C1    C     C_R   0.503524 0.262638 0.500396 0.786439
C2    C     C_R   0.575097 0.938472 0.379030 0.157573
C3    C     C_R   0.525349 0.871195 0.498205 -0.119894
C4    C     C_R   0.500073 0.935850 0.621715 0.087951
C5    C     C_3   0.376320 0.927196 0.723950 -0.452762
C6    C     C_3   0.375337 0.067736 0.726104 -0.466390
C7    C     C_R   0.621925 0.537758 0.074229 0.110645
C8    C     C_R   0.379401 0.462729 0.072726 0.524481
C9    C     C_R   0.378198 0.467895 0.924754 -0.159255
C10   C     C_R   0.623529 0.532574 0.926798 0.220921
C11   C     C_3   0.768465 0.464683 0.927665 -0.071265
C12   C     C_R   0.220814 0.499772 0.499838 0.845309
C13   C     C_3   0.770104 0.477961 0.085085 -0.443771
C14   C     C_R   0.506388 0.737635 0.499243 0.801024
C15   C     C_R   0.779185 0.499816 0.500154 0.830882
C16   C     C_1   0.065585 0.499602 0.499773 -0.182310
C17   C     C_1   0.934392 0.499624 0.500185 -0.200658
C18   C     C_R   0.498989 0.062748 0.623740 0.129689
C19   C     C_R   0.521489 0.130031 0.501683 -0.143590
C20   C     C_R   0.571023 0.068140 0.382329 -0.234471
Cu1   Cu    Cu3+1 0.499990 0.499980 0.640670 0.929573
Cu2   Cu    Cu3+1 0.500010 0.500020 0.359330 0.953343
H1    H     H_    0.601135 0.120521 0.290027 0.158250
H2    H     H_    0.858230 0.517162 0.875492 0.174027
H3    H     H_    0.767499 0.388927 0.143855 0.215255
H4    H     H_    0.855333 0.543858 0.122479 0.189132
H5    H     H_    0.274695 0.886761 0.677769 0.193607
H6    H     H_    0.412097 0.885255 0.824680 0.201831
H7    H     H_    0.273189 0.109135 0.681206 0.191468
H8    H     H_    0.410693 0.106786 0.827966 0.197843
H9    H     H_    0.280481 0.439038 0.869165 0.167601
N1    N     N_R   0.500920 0.500930 0.147930 -0.228698
N2    N     N_R   0.500930 0.500890 0.852020 -0.205517
O1    O     O_R   0.500000 0.319640 0.618810 -0.576657
O2    O     O_R   0.500020 0.319680 0.381230 -0.601319
O3    O     O_R   0.288380 0.499980 0.618770 -0.594238
O4    O     O_R   0.288400 0.500020 0.381190 -0.520876
O5    O     O_R   0.499980 0.680320 0.618770 -0.575396
O6    O     O_R   0.500000 0.680360 0.381190 -0.574904
O7    O     O_R   0.711600 0.499980 0.618810 -0.586629
O8    O     O_R   0.711620 0.500020 0.381230 -0.581094
C21   C     C_3   0.628723 0.877132 0.247327 -0.825276
H10   H     H_    0.714724 0.807253 0.272958 0.235031
H11   H     H_    0.535195 0.832883 0.191863 0.244523
H12   H     H_    0.678810 0.944955 0.174158 0.208717
O9    O     O_3   0.257971 0.414365 0.139546 -0.565572
C22   C     C_3   0.267552 0.283462 0.142983 0.124036
H13   H     H_    0.257674 0.252578 0.253188 0.177032
H14   H     H_    0.373193 0.244109 0.102412 0.103162
C23   C     C_3   0.139397 0.228123 0.061970 -0.890444
H15   H     H_    0.145112 0.256183 0.950592 0.239768
H16   H     H_    0.144121 0.125614 0.068604 0.217038
H17   H     H_    0.033473 0.260299 0.107078 0.259280
C24   C     C_3   0.758188 0.328463 0.882838 -0.771476
H18   H     H_    0.747749 0.320383 0.768361 0.262372
H19   H     H_    0.860122 0.278845 0.914263 0.216909
H20   H     H_    0.662291 0.281725 0.932123 0.217751

loop_
_geom_bond_atom_site_label_1
_geom_bond_atom_site_label_2
_ccdc_geom_bond_type
C8    C9    A    
C7    C10   A    
C23   H16   S    
Cu1   O1    S    
C14   O5    A    
C5    H6    S    
Cu2   N1    S    
C19   C20   A    
C20   H1    S    
C4    C18   A    
C15   O7    A    
C2    C3    A    
C8    N1    A    
C22   H14   S    
Cu1   O3    S    
Cu1   Cu2   S    
C9    N2    A    
Cu2   O2    S    
C11   C13   S    
C13   H3    S    
C16   C17   T    
C3    C14   S    
C21   H11   S    
C2    C21   S    
Cu2   O6    S    
C11   C24   S    
C6    H8    S    
C1    O1    A    
C23   H15   S    
C22   C23   S    
C8    O9    S    
C5    C6    S    
C6    C18   S    
C24   H19   S    
C13   H4    S    
C1    C19   S    
Cu2   O8    S    
C12   O3    A    
C10   C11   S    
C9    H9    S    
C2    C20   A    
C3    C4    A    
C23   H17   S    
C22   H13   S    
C11   H2    S    
C7    C13   S    
C6    H7    S    
Cu1   N2    S    
C15   O8    A    
C10   N2    A    
C21   H10   S    
C12   O4    A    
C15   C17   S    
C1    O2    A    
O9    C22   S    
C18   C19   A    
C7    N1    A    
C24   H18   S    
C14   O6    A    
C5    H5    S    
Cu2   O4    S    
C24   H20   S    
Cu1   O5    S    
C12   C16   S    
C4    C5    S    
C21   H12   S    
Cu1   O7    S    
