data_mof_unit_3222.cif
_audit_creation_date              2012-12-10T17:05:15-0500
_audit_creation_method            fapswitch 2.2
_symmetry_space_group_name_H-M    P1
_symmetry_Int_Tables_number       1
_space_group_crystal_system       triclinic
_cell_length_a                    10.783042
_cell_length_b                    11.037351
_cell_length_c                    9.812908
_cell_angle_alpha                 110.979504
_cell_angle_beta                  98.500546
_cell_angle_gamma                 91.108076
_cell_volume                      1075.18717051

loop_
_atom_site_label
_atom_site_type_symbol
_atom_type_description
_atom_site_fract_x
_atom_site_fract_y
_atom_site_fract_z
_atom_type_partial_charge
C1    C     C_R   0.490772 0.254113 0.440712 0.853154
C2    C     C_3   0.877689 0.490087 0.495041 0.088272
C3    C     C_3   0.937347 0.632459 0.559116 -0.348090
C4    C     C_3   0.907636 0.422167 0.331961 -0.007871
C5    C     C_2   0.485539 0.114912 0.407254 -0.368196
C6    C     C_2   0.501972 0.069533 0.516771 -0.162601
C7    C     C_2   0.514197 0.885073 0.592792 -0.372858
C8    C     C_2   0.496989 0.930448 0.483302 -0.156792
C9    C     C_2   0.508769 0.512236 0.081879 -0.095368
C10   C     C_2   0.488393 0.490612 0.918665 -0.078298
C11   C     C_R   0.260076 0.496625 0.499788 0.789572
C12   C     C_R   0.509387 0.745878 0.559296 0.865027
C13   C     C_R   0.739729 0.492728 0.497218 0.768553
C14   C     C_3   0.086484 0.415598 0.590671 -0.468888
C15   C     C_3   0.942350 0.408504 0.587465 -0.019004
C16   C     C_3   0.081760 0.636227 0.566365 0.014855
C17   C     C_3   0.051588 0.425575 0.337718 -0.362813
C18   C     C_3   0.122510 0.494729 0.498488 0.089412
Cu1   Cu    Cu3+1 0.522160 0.521810 0.644910 0.916788
Cu2   Cu    Cu3+1 0.477840 0.478190 0.355090 0.920878
H1    H     H_    0.138341 0.460004 0.705843 0.192672
H2    H     H_    0.893552 0.687161 0.491469 0.162756
H3    H     H_    0.479255 0.864819 0.368067 0.181128
H4    H     H_    0.519389 0.135161 0.632013 0.178759
H5    H     H_    0.531881 0.950973 0.707834 0.149210
H6    H     H_    0.468169 0.049002 0.292210 0.149426
H7    H     H_    0.414506 0.418947 0.845241 0.157414
H8    H     H_    0.580247 0.586530 0.155820 0.162890
H9    H     H_    0.625781 0.621129 0.934655 0.189064
H10   H     H_    0.117402 0.315203 0.545690 0.141140
H11   H     H_    0.377374 0.375385 0.064581 0.187919
H12   H     H_    0.907799 0.305070 0.521989 0.090640
H13   H     H_    0.126346 0.677652 0.684994 0.152251
H14   H     H_    0.915225 0.685941 0.670596 0.148812
H15   H     H_    0.081365 0.474897 0.265584 0.201120
H16   H     H_    0.079471 0.323978 0.292167 0.133918
H17   H     H_    0.871626 0.317954 0.291600 0.135186
N1    N     N_2   0.444530 0.445420 0.137360 -0.287229
N2    N     N_2   0.555520 0.554510 0.862630 -0.288002
O1    O     O_R   0.511820 0.332340 0.577400 -0.584076
O2    O     O_R   0.474400 0.295500 0.332650 -0.578517
O3    O     O_R   0.336400 0.518400 0.622370 -0.589080
O4    O     O_R   0.298980 0.481560 0.377620 -0.580709
O5    O     O_R   0.525600 0.704500 0.667350 -0.572997
O6    O     O_R   0.488180 0.667660 0.422600 -0.574529
O7    O     O_R   0.701020 0.518440 0.622380 -0.579628
O8    O     O_R   0.663600 0.481600 0.377630 -0.577365
C19   C     C_3   0.847879 0.472601 0.210367 -0.851853
H18   H     H_    0.852845 0.580161 0.249152 0.231779
H19   H     H_    0.896331 0.436392 0.112766 0.212627
H20   H     H_    0.749773 0.431432 0.164403 0.258136
C20   C     C_3   0.125751 0.729870 0.495029 -0.887539
H21   H     H_    0.229764 0.738422 0.506906 0.237772
H22   H     H_    0.084592 0.697336 0.375987 0.246199
H23   H     H_    0.095981 0.828692 0.551821 0.228023
C21   C     C_3   0.912569 0.427489 0.744670 -0.332386
C22   C     C_3   0.938993 0.565234 0.861927 -0.818548
H24   H     H_    0.029448 0.612186 0.858183 0.236590
H25   H     H_    0.861480 0.626919 0.850070 0.256020
H26   H     H_    0.944897 0.560349 0.973523 0.220783
H27   H     H_    0.814559 0.390621 0.738102 0.216060
H28   H     H_    0.971026 0.362511 0.787094 0.178429

loop_
_geom_bond_atom_site_label_1
_geom_bond_atom_site_label_2
_ccdc_geom_bond_type
C10   H7    S    
C2    C4    S    
C20   H23   S    
C11   C18   S    
C11   O4    A    
C21   H27   S    
C17   H16   S    
C16   H13   S    
Cu2   N1    S    
C9    C10   S    
C14   C18   S    
Cu1   Cu2   S    
C7    H5    S    
H11   N1    S    
C6    H4    S    
C15   C21   S    
H9    N2    S    
C19   H19   S    
C17   C18   S    
Cu1   O7    S    
C15   H12   S    
C12   O5    A    
C20   H21   S    
C2    C15   S    
Cu1   O3    S    
C22   H24   S    
C5    C6    D    
Cu1   N2    S    
C14   H10   S    
C1    C5    S    
C4    C17   S    
C14   H1    S    
C1    O2    A    
C19   H18   S    
C20   H22   S    
C2    C3    S    
C4    H17   S    
C7    C12   S    
C21   H28   S    
C22   H25   S    
Cu2   O8    S    
Cu1   O1    S    
C3    C16   S    
C5    H6    S    
C16   C20   S    
C7    C8    D    
Cu2   O4    S    
Cu1   O5    S    
C11   O3    A    
C16   C18   S    
C4    C19   S    
C21   C22   S    
C2    C13   S    
C13   O7    A    
C9    N1    D    
C3    H2    S    
C6    C8    S    
C17   H15   S    
C1    O1    A    
C3    H14   S    
C14   C15   S    
C13   O8    A    
C10   N2    D    
C19   H20   S    
C8    H3    S    
Cu2   O6    S    
C9    H8    S    
Cu2   O2    S    
C12   O6    A    
C22   H26   S    
