data_mof_unit_91.cif
_audit_creation_date              2012-12-11T17:14:09-0500
_audit_creation_method            fapswitch 2.2
_symmetry_space_group_name_H-M    P1
_symmetry_Int_Tables_number       1
_space_group_crystal_system       triclinic
_cell_length_a                    18.244514
_cell_length_b                    7.154924
_cell_length_c                    13.116733
_cell_angle_alpha                 90.000134
_cell_angle_beta                  71.813353
_cell_angle_gamma                 90.00003
_cell_volume                      1626.69860841

loop_
_atom_site_label
_atom_site_type_symbol
_atom_type_description
_atom_site_fract_x
_atom_site_fract_y
_atom_site_fract_z
_atom_type_partial_charge
O1    O     O_R   0.453880 0.506200 0.150010 -0.540471
O2    O     O_R   0.546120 0.006200 0.849990 -0.540473
O3    O     O_R   0.604080 0.177770 0.007280 -0.544149
O4    O     O_R   0.395920 0.677770 0.992720 -0.544151
C1    C     C_R   0.635916 0.344474 0.001405 0.740546
C2    C     C_R   0.364084 0.844474 0.998595 0.740543
O5    O     O_R   0.458010 0.176640 0.159130 -0.540489
O6    O     O_R   0.541990 0.676640 0.840870 -0.540488
O7    O     O_R   0.399010 0.004010 0.002930 -0.531736
O8    O     O_R   0.600990 0.504010 0.997070 -0.531738
C3    C     C_R   0.442625 0.344530 0.201297 0.727032
C4    C     C_R   0.557375 0.844529 0.798703 0.727028
O9    O     O_3   0.480810 0.338440 0.948570 -0.388312
O10   O     O_3   0.519190 0.838440 0.051430 -0.388311
V1    V     V_3+5 0.503560 0.064490 0.009540 1.427488
V2    V     V_3+5 0.496440 0.564490 0.990460 1.427488
C5    C     C_R   0.570083 0.808557 0.504334 0.048208
C6    C     C_R   0.429915 0.308554 0.495666 0.048202
C7    C     C_R   0.588053 0.847751 0.680619 -0.077107
C8    C     C_R   0.411946 0.347752 0.319381 -0.077104
C9    C     C_R   0.944937 0.822260 0.384124 -0.163153
C10   C     C_R   0.055061 0.322260 0.615876 -0.163156
C11   C     C_R   0.910504 0.781215 0.491983 -0.125569
C12   C     C_R   0.089494 0.281216 0.508016 -0.125568
C13   C     C_R   0.830548 0.782605 0.535972 -0.158515
C14   C     C_R   0.169450 0.282606 0.464026 -0.158520
C15   C     C_R   0.782717 0.833879 0.474026 0.105522
C16   C     C_R   0.217281 0.333878 0.525973 0.105519
C17   C     C_R   0.817270 0.860776 0.362151 0.001201
C18   C     C_R   0.182729 0.360773 0.637848 0.001216
C19   C     C_R   0.700745 0.848763 0.520467 0.068802
C20   C     C_R   0.299254 0.348760 0.479532 0.068802
C21   C     C_R   0.652372 0.823973 0.453943 -0.077109
C22   C     C_R   0.347625 0.323967 0.546056 -0.077105
C23   C     C_R   0.689452 0.828422 0.340675 -0.086803
C24   C     C_R   0.310545 0.328409 0.659323 -0.086811
C25   C     C_R   0.767709 0.877246 0.298950 -0.102563
C26   C     C_R   0.232289 0.377238 0.701048 -0.102567
C27   C     C_R   0.666072 0.891435 0.630818 0.060764
C28   C     C_R   0.333927 0.391434 0.369181 0.060762
C29   C     C_R   0.539972 0.802087 0.618255 0.100806
C30   C     C_R   0.460027 0.302088 0.381745 0.100799
C31   C     C_R   0.899764 0.858594 0.317612 -0.067380
C32   C     C_R   0.100234 0.358593 0.682387 -0.067372
H1    H     H_    0.007271 0.816751 0.351089 0.095572
H2    H     H_    0.992727 0.316751 0.648911 0.095571
H3    H     H_    0.806366 0.739206 0.618650 0.128458
H4    H     H_    0.193631 0.239208 0.381348 0.128459
H5    H     H_    0.945989 0.744537 0.541504 0.124019
H6    H     H_    0.054008 0.244539 0.458496 0.124019
C33   C     C_1   0.215931 0.859229 0.002135 -0.112856
C34   C     C_1   0.784069 0.359229 0.997864 -0.112844
C35   C     C_1   0.283380 0.852697 0.000369 -0.122397
C36   C     C_1   0.716620 0.352697 0.999630 -0.122397
O11   O     O_R   0.899030 0.205490 0.002790 -0.536836
O12   O     O_R   0.100970 0.705490 0.997210 -0.536834
O13   O     O_R   0.042000 0.536370 0.840840 -0.536034
O14   O     O_R   0.958000 0.036370 0.159160 -0.536043
C37   C     C_R   0.059496 0.368337 0.798691 0.677787
C38   C     C_R   0.940503 0.868338 0.201308 0.677793
O15   O     O_R   0.895930 0.535070 0.992690 -0.525500
O16   O     O_R   0.104070 0.035070 0.007310 -0.525500
O17   O     O_R   0.953870 0.707520 0.150040 -0.531183
O18   O     O_R   0.046130 0.207520 0.849960 -0.531188
C39   C     C_R   0.864620 0.366859 0.997100 0.772309
C40   C     C_R   0.135380 0.866860 0.002899 0.772316
O19   O     O_3   0.019200 0.374340 0.051340 -0.378225
O20   O     O_3   0.980800 0.874340 0.948660 -0.378223
V3    V     V_3+5 0.996440 0.648350 0.990470 1.504006
V4    V     V_3+5 0.003560 0.148350 0.009530 1.503999
C41   C     C_3   0.454374 0.762036 0.672431 -0.550004
H7    H     H_    0.436687 0.635717 0.638262 0.202788
H8    H     H_    0.437844 0.743311 0.760231 0.203634
H9    H     H_    0.418206 0.876322 0.658729 0.271071
C42   C     C_3   0.545625 0.262037 0.327569 -0.549995
H10   H     H_    0.563309 0.135706 0.361730 0.202774
H11   H     H_    0.562158 0.243332 0.239768 0.203631
H12   H     H_    0.581794 0.376312 0.341282 0.271073
C43   C     C_2   0.652943 0.777342 0.259138 0.820187
O21   O     O_2   0.659074 0.617446 0.224814 -0.541858
O22   O     O_R   0.622926 0.916550 0.209594 -0.676874
H13   H     H_    0.611519 0.868411 0.143898 0.319173
C44   C     C_2   0.347053 0.277325 0.740860 0.820187
O23   O     O_2   0.340911 0.117429 0.775195 -0.541854
O24   O     O_R   0.377088 0.416536 0.790388 -0.676878
H14   H     H_    0.388490 0.368404 0.856087 0.319175
C45   C     C_2   0.512192 0.807990 0.444458 0.738012
O25   O     O_2   0.459393 0.920478 0.468108 -0.570623
O26   O     O_R   0.512825 0.673074 0.368342 -0.658033
H15   H     H_    0.472242 0.696995 0.331827 0.304814
C46   C     C_2   0.487805 0.307988 0.555544 0.738035
O27   O     O_2   0.540603 0.420479 0.531897 -0.570621
O28   O     O_R   0.487171 0.173073 0.631660 -0.658041
H16   H     H_    0.527753 0.196994 0.668177 0.304816
C47   C     C_3   0.707852 0.005446 0.693478 -0.792768
H17   H     H_    0.672405 0.128476 0.730292 0.217793
H18   H     H_    0.718478 0.919355 0.757895 0.190829
H19   H     H_    0.762808 0.066021 0.641858 0.216436
C48   C     C_3   0.292148 0.505443 0.306521 -0.792761
H20   H     H_    0.327594 0.628478 0.269710 0.217791
H21   H     H_    0.281525 0.419352 0.242100 0.190829
H22   H     H_    0.237190 0.566012 0.358140 0.216435
C49   C     C_2   0.792259 0.966457 0.192904 0.773188
O29   O     O_2   0.795586 0.136595 0.188474 -0.547215
O30   O     O_R   0.803644 0.858338 0.100433 -0.646338
H23   H     H_    0.810201 0.935775 0.033643 0.289658
C50   C     C_2   0.207741 0.466460 0.807092 0.773175
O31   O     O_2   0.204399 0.636598 0.811517 -0.547211
O32   O     O_R   0.196371 0.358355 0.899566 -0.646341
H24   H     H_    0.189811 0.435804 0.966353 0.289657

loop_
_geom_bond_atom_site_label_1
_geom_bond_atom_site_label_2
_ccdc_geom_bond_type
C33   C35   T    
C45   O25   D    
O28   H16   S    
C15   C17   A    
C47   H17   S    
O1    C3    A    
O2    C4    A    
C28   C48   S    
O22   H13   S    
C47   H19   S    
O24   H14   S    
O5    C3    A    
C18   C26   A    
C30   C42   S    
C38   O17   A    
C6    C46   S    
C23   C25   A    
C12   C14   A    
C6    C30   A    
C8    C28   A    
C11   H5    S    
C24   C44   S    
O14   C38   A    
O16   V4    S    
C26   C50   S    
C9    C31   A    
C10   C32   A    
O17   V3    S    
O20   V3    S    
C50   O31   D    
C19   C21   A    
O18   V4    S    
C13   H3    S    
C14   H4    S    
C29   C41   S    
O5    V1    S    
O6    V2    S    
C17   C31   A    
C50   O32   S    
C18   C32   A    
C5    C21   A    
C2    O7    A    
C1    O8    A    
O11   C39   A    
C34   C36   T    
C9    H1    S    
C12   H6    S    
C3    C8    S    
O16   C40   A    
C15   C19   A    
C1    C36   S    
C16   C20   A    
O4    C2    A    
C46   O27   D    
C25   C49   S    
O14   V4    S    
O19   V3    S    
C33   C40   S    
C20   C22   A    
O4    V2    S    
C42   H10   S    
C46   O28   S    
C42   H11   S    
C44   O23   D    
O6    C4    A    
C37   O18   A    
C49   O30   S    
O1    V2    S    
O2    V1    S    
C6    C22   A    
C27   C47   S    
C7    C27   A    
C31   C38   S    
C44   O24   S    
C9    C11   A    
C10   C12   A    
C2    C35   S    
C24   C26   A    
C20   C28   A    
O3    V1    S    
C41   H8    S    
O15   V3    S    
C10   H2    S    
C5    C45   S    
C14   C16   A    
O3    C1    A    
C41   H9    S    
C8    C30   A    
C47   H18   S    
C13   C15   A    
O30   H23   S    
C43   O22   S    
C48   H20   S    
O19   V4    S    
C45   O26   S    
O7    V1    S    
C16   C18   A    
O8    V2    S    
O32   H24   S    
O12   C40   A    
C4    C7    S    
C23   C43   S    
C21   C23   A    
C19   C27   A    
C22   C24   A    
C11   C13   A    
C42   H12   S    
C5    C29   A    
O11   V4    S    
O13   C37   A    
C43   O21   D    
O15   C39   A    
C41   H7    S    
C48   H22   S    
O20   V4    S    
O12   V3    S    
O9    V2    S    
C17   C25   A    
C49   O29   D    
O10   V1    S    
C32   C37   S    
O13   V3    S    
O26   H15   S    
C48   H21   S    
C34   C39   S    
C7    C29   A    
