data_mof_unit_1096.cif
_audit_creation_date              2012-10-26T21:20:10-0400
_audit_creation_method            fapswitch 2.2
_symmetry_space_group_name_H-M    P1
_symmetry_Int_Tables_number       1
_space_group_crystal_system       triclinic
_cell_length_a                    12.982121
_cell_length_b                    10.83091
_cell_length_c                    9.526051
_cell_angle_alpha                 90.013689
_cell_angle_beta                  96.461065
_cell_angle_gamma                 90.252752
_cell_volume                      1330.92003184

loop_
_atom_site_label
_atom_site_type_symbol
_atom_type_description
_atom_site_fract_x
_atom_site_fract_y
_atom_site_fract_z
_atom_type_partial_charge
C1    C     C_R   0.499996 0.262109 0.499951 0.551657
C2    C     C_R   0.699446 0.498159 0.526851 0.573497
C3    C     C_R   0.812231 0.493813 0.544010 0.017971
C4    C     C_R   0.186845 0.505851 0.457019 0.009608
C5    C     C_R   0.023267 0.568161 0.328882 -0.117119
C6    C     C_R   0.975015 0.429016 0.671052 -0.114998
C7    C     C_R   0.129938 0.548194 0.331156 0.269731
C8    C     C_R   0.866741 0.434902 0.661519 0.251103
C9    C     C_R   0.134853 0.468457 0.570961 -0.179335
C10   C     C_R   0.865294 0.544463 0.437802 -0.182587
C11   C     C_R   0.027634 0.477389 0.563107 -0.008003
C12   C     C_R   0.500128 0.737910 0.500062 0.550399
C13   C     C_R   0.972063 0.532063 0.443659 -0.011732
C14   C     C_R   0.498484 0.063849 0.372177 -0.141703
C15   C     C_R   0.501951 0.936223 0.627859 -0.138387
C16   C     C_R   0.498578 0.936118 0.372221 -0.135721
C17   C     C_R   0.501890 0.063952 0.627825 -0.133706
C18   C     C_3   0.827680 0.414917 0.888959 0.017433
C19   C     C_3   0.763429 0.339050 0.982874 -0.252487
C20   C     C_3   0.777607 0.385419 0.134788 -0.471037
C21   C     C_3   0.144300 0.491278 0.100627 0.016027
C22   C     C_3   0.166604 0.354581 0.137729 -0.279173
C23   C     C_R   0.500237 0.871789 0.500053 0.023002
C24   C     C_3   0.148668 0.271431 0.008049 -0.492273
C25   C     C_R   0.500111 0.128265 0.499978 0.025007
C26   C     C_R   0.449697 0.409487 0.066445 0.012809
C27   C     C_R   0.551760 0.589469 0.933622 0.003912
C28   C     C_R   0.448839 0.410148 0.917699 0.000557
C29   C     C_R   0.551268 0.589802 0.082270 0.007438
C30   C     C_R   0.300201 0.500629 0.473098 0.563237
Cu1   Cu    Cu3+1 0.500000 0.500020 0.640660 0.945132
Cu2   Cu    Cu3+1 0.500000 0.499980 0.359340 0.946887
H1    H     H_    0.822918 0.590170 0.348084 0.114769
H2    H     H_    0.593751 0.660810 0.884252 0.101566
H3    H     H_    0.407656 0.338130 0.855544 0.103201
H4    H     H_    0.592867 0.661445 0.144539 0.100694
H5    H     H_    0.801355 0.512799 0.888517 0.131158
H6    H     H_    0.910357 0.409941 0.933759 0.106282
H7    H     H_    0.680132 0.344581 0.941174 0.188909
H8    H     H_    0.787430 0.240707 0.981209 0.168226
H9    H     H_    0.859805 0.375810 0.180268 0.146495
H10   H     H_    0.728082 0.330524 0.199512 0.176169
H11   H     H_    0.754674 0.483800 0.138271 0.146928
H12   H     H_    0.177736 0.430039 0.665115 0.120412
H13   H     H_    0.186195 0.516336 0.009137 0.161137
H14   H     H_    0.060582 0.504666 0.065370 0.100139
H15   H     H_    0.247884 0.344605 0.185504 0.182656
H16   H     H_    0.115299 0.322450 0.216306 0.148697
H17   H     H_    0.065169 0.270018 0.967485 0.150890
H18   H     H_    0.172559 0.175745 0.037606 0.154193
H19   H     H_    0.195028 0.303878 0.923949 0.133683
H20   H     H_    0.980039 0.607841 0.235899 0.100821
H21   H     H_    0.017520 0.380414 0.758016 0.099486
H22   H     H_    0.497065 0.111854 0.272222 0.120092
H23   H     H_    0.503375 0.888230 0.727813 0.124658
H24   H     H_    0.497253 0.888042 0.272297 0.127794
H25   H     H_    0.503273 0.112038 0.727760 0.123328
H26   H     H_    0.410771 0.335799 0.115909 0.097469
N1    N     N_R   0.500030 0.500030 0.852080 -0.226483
N2    N     N_R   0.499970 0.499970 0.147920 -0.218249
O1    O     O_R   0.499990 0.319660 0.618740 -0.509135
O2    O     O_3   0.179815 0.572742 0.212835 -0.546086
O3    O     O_R   0.500010 0.680340 0.381260 -0.506421
O4    O     O_R   0.499990 0.319630 0.381170 -0.523843
O5    O     O_R   0.500010 0.680370 0.618830 -0.514767
O6    O     O_R   0.349000 0.499990 0.599490 -0.514549
O7    O     O_R   0.651000 0.500010 0.400510 -0.523702
O8    O     O_R   0.348990 0.499960 0.361920 -0.452371
O9    O     O_R   0.651010 0.500040 0.638080 -0.467988
O10   O     O_3   0.813196 0.365077 0.751362 -0.553402

loop_
_geom_bond_atom_site_label_1
_geom_bond_atom_site_label_2
_ccdc_geom_bond_type
C18   O10   S    
Cu1   O6    S    
C20   H10   S    
C16   H24   S    
C7    O2    S    
C15   C17   A    
C6    C8    A    
C27   C29   A    
C2    O9    A    
C26   H26   S    
C12   O5    A    
Cu1   O1    S    
C5    C13   A    
Cu1   Cu2   S    
C29   H4    S    
C29   N2    A    
Cu2   O8    S    
C17   C25   A    
C24   H19   S    
C15   C23   A    
C2    C3    S    
C18   H6    S    
C4    C30   S    
C5    H20   S    
C3    C10   A    
C27   N1    A    
C21   C22   S    
C1    C25   S    
C9    C11   A    
C12   C23   S    
C21   O2    S    
C30   O6    A    
C19   H7    S    
C4    C7    A    
C20   H9    S    
C24   H17   S    
C22   C24   S    
C26   C28   A    
C14   H22   S    
C18   H5    S    
C15   H23   S    
C22   H16   S    
C22   H15   S    
C16   C23   A    
C21   H13   S    
Cu2   O7    S    
C27   H2    S    
C24   H18   S    
C8    O10   S    
C14   C16   A    
C3    C8    A    
C11   C13   A    
C19   H8    S    
Cu2   N2    S    
C6    H21   S    
C21   H14   S    
C1    O4    A    
Cu1   O9    S    
C20   H11   S    
C14   C25   A    
Cu2   O4    S    
Cu1   O5    S    
C2    O7    A    
C28   N1    A    
Cu1   N1    S    
C6    C11   A    
C5    C7    A    
C12   O3    A    
C18   C19   S    
C9    H12   S    
C10   H1    S    
C4    C9    A    
C28   H3    S    
C26   N2    A    
C30   O8    A    
C19   C20   S    
Cu2   O3    S    
C17   H25   S    
C10   C13   A    
C1    O1    A    
