data_mof_unit_3497.cif
_audit_creation_date              2013-03-05T16:27:14-0500
_audit_creation_method            fapswitch 2.2
_symmetry_space_group_name_H-M    P1
_symmetry_Int_Tables_number       1
_space_group_crystal_system       triclinic
_cell_length_a                    19.629254
_cell_length_b                    18.229599
_cell_length_c                    11.675951
_cell_angle_alpha                 89.999826
_cell_angle_beta                  92.59516
_cell_angle_gamma                 90.000017
_cell_volume                      4173.76057319

loop_
_atom_site_label
_atom_site_type_symbol
_atom_site_description
_atom_site_fract_x
_atom_site_fract_y
_atom_site_fract_z
_atom_type_partial_charge
O1    O     O_R   0.400190 0.561980 0.499980 -0.541162
O2    O     O_R   0.599810 0.438020 0.500020 -0.555914
O3    O     O_R   0.599810 0.561980 0.500020 -0.541167
O4    O     O_R   0.400190 0.438020 0.499980 -0.555916
C1    C     C_R   0.367734 0.500287 0.499654 0.862827
C2    C     C_R   0.632266 0.500287 0.500345 0.862819
O5    O     O_R   0.500010 0.561950 0.337200 -0.566554
O6    O     O_R   0.499990 0.438050 0.662800 -0.558610
O7    O     O_R   0.499990 0.561950 0.662800 -0.566556
O8    O     O_R   0.500010 0.438050 0.337200 -0.558607
C3    C     C_R   0.499517 0.499939 0.283873 0.787023
C4    C     C_R   0.500483 0.499939 0.716127 0.787021
Cu1   Cu    Cu3+1 0.500000 0.573360 0.500000 0.978255
Cu2   Cu    Cu3+1 0.500000 0.426640 0.500000 0.981609
C5    C     C_1   0.499675 0.499562 0.162319 -0.190135
C6    C     C_1   0.500326 0.499562 0.837681 -0.190120
C7    C     C_1   0.499899 0.499018 0.059859 -0.042826
C8    C     C_1   0.500102 0.499018 0.940141 -0.042807
C9    C     C_R   0.746788 0.453084 0.568832 0.302694
C10   C     C_R   0.259392 0.551923 0.573934 0.256438
C11   C     C_R   0.253211 0.453084 0.431172 0.302689
C12   C     C_R   0.740609 0.551925 0.426071 0.256434
C13   C     C_R   0.817519 0.447290 0.556541 0.369305
C14   C     C_R   0.187385 0.551856 0.576722 0.384036
C15   C     C_R   0.182480 0.447290 0.443466 0.369306
C16   C     C_R   0.812616 0.551856 0.423283 0.384041
C17   C     C_R   0.851121 0.498835 0.487804 -0.133914
C18   C     C_R   0.148879 0.498835 0.512203 -0.133915
C19   C     C_R   0.707607 0.501402 0.497492 -0.361270
C20   C     C_R   0.292392 0.501401 0.502511 -0.361271
C21   C     C_R   0.964745 0.564880 0.507754 0.172596
C22   C     C_R   0.034238 0.433060 0.522123 0.156302
C23   C     C_R   0.035255 0.564880 0.492255 0.172595
C24   C     C_R   0.965762 0.433060 0.477887 0.156300
C25   C     C_R   0.072302 0.499052 0.512073 0.032559
C26   C     C_R   0.927698 0.499052 0.487935 0.032558
C27   C     C_R   0.454694 0.721197 0.429057 0.420834
C28   C     C_R   0.539923 0.278109 0.579251 0.416762
C29   C     C_R   0.545307 0.721197 0.570943 0.420828
C30   C     C_R   0.460077 0.278110 0.420748 0.416762
C31   C     C_R   0.453491 0.798595 0.429625 -0.334821
C32   C     C_R   0.541817 0.200651 0.577707 -0.335135
C33   C     C_R   0.546509 0.798595 0.570375 -0.334818
C34   C     C_R   0.458183 0.200651 0.422292 -0.335135
H1    H     H_    0.416992 0.827010 0.373330 0.146118
H2    H     H_    0.574496 0.171857 0.639934 0.145822
H3    H     H_    0.583008 0.827010 0.626670 0.146119
H4    H     H_    0.425503 0.171858 0.360065 0.145822
C35   C     C_R   0.500000 0.838617 0.500000 0.037823
C36   C     C_R   0.500000 0.160792 0.499999 0.042820
N1    N     N_R   0.500000 0.683620 0.500000 -0.201973
N2    N     N_R   0.500000 0.316380 0.500000 -0.194768
C37   C     C_R   0.561155 0.961371 0.516383 -0.182455
C38   C     C_R   0.438894 0.038481 0.483183 -0.182832
C39   C     C_R   0.438845 0.961372 0.483616 -0.182453
C40   C     C_R   0.561105 0.038481 0.516816 -0.182831
H5    H     H_    0.609545 0.933184 0.527032 0.130332
H6    H     H_    0.390694 0.067015 0.471713 0.132239
H7    H     H_    0.390455 0.933184 0.472967 0.130332
H8    H     H_    0.609306 0.067015 0.528286 0.132239
C41   C     C_R   0.500000 0.078300 0.499999 0.149356
C42   C     C_R   0.500000 0.921349 0.500000 0.151939
O9    O     O_3   0.716862 0.411557 0.652493 -0.602335
C43   C     C_3   0.691467 0.457816 0.739235 0.065245
H9    H     H_    0.635140 0.453858 0.734931 0.188156
H10   H     H_    0.704873 0.517111 0.730370 0.113931
C44   C     C_3   0.718042 0.432306 0.858060 -0.389073
H11   H     H_    0.712569 0.371847 0.865750 0.227233
H12   H     H_    0.772614 0.446730 0.869723 0.215044
C45   C     C_3   0.680719 0.469295 0.954047 -0.929241
H13   H     H_    0.678939 0.529573 0.941014 0.259163
H14   H     H_    0.707605 0.457595 0.037796 0.256617
H15   H     H_    0.628294 0.447356 0.956684 0.267365
O10   O     O_3   0.295385 0.610639 0.621413 -0.573869
C46   C     C_3   0.329128 0.590280 0.726323 0.075429
H16   H     H_    0.370140 0.550061 0.712878 0.129382
H17   H     H_    0.293879 0.564070 0.785765 0.126318
C47   C     C_3   0.360442 0.659685 0.781113 -0.297150
H18   H     H_    0.409013 0.672427 0.740085 0.220571
H19   H     H_    0.325509 0.707015 0.765528 0.223872
C48   C     C_3   0.373458 0.651931 0.910254 -0.968217
H20   H     H_    0.324294 0.648355 0.953288 0.248513
H21   H     H_    0.401808 0.700593 0.944103 0.260988
H22   H     H_    0.403892 0.602252 0.930508 0.279459
O11   O     O_3   0.283136 0.411556 0.347510 -0.602334
C49   C     C_3   0.308528 0.457817 0.260766 0.065244
H23   H     H_    0.364856 0.453863 0.265072 0.188149
H24   H     H_    0.295118 0.517110 0.269627 0.113931
C50   C     C_3   0.281956 0.432302 0.141942 -0.389057
H25   H     H_    0.287435 0.371843 0.134255 0.227233
H26   H     H_    0.227382 0.446718 0.130277 0.215045
C51   C     C_3   0.319275 0.469295 0.045954 -0.929272
H27   H     H_    0.321042 0.529574 0.058981 0.259167
H28   H     H_    0.292392 0.457586 0.962205 0.256620
H29   H     H_    0.371704 0.447367 0.043323 0.267367
O12   O     O_3   0.704618 0.610644 0.378598 -0.573868
C52   C     C_3   0.670874 0.590291 0.273685 0.075435
H30   H     H_    0.629854 0.550081 0.287129 0.129407
H31   H     H_    0.706119 0.564076 0.214244 0.126304
C53   C     C_3   0.639572 0.659704 0.218896 -0.297159
H32   H     H_    0.591008 0.672463 0.259936 0.220565
H33   H     H_    0.674519 0.707023 0.234468 0.223860
C54   C     C_3   0.626542 0.651948 0.089758 -0.968186
H34   H     H_    0.675702 0.648331 0.046714 0.248510
H35   H     H_    0.598221 0.700628 0.055907 0.260978
H36   H     H_    0.596074 0.602289 0.069519 0.279458
O13   O     O_3   0.851896 0.383662 0.590498 -0.565904
C55   C     C_3   0.864885 0.376608 0.709983 0.119082
H37   H     H_    0.897953 0.327494 0.722054 0.161840
H38   H     H_    0.818011 0.362818 0.753792 0.166775
C56   C     C_3   0.903000 0.442017 0.765696 -0.427200
H39   H     H_    0.946009 0.458501 0.713157 0.233688
H40   H     H_    0.867567 0.489132 0.771881 0.202689
C57   C     C_3   0.931891 0.422521 0.885324 -0.957213
H41   H     H_    0.891036 0.401746 0.939509 0.254505
H42   H     H_    0.955129 0.472142 0.925871 0.268780
H43   H     H_    0.971848 0.379676 0.880146 0.264550
O14   O     O_3   0.152512 0.610032 0.624604 -0.583341
C58   C     C_3   0.162065 0.618690 0.744529 0.090400
H44   H     H_    0.123449 0.659357 0.770137 0.150213
H45   H     H_    0.211093 0.645531 0.767435 0.174461
C59   C     C_3   0.150166 0.548773 0.814064 -0.424527
H46   H     H_    0.097910 0.527929 0.793206 0.231010
H47   H     H_    0.187673 0.505856 0.793159 0.194280
C60   C     C_3   0.157761 0.564718 0.942216 -0.925704
H48   H     H_    0.208209 0.589812 0.964131 0.255900
H49   H     H_    0.154239 0.512824 0.990486 0.271396
H50   H     H_    0.116772 0.602306 0.968544 0.256329
O15   O     O_3   0.148102 0.383662 0.409510 -0.565905
C61   C     C_3   0.135112 0.376607 0.290026 0.119084
H51   H     H_    0.102043 0.327495 0.277956 0.161839
H52   H     H_    0.181986 0.362815 0.246217 0.166776
C62   C     C_3   0.097000 0.442018 0.234311 -0.427202
H53   H     H_    0.053991 0.458504 0.286849 0.233687
H54   H     H_    0.132435 0.489131 0.228126 0.202689
C63   C     C_3   0.068108 0.422523 0.114683 -0.957212
H55   H     H_    0.108963 0.401749 0.060498 0.254504
H56   H     H_    0.044871 0.472145 0.074136 0.268780
H57   H     H_    0.028152 0.379678 0.119861 0.264549
O16   O     O_3   0.847490 0.610031 0.375400 -0.583343
C64   C     C_3   0.837939 0.618688 0.255475 0.090399
H58   H     H_    0.876556 0.659352 0.229866 0.150212
H59   H     H_    0.788912 0.645531 0.232567 0.174455
C65   C     C_3   0.849833 0.548769 0.185942 -0.424530
H60   H     H_    0.902088 0.527922 0.206802 0.231011
H61   H     H_    0.812324 0.505855 0.206849 0.194279
C66   C     C_3   0.842239 0.564713 0.057791 -0.925704
H62   H     H_    0.791792 0.589807 0.035874 0.255899
H63   H     H_    0.845760 0.512818 0.009522 0.271394
H64   H     H_    0.883229 0.602299 0.031461 0.256330
N3    N     N_2   0.932190 0.629963 0.545064 -0.360947
H65   H     H_    0.942365 0.675899 0.497267 0.275845
C67   C     C_3   0.940579 0.643594 0.666813 -0.728552
H66   H     H_    0.911479 0.693431 0.689052 0.231843
H67   H     H_    0.995269 0.652289 0.691908 0.222876
H68   H     H_    0.920668 0.596846 0.715741 0.230926
N4    N     N_2   0.063106 0.368043 0.574311 -0.354334
H69   H     H_    0.031078 0.323407 0.575421 0.247760
C68   C     C_3   0.097757 0.376839 0.685617 -0.670077
H70   H     H_    0.146284 0.406836 0.678703 0.225018
H71   H     H_    0.110824 0.322073 0.722119 0.216177
H72   H     H_    0.064303 0.405403 0.745358 0.211363
N5    N     N_2   0.067809 0.629963 0.454944 -0.360945
H73   H     H_    0.057633 0.675900 0.502740 0.275843
C69   C     C_3   0.059422 0.643594 0.333195 -0.728549
H74   H     H_    0.088521 0.693432 0.310957 0.231842
H75   H     H_    0.004732 0.652287 0.308097 0.222876
H76   H     H_    0.079335 0.596846 0.284269 0.230926
N6    N     N_2   0.936895 0.368042 0.425701 -0.354333
H77   H     H_    0.968922 0.323406 0.424594 0.247760
C70   C     C_3   0.902245 0.376837 0.314394 -0.670075
H78   H     H_    0.853718 0.406836 0.321305 0.225018
H79   H     H_    0.889177 0.322071 0.277895 0.216177
H80   H     H_    0.935700 0.405399 0.254652 0.211362
N7    N     N_2   0.406858 0.682011 0.357651 -0.373562
H81   H     H_    0.357239 0.690746 0.379818 0.251896
C71   C     C_3   0.414660 0.690558 0.235655 -0.707811
H82   H     H_    0.400012 0.746837 0.207629 0.205606
H83   H     H_    0.381081 0.650671 0.188510 0.227654
H84   H     H_    0.468108 0.679683 0.213387 0.248889
N8    N     N_2   0.580156 0.316058 0.663883 -0.368099
H85   H     H_    0.631354 0.304895 0.658121 0.272210
C72   C     C_3   0.558495 0.305420 0.779766 -0.694056
H86   H     H_    0.569313 0.248458 0.809119 0.201124
H87   H     H_    0.503054 0.316637 0.784772 0.245795
H88   H     H_    0.586590 0.343676 0.838518 0.230260
N9    N     N_2   0.593144 0.682011 0.642345 -0.373561
H89   H     H_    0.642763 0.690744 0.620171 0.251904
C73   C     C_3   0.585347 0.690558 0.764342 -0.707815
H90   H     H_    0.599997 0.746838 0.792365 0.205607
H91   H     H_    0.618929 0.650672 0.811484 0.227650
H92   H     H_    0.531900 0.679684 0.786617 0.248883
N10   N     N_2   0.419844 0.316059 0.336117 -0.368098
H93   H     H_    0.368646 0.304897 0.341880 0.272210
C74   C     C_3   0.441504 0.305422 0.220234 -0.694055
H94   H     H_    0.430685 0.248461 0.190880 0.201123
H95   H     H_    0.496946 0.316637 0.215228 0.245795
H96   H     H_    0.413411 0.343680 0.161483 0.230263

loop_
_geom_bond_atom_site_label_1
_geom_bond_atom_site_label_2
_geom_bond_distance
_ccdc_geom_bond_type
C29   N1    1.370975 A    
C70   H78   1.104479 S    
C69   H74   1.110191 S    
C12   C19   1.418524 A    
C39   H7    1.082145 S    
N6    H77   1.028712 S    
C9    C13   1.406220 A    
C66   H62   1.110124 S    
C72   H86   1.110957 S    
O3    C2    1.292470 A    
C15   O15   1.390571 S    
C48   H22   1.104617 S    
C57   H41   1.110296 S    
N7    C71   1.447913 S    
C10   C20   1.418526 A    
N8    H85   1.030551 S    
C15   C18   1.417750 A    
O5    C3    1.290402 A    
C70   H79   1.110964 S    
C16   C17   1.421780 A    
N4    H69   1.028711 S    
C28   N8    1.417057 S    
O1    C1    1.292471 A    
N5    C69   1.445137 S    
O15   C61   1.412663 S    
C16   O16   1.393021 S    
C64   H59   1.101737 S    
C27   N1    1.370975 A    
C47   H19   1.111956 S    
C37   C40   1.405685 A    
C28   N2    1.375292 A    
C39   C42   1.410368 A    
C55   H37   1.111082 S    
C32   H2    1.082902 S    
C73   H91   1.110550 S    
O7    Cu1   1.912199 S    
O14   C58   1.413135 S    
C53   H32   1.110768 S    
C52   H31   1.110042 S    
Cu1   N1    2.009996 S    
C3    C5    1.419418 S    
Cu2   N2    2.009996 S    
C56   H40   1.109595 S    
N5    H73   1.030858 S    
C18   C25   1.503103 S    
C9    O9    1.387193 S    
C71   H83   1.110549 S    
C62   C63   1.525505 S    
N3    H65   1.030859 S    
C68   H71   1.110964 S    
C45   H13   1.109665 S    
C13   C17   1.417749 A    
C67   H67   1.111290 S    
C21   C26   1.416752 A    
C24   C26   1.423797 A    
O3    Cu1   1.970138 S    
C74   H96   1.107613 S    
C29   N9    1.419924 S    
N8    C72   1.449557 S    
C69   H75   1.111290 S    
Cu1   Cu2   2.674645 S    
N3    C67   1.445138 S    
O4    Cu2   1.970140 S    
N6    C70   1.448195 S    
O2    C2    1.301593 A    
C65   C66   1.524926 S    
C31   C35   1.404632 A    
C48   H21   1.110340 S    
C52   H30   1.105317 S    
C30   N10   1.417057 S    
C58   H45   1.101737 S    
C70   H80   1.109235 S    
C11   O11   1.387193 S    
C59   H46   1.110505 S    
O10   C46   1.415418 S    
O9    C43   1.425169 S    
C44   H11   1.111392 S    
C43   C44   1.532222 S    
C4    C6    1.419418 S    
C66   H64   1.110760 S    
O16   C64   1.413135 S    
C63   H56   1.109455 S    
O8    Cu2   1.912199 S    
C64   C65   1.534728 S    
C37   H5    1.082144 S    
C49   H23   1.106879 S    
C33   C35   1.404633 A    
C29   C33   1.411149 A    
N10   C74   1.449558 S    
O11   C49   1.425168 S    
C53   C54   1.524457 S    
C48   H20   1.109944 S    
C40   H8    1.082686 S    
C50   C51   1.523752 S    
C43   H10   1.118399 S    
C54   H36   1.104638 S    
C73   H92   1.110088 S    
C61   H52   1.101846 S    
C46   H16   1.105318 S    
C22   C25   1.423796 A    
C23   C25   1.416753 A    
C27   N7    1.419923 S    
C21   N3    1.425118 S    
C37   C42   1.410368 A    
C68   H70   1.104478 S    
C30   C34   1.412667 A    
O6    C4    1.288441 A    
C71   H84   1.110091 S    
C13   O13   1.390571 S    
O12   C52   1.415419 S    
C45   H15   1.105781 S    
C53   H33   1.111961 S    
C7    C8    1.398012 S    
C68   H72   1.109236 S    
C10   O10   1.384457 S    
C54   H35   1.110351 S    
C6    C8    1.196565 T    
C67   H68   1.107061 S    
C46   H17   1.110041 S    
C24   N6    1.437325 S    
C32   C36   1.399107 A    
C65   H61   1.109041 S    
N10   H93   1.030549 S    
C69   H76   1.107061 S    
O8    C3    1.288440 A    
C12   C16   1.415283 A    
C60   H48   1.110122 S    
C72   H88   1.107612 S    
C61   C62   1.536430 S    
O1    Cu1   1.970140 S    
O13   C55   1.412664 S    
C59   H47   1.109040 S    
C9    C19   1.415326 A    
C52   C53   1.533718 S    
C60   H49   1.104933 S    
C22   N4    1.437325 S    
C38   H6    1.082684 S    
C58   C59   1.534729 S    
C34   C36   1.399106 A    
C5    C7    1.196565 T    
C11   C15   1.406220 A    
C38   C39   1.405685 A    
C21   C23   1.403929 A    
O6    Cu2   1.912200 S    
C35   C42   1.508169 S    
C56   H39   1.107357 S    
C66   H63   1.104931 S    
C47   H18   1.110759 S    
C12   O12   1.384458 S    
C14   C18   1.421780 A    
O4    C1    1.301591 A    
C49   C50   1.532222 S    
C57   H42   1.109455 S    
C58   H44   1.110888 S    
C28   C32   1.412667 A    
C38   C41   1.408130 A    
C17   C26   1.503102 S    
C11   C20   1.415324 A    
C14   O14   1.393023 S    
C55   C56   1.536429 S    
C65   H60   1.110506 S    
C44   C45   1.523757 S    
C43   H9    1.106877 S    
C59   C60   1.524927 S    
C72   H87   1.111462 S    
C61   H51   1.111085 S    
C50   H25   1.111392 S    
N9    H89   1.031420 S    
N7    H81   1.031422 S    
C30   N2    1.375293 A    
C64   H58   1.110888 S    
C63   H57   1.110471 S    
C47   C48   1.524455 S    
C51   H28   1.110616 S    
C62   H53   1.107358 S    
C60   H50   1.110761 S    
C50   H26   1.105427 S    
C51   H27   1.109665 S    
C23   N5    1.425119 S    
C55   H38   1.101846 S    
C56   C57   1.525505 S    
C49   H24   1.118400 S    
C51   H29   1.105780 S    
C27   C31   1.411149 A    
C73   H90   1.110769 S    
O2    Cu2   1.970138 S    
C46   C47   1.533716 S    
N9    C73   1.447914 S    
C57   H43   1.110470 S    
O7    C4    1.290400 A    
C74   H94   1.110955 S    
O5    Cu1   1.912200 S    
C2    C19   1.480918 S    
N4    C68   1.448195 S    
C71   H82   1.110771 S    
C1    C20   1.480920 S    
C54   H34   1.109963 S    
C62   H54   1.109596 S    
C36   C41   1.503783 S    
C31   H1    1.082135 S    
C40   C41   1.408129 A    
C63   H55   1.110296 S    
C45   H14   1.110616 S    
C44   H12   1.105428 S    
C67   H66   1.110190 S    
C33   H3    1.082134 S    
C10   C14   1.415282 A    
C34   H4    1.082903 S    
C22   C24   1.417952 A    
C74   H95   1.111463 S    
