data_mof_unit_3573.cif
_audit_creation_date              2012-12-10T17:44:28-0500
_audit_creation_method            fapswitch 2.2
_symmetry_space_group_name_H-M    P1
_symmetry_Int_Tables_number       1
_space_group_crystal_system       triclinic
_cell_length_a                    9.963128
_cell_length_b                    10.701335
_cell_length_c                    15.498026
_cell_angle_alpha                 91.08728
_cell_angle_beta                  67.141579
_cell_angle_gamma                 86.217802
_cell_volume                      1517.51035354

loop_
_atom_site_label
_atom_site_type_symbol
_atom_type_description
_atom_site_fract_x
_atom_site_fract_y
_atom_site_fract_z
_atom_type_partial_charge
C1    C     C_R   0.498036 0.740387 0.495033 0.867609
C2    C     C_R   0.713251 0.390832 0.038099 0.156262
C3    C     C_R   0.574605 0.453342 0.090944 0.096145
C4    C     C_R   0.408174 0.499205 0.675943 0.864564
C5    C     C_R   0.816941 0.371657 0.078204 -0.188473
C6    C     C_R   0.783206 0.413083 0.170654 -0.185352
C7    C     C_R   0.549717 0.505037 0.179647 -0.255133
C8    C     C_R   0.226387 0.920881 0.519029 -0.199630
C9    C     C_R   0.103062 0.008721 0.552892 0.276365
C10   C     C_R   0.104465 0.113935 0.606980 -0.211599
C11   C     C_R   0.234912 0.144338 0.610902 -0.194002
C12   C     C_R   0.402661 0.461930 0.916466 0.047813
C13   C     C_R   0.365850 0.074087 0.554785 0.095067
C14   C     C_R   0.359905 0.952208 0.523269 0.046671
C15   C     C_R   0.492687 0.874855 0.487514 -0.111098
C16   C     C_R   0.500013 0.260890 0.506786 0.876228
C17   C     C_R   0.626702 0.928563 0.457123 -0.218715
C18   C     C_R   0.630412 0.055517 0.469789 -0.225155
C19   C     C_R   0.500348 0.128301 0.518017 -0.106070
C20   C     C_R   0.767970 0.638375 0.642668 -0.138369
C21   C     C_R   0.789158 0.690817 0.718959 -0.201516
C22   C     C_R   0.929020 0.690328 0.717861 -0.204489
C23   C     C_R   0.256904 0.508238 0.973142 0.136790
C24   C     C_R   0.047000 0.635251 0.641327 -0.169604
C25   C     C_R   0.025862 0.565450 0.570498 0.122941
C26   C     C_R   0.881464 0.565994 0.570749 0.136297
C27   C     C_R   0.975457 0.435858 0.432484 0.102157
C28   C     C_R   0.591814 0.497941 0.323872 0.871070
C29   C     C_R   0.117291 0.435654 0.433252 -0.088460
C30   C     C_R   0.349854 0.494763 0.777815 -0.089193
C31   C     C_R   0.648064 0.478551 0.222024 -0.064301
C32   C     C_R   0.157339 0.542908 0.931037 0.208864
C33   C     C_R   0.204471 0.533218 0.833347 -0.287356
C34   C     C_R   0.504417 0.430371 0.957693 0.085007
C35   C     C_R   0.446128 0.457443 0.819336 -0.273737
C36   C     C_3   0.891516 0.902188 0.570082 -0.797349
C37   C     C_3   0.998708 0.725942 0.008517 -0.803211
C38   C     C_R   0.465365 0.463353 0.053572 0.073803
C39   C     C_R   0.317537 0.501282 0.109651 -0.246165
C40   C     C_R   0.214759 0.520497 0.070235 -0.232511
C41   C     C_R   0.643980 0.367629 0.906370 -0.217232
C42   C     C_R   0.745607 0.346924 0.946616 -0.256060
H1    H     H_    0.102919 0.549046 0.116270 0.179393
H2    H     H_    0.451287 0.563660 0.218753 0.151035
H3    H     H_    0.947291 0.740651 0.773090 0.149626
H4    H     H_    0.153516 0.653855 0.636703 0.202478
H5    H     H_    0.208225 0.383752 0.378261 0.165973
H6    H     H_    0.859804 0.389143 0.202469 0.141794
H7    H     H_    0.850595 0.297563 0.905524 0.148639
H8    H     H_    0.129598 0.562405 0.800980 0.159803
H9    H     H_    0.558048 0.431556 0.773867 0.171721
H10   H     H_    0.277189 0.513172 0.185022 0.152145
H11   H     H_    0.676086 0.328807 0.835874 0.145560
H12   H     H_    0.922264 0.321680 0.038959 0.141611
H13   H     H_    0.924862 0.082902 0.528224 0.226177
H14   H     H_    0.794561 0.906180 0.552227 0.250235
H15   H     H_    0.853115 0.915891 0.647387 0.250756
H16   H     H_    0.952909 0.810261 0.544354 0.261606
H17   H     H_    0.940763 0.437890 0.314207 0.198229
H18   H     H_    0.871629 0.315876 0.382515 0.223271
H19   H     H_    0.937793 0.569785 0.957678 0.238984
H20   H     H_    0.884046 0.755498 0.055556 0.246368
H21   H     H_    0.028162 0.779173 0.943639 0.235030
H22   H     H_    0.070687 0.748707 0.045275 0.250586
H23   H     H_    0.729127 0.871960 0.422936 0.173614
H24   H     H_    0.221577 0.838027 0.479746 0.174231
H25   H     H_    0.007661 0.177879 0.639229 0.137014
H26   H     H_    0.235698 0.231009 0.647952 0.160998
H27   H     H_    0.734082 0.096961 0.439878 0.163430
H28   H     H_    0.665328 0.665152 0.638949 0.203427
H29   H     H_    0.699071 0.742529 0.774715 0.154424
N1    N     N_R   0.856800 0.501200 0.500850 -0.133097
N2    N     N_R   0.142390 0.501280 0.500880 -0.138738
N3    N     N_2   0.983836 0.998758 0.525289 -0.319784
N4    N     N_3   0.960563 0.370340 0.356261 -0.476763
N5    N     N_2   0.011995 0.592802 0.985662 -0.312745
O1    O     O_R   0.385310 0.683220 0.500000 -0.640382
O2    O     O_R   0.614640 0.683250 0.500010 -0.627677
O3    O     O_R   0.319840 0.499980 0.632240 -0.636799
O4    O     O_R   0.549160 0.500000 0.632250 -0.631554
O5    O     O_R   0.385360 0.316750 0.499990 -0.601890
O6    O     O_R   0.614690 0.316780 0.500000 -0.631635
O7    O     O_R   0.450840 0.500000 0.367750 -0.612874
O8    O     O_R   0.680160 0.500020 0.367760 -0.626326
Zn1   Zn    Zn3+2 0.346880 0.499980 0.499990 0.922047
Zn2   Zn    Zn3+2 0.653120 0.500020 0.500010 0.911183

loop_
_geom_bond_atom_site_label_1
_geom_bond_atom_site_label_2
_ccdc_geom_bond_type
C8    H24   S    
C28   O8    A    
C1    O1    A    
C41   C42   A    
C37   H20   S    
C10   H25   S    
C12   C23   A    
C6    H6    S    
C30   C35   A    
C21   H29   S    
O8    Zn2   S    
C4    O4    A    
C36   H16   S    
C38   C39   A    
C27   C29   A    
C23   C40   A    
C26   N1    A    
C18   C19   A    
O4    Zn2   S    
H13   N3    S    
C40   H1    S    
C3    C38   A    
C8    C9    A    
C1    C15   S    
C9    C10   A    
O2    Zn2   S    
C18   H27   S    
C6    C31   A    
O1    Zn1   S    
C13   C14   A    
C28   O7    A    
C1    O2    A    
C20   H28   S    
C34   C41   A    
C27   N4    S    
C37   H21   S    
H19   N5    S    
C7    C31   A    
C13   C19   A    
C5    H12   S    
C24   C25   A    
C4    O3    A    
C36   H15   S    
C39   C40   A    
C25   C26   A    
O6    Zn2   S    
C36   H14   S    
N2    Zn1   S    
C16   O6    A    
C17   C18   A    
C7    H2    S    
C12   C35   A    
C41   H11   S    
C36   N3    S    
O7    Zn1   S    
C37   N5    S    
C29   H5    S    
C35   H9    S    
C22   C24   A    
C2    C5    A    
C9    N3    S    
C12   C34   A    
H17   N4    S    
O3    Zn1   S    
C37   H22   S    
C11   H26   S    
C15   C17   A    
C8    C14   A    
C30   C33   A    
C34   C38   A    
C17   H23   S    
C28   C31   S    
C32   N5    S    
N1    Zn2   S    
H18   N4    S    
C3    C7    A    
C24   H4    S    
C23   C32   A    
C2    C3    A    
C33   H8    S    
C32   C33   A    
C11   C13   A    
C5    C6    A    
C20   C26   A    
C2    C42   A    
C16   C19   S    
C16   O5    A    
C39   H10   S    
C25   N2    A    
C4    C30   S    
C10   C11   A    
C42   H7    S    
C22   H3    S    
C29   N2    A    
C20   C21   A    
C14   C15   A    
C21   C22   A    
O5    Zn1   S    
C27   N1    A    
