data_mof_unit_1603.cif
_audit_creation_date              2013-03-05T15:43:42-0500
_audit_creation_method            fapswitch 2.2
_symmetry_space_group_name_H-M    P1
_symmetry_Int_Tables_number       1
_space_group_crystal_system       triclinic
_cell_length_a                    13.987851
_cell_length_b                    14.05525
_cell_length_c                    27.373831
_cell_angle_alpha                 89.943301
_cell_angle_beta                  90.039749
_cell_angle_gamma                 120.537409
_cell_volume                      4635.30341964

loop_
_atom_site_label
_atom_site_type_symbol
_atom_site_description
_atom_site_fract_x
_atom_site_fract_y
_atom_site_fract_z
_atom_type_partial_charge
O1    O     O_R   0.137150 0.468200 0.553200 -0.496111
O2    O     O_R   0.531800 0.668950 0.553200 -0.483571
O3    O     O_R   0.331050 0.862850 0.553200 -0.461021
O4    O     O_R   0.173970 0.688730 0.549930 -0.476752
O5    O     O_R   0.311270 0.485240 0.549930 -0.475441
O6    O     O_R   0.514760 0.826030 0.549930 -0.505209
C1    C     C_R   0.260085 0.767901 0.574390 0.529029
C2    C     C_R   0.213215 0.448306 0.569092 0.539114
C3    C     C_R   0.546370 0.762191 0.570369 0.531099
O7    O     O_R   0.140110 0.470540 0.446010 -0.409121
O8    O     O_R   0.529460 0.669570 0.446010 -0.419532
O9    O     O_R   0.330430 0.859890 0.446010 -0.387311
O10   O     O_R   0.176710 0.690910 0.450560 -0.514388
O11   O     O_R   0.309090 0.485800 0.450560 -0.488724
O12   O     O_R   0.514200 0.823290 0.450560 -0.510185
C4    C     C_R   0.232323 0.788207 0.431386 0.568623
C5    C     C_R   0.211625 0.444254 0.431482 0.580846
C6    C     C_R   0.556188 0.767708 0.431634 0.546933
Cr1   Cr    Cr6+3 0.164410 0.584450 0.499910 1.122118
Cr2   Cr    Cr6+3 0.415550 0.579960 0.499910 1.139094
Cr3   Cr    Cr6+3 0.420040 0.835590 0.499910 1.133286
O13   O     O_3   0.333333 0.666667 0.499990 -0.351415
C7    C     C_3   0.559215 0.873265 0.741285 0.219415
C8    C     C_3   0.175748 0.711299 0.754149 0.198525
C9    C     C_3   0.274064 0.422409 0.740187 0.227169
C10   C     C_3   0.748152 0.890642 0.723632 0.053635
C11   C     C_3   0.083348 0.811588 0.715143 0.018801
C12   C     C_3   0.170536 0.217220 0.715345 0.031685
C13   C     C_3   0.774652 0.899408 0.780103 0.205404
C14   C     C_3   0.068917 0.854685 0.766298 0.187134
C15   C     C_3   0.142228 0.180926 0.770956 0.193792
H1    H     H_    0.651071 0.989656 0.799832 0.173820
H2    H     H_    0.035974 0.668414 0.802971 0.156115
H3    H     H_    0.329086 0.355312 0.798347 0.169756
H4    H     H_    0.821307 0.857227 0.789163 0.248082
H5    H     H_    0.091844 0.942692 0.763239 0.217858
H6    H     H_    0.056551 0.109760 0.775305 0.238910
C16   C     C_1   0.728515 0.869668 0.904154 0.026492
C17   C     C_1   0.106049 0.898454 0.894612 0.058218
C18   C     C_1   0.103159 0.207241 0.895031 0.032101
C19   C     C_3   0.618717 0.817914 0.716124 -0.010362
C20   C     C_3   0.192575 0.803747 0.717076 0.012955
C21   C     C_3   0.176631 0.332016 0.708960 -0.017312
C22   C     C_3   0.596326 0.898604 0.795938 -0.056249
C23   C     C_3   0.127165 0.726843 0.803067 -0.071065
C24   C     C_3   0.265985 0.380598 0.793771 -0.054605
C25   C     C_3   0.665755 0.843708 0.810501 0.007209
C26   C     C_3   0.145595 0.846807 0.805360 0.019273
C27   C     C_3   0.148941 0.276103 0.802388 0.010023
C28   C     C_3   0.602286 0.719221 0.796803 -0.273465
C29   C     C_3   0.267270 0.931655 0.791161 -0.301525
C30   C     C_3   0.056719 0.298114 0.784345 -0.286148
C31   C     C_3   0.572269 0.703920 0.741843 -0.268675
C32   C     C_3   0.291135 0.912898 0.737982 -0.304641
C33   C     C_3   0.068198 0.322522 0.729020 -0.310559
C34   C     C_1   0.695273 0.857197 0.862759 0.014466
C35   C     C_1   0.121484 0.874434 0.854258 0.089940
C36   C     C_1   0.127160 0.240921 0.853848 0.026520
C37   C     C_1   0.593484 0.800170 0.663558 0.028574
C38   C     C_1   0.220944 0.785003 0.667345 0.082456
C39   C     C_1   0.188426 0.367118 0.657532 0.020206
C40   C     C_1   0.576821 0.785087 0.620459 0.061401
C41   C     C_1   0.239376 0.776120 0.625079 0.073839
C42   C     C_1   0.196968 0.399131 0.616188 0.060810
H7    H     H_    0.480382 0.655904 0.738132 0.180755
H8    H     H_    0.368403 0.909049 0.737381 0.169806
H9    H     H_    0.068069 0.400598 0.722405 0.214764
H10   H     H_    0.602548 0.652970 0.724286 0.228762
H11   H     H_    0.309272 0.985840 0.715587 0.224568
H12   H     H_    0.994667 0.256100 0.709576 0.161272
H13   H     H_    0.525943 0.672706 0.819123 0.194972
H14   H     H_    0.325615 0.924377 0.816258 0.186456
H15   H     H_    0.061004 0.368795 0.804499 0.196271
H16   H     H_    0.468051 0.815473 0.738683 0.142570
H17   H     H_    0.257352 0.717891 0.761072 0.178452
H18   H     H_    0.268786 0.498839 0.739340 0.188880
H19   H     H_    0.654634 0.682381 0.805001 0.162334
H20   H     H_    0.283777 0.017376 0.794936 0.205084
H21   H     H_    0.973234 0.225290 0.791780 0.187447
O14   O     O_R   0.176750 0.985260 0.074180 -0.474197
O15   O     O_R   0.014740 0.191490 0.074180 -0.506883
O16   O     O_R   0.808510 0.823250 0.074180 -0.525845
O17   O     O_R   0.146100 0.172630 0.068980 -0.517307
O18   O     O_R   0.827370 0.973470 0.068980 -0.497644
O19   O     O_R   0.026530 0.853900 0.068980 -0.463604
C43   C     C_R   0.107134 0.223295 0.087719 0.564083
C44   C     C_R   0.776927 0.883484 0.087739 0.549140
C45   C     C_R   0.085390 0.935056 0.095580 0.565726
Cr4   Cr    Cr6+3 0.155170 0.075460 0.019960 1.058967
Cr5   Cr    Cr6+3 0.924540 0.079710 0.019960 1.042792
Cr6   Cr    Cr6+3 0.920290 0.844830 0.019960 1.066615
C46   C     C_R   0.071361 0.163467 0.943265 0.537543
C47   C     C_R   0.779447 0.886412 0.951118 0.550486
C48   C     C_R   0.091677 0.928888 0.942920 0.531178
O20   O     O_3   1.000000 0.000000 0.020040 -0.306563
O21   O     O_R   0.148270 0.170520 0.969620 -0.500906
O22   O     O_R   0.829480 0.977750 0.969620 -0.509998
O23   O     O_R   0.022250 0.851730 0.969620 -0.465164
C49   C     C_R   0.639517 0.906051 0.362584 -0.063221
C50   C     C_R   0.088377 0.736369 0.364307 -0.068070
C51   C     C_R   0.274873 0.374041 0.360780 -0.063427
C52   C     C_R   0.659024 0.918113 0.311607 -0.004181
C53   C     C_R   0.066133 0.756478 0.316161 -0.002450
C54   C     C_R   0.269494 0.360387 0.309512 -0.030985
C55   C     C_R   0.687077 0.935579 0.208918 0.037227
C56   C     C_R   0.029481 0.793061 0.217921 0.036058
C57   C     C_R   0.258152 0.333397 0.206828 0.043123
C58   C     C_R   0.681162 0.018939 0.235231 0.002552
C59   C     C_R   0.961106 0.688499 0.239756 0.006117
C60   C     C_R   0.354389 0.352978 0.232191 0.004722
C61   C     C_R   0.669273 0.009886 0.285950 -0.097387
C62   C     C_R   0.977839 0.673395 0.288746 -0.089083
C63   C     C_R   0.357442 0.363213 0.283002 -0.142198
C64   C     C_R   0.714255 0.946816 0.158974 -0.097242
C65   C     C_R   0.014211 0.815336 0.169386 -0.096792
C66   C     C_R   0.240339 0.301019 0.157403 -0.111615
H22   H     H_    0.740530 0.023545 0.139899 0.180873
H23   H     H_    0.945073 0.755477 0.147851 0.188192
H24   H     H_    0.295244 0.280814 0.138236 0.171479
H25   H     H_    0.665050 0.074936 0.304785 0.194752
H26   H     H_    0.924044 0.592665 0.304208 0.176792
H27   H     H_    0.431142 0.375422 0.301334 0.081772
C67   C     C_R   0.719245 0.862514 0.134258 -0.019737
C68   C     C_R   0.090081 0.915856 0.147503 -0.022746
C69   C     C_R   0.144640 0.284150 0.133597 -0.019976
C70   C     C_R   0.644536 0.734908 0.360540 0.375171
C71   C     C_R   0.253662 0.920741 0.366101 0.400350
C72   C     C_R   0.091101 0.354501 0.360124 0.392632
C73   C     C_R   0.662556 0.744291 0.310074 0.033010
C74   C     C_R   0.227120 0.945801 0.320352 0.032846
C75   C     C_R   0.084046 0.341742 0.309240 0.028711
C76   C     C_R   0.664583 0.834304 0.285327 -0.033900
C77   C     C_R   0.136269 0.860447 0.294199 -0.033454
C78   C     C_R   0.175742 0.347558 0.283864 -0.028702
C79   C     C_R   0.669523 0.661670 0.282812 0.022294
C80   C     C_R   0.294435 0.050891 0.297927 0.032176
C81   C     C_R   0.991970 0.331386 0.282275 0.026971
C82   C     C_R   0.668377 0.665218 0.232136 -0.160731
C83   C     C_R   0.275710 0.065653 0.249488 -0.155978
C84   C     C_R   0.994426 0.329864 0.231565 -0.167262
C85   C     C_R   0.673925 0.754968 0.207960 0.008148
C86   C     C_R   0.188701 0.981568 0.223431 0.015022
C87   C     C_R   0.080841 0.328574 0.207044 0.006736
C88   C     C_R   0.674397 0.841459 0.234119 0.041426
C89   C     C_R   0.117197 0.878509 0.245419 0.044800
C90   C     C_R   0.172237 0.337494 0.232636 0.047345
C91   C     C_R   0.689260 0.763295 0.157910 -0.108715
C92   C     C_R   0.174566 0.999466 0.174918 -0.116833
C93   C     C_R   0.071669 0.309174 0.157300 -0.106675
C94   C     C_R   0.621237 0.808044 0.385728 -0.035515
C95   C     C_R   0.187663 0.815997 0.387728 -0.035733
C96   C     C_R   0.189694 0.382383 0.384975 0.006831
H28   H     H_    0.691533 0.697279 0.138385 0.162761
H29   H     H_    0.231211 0.078234 0.157926 0.126408
H30   H     H_    0.999246 0.299918 0.138331 0.153808
H31   H     H_    0.671028 0.600953 0.211287 0.134434
H32   H     H_    0.329500 0.144043 0.231826 0.096033
H33   H     H_    0.924530 0.322576 0.211047 0.112476
O24   O     O_R   0.179100 0.982980 0.967000 -0.473181
O25   O     O_R   0.017020 0.196120 0.967000 -0.480658
O26   O     O_R   0.803880 0.820900 0.967000 -0.508069
C97   C     C_2   0.498679 0.866136 0.829313 0.185241
H34   H     H_    0.496864 0.927992 0.852339 0.135638
O27   O     O_2   0.421982 0.770867 0.831196 -0.470297
C98   C     C_2   0.168577 0.692166 0.846740 0.277315
H35   H     H_    0.134883 0.604867 0.853411 0.180810
O28   O     O_2   0.236082 0.759117 0.875401 -0.458080
C99   C     C_2   0.296422 0.471307 0.830642 0.203373
H36   H     H_    0.355957 0.485116 0.859206 0.127962
O29   O     O_2   0.253535 0.528074 0.829564 -0.500770
C100  C     C_2   0.638366 0.994023 0.392243 0.313982
H37   H     H_    0.687799 0.022636 0.425337 0.139176
O30   O     O_2   0.577021 0.029219 0.382010 -0.408123
C101  C     C_2   0.009011 0.633026 0.390145 0.306081
H38   H     H_    0.971935 0.637643 0.424205 0.148520
O31   O     O_2   0.989769 0.543250 0.375143 -0.436048
C102  C     C_2   0.369178 0.380575 0.388875 0.331510
H39   H     H_    0.454072 0.432559 0.376625 0.155634
O32   O     O_2   0.352001 0.326977 0.426344 -0.394699
C103  C     C_2   0.682252 0.115169 0.212017 0.208783
H40   H     H_    0.711043 0.190732 0.232726 0.100752
O33   O     O_2   0.644748 0.109424 0.171150 -0.491534
C104  C     C_2   0.875717 0.589292 0.213076 0.195735
H41   H     H_    0.804668 0.525406 0.232758 0.096440
O34   O     O_2   0.887191 0.573246 0.170244 -0.493219
C105  C     C_2   0.455338 0.366365 0.207716 0.187858
H42   H     H_    0.510984 0.347666 0.227607 0.088957
O35   O     O_2   0.480843 0.403757 0.166413 -0.498787
C106  C     C_2   0.680388 0.570657 0.304228 0.279014
H43   H     H_    0.634656 0.488659 0.288454 0.059128
O36   O     O_2   0.747138 0.588025 0.336698 -0.432711
C107  C     C_2   0.384783 0.149402 0.322573 0.331387
H44   H     H_    0.460828 0.203673 0.302898 0.072365
O37   O     O_2   0.372191 0.175420 0.363494 -0.377297
C108  C     C_2   0.890775 0.322447 0.303994 0.330541
H45   H     H_    0.859588 0.373933 0.290091 0.090853
O38   O     O_2   0.836536 0.251914 0.334452 -0.427171
F1    F     F_    0.580414 0.969099 0.717398 -0.645997
F2    F     F_    0.106629 0.606466 0.735451 -0.665922
F3    F     F_    0.376169 0.450068 0.720350 -0.666423
F4    F     F_    0.637670 0.647546 0.384832 -0.580013
F5    F     F_    0.350018 0.995318 0.387961 -0.525753
F6    F     F_    0.005462 0.348387 0.385906 -0.531463
C109  C     C_2   0.804368 0.836777 0.696862 0.258520
H46   H     H_    0.837174 0.863685 0.660337 0.170140
O39   O     O_2   0.805158 0.756839 0.713754 -0.508536
C110  C     C_2   0.086013 0.888310 0.674936 0.282972
H47   H     H_    0.008872 0.873903 0.659092 0.176398
O40   O     O_2   0.172412 0.965654 0.659379 -0.484012
C111  C     C_2   0.082688 0.131776 0.681437 0.252853
H48   H     H_    0.084167 0.149124 0.642713 0.169077
O41   O     O_2   0.011195 0.041998 0.696347 -0.560225
C112  C     C_2   0.790155 0.005670 0.701796 0.367990
H49   H     H_    0.803663 0.074327 0.724720 0.192017
O42   O     O_2   0.802022 0.021485 0.657731 -0.495669
C113  C     C_2   0.983709 0.697573 0.703610 0.368099
H50   H     H_    0.926782 0.646391 0.732064 0.207788
O43   O     O_2   0.968974 0.659133 0.662404 -0.461078
C114  C     C_2   0.280726 0.227525 0.700664 0.383195
H51   H     H_    0.342029 0.239459 0.728000 0.188655
O44   O     O_2   0.305414 0.229481 0.657696 -0.438164
F7    F     F_    0.842832 0.007733 0.795408 -0.713790
F8    F     F_    0.959887 0.797652 0.782402 -0.668397
F9    F     F_    0.210979 0.146253 0.790511 -0.722265

loop_
_geom_bond_atom_site_label_1
_geom_bond_atom_site_label_2
_geom_bond_distance
_ccdc_geom_bond_type
C76   C88   1.407073 A    
C87   C90   1.406020 A    
C44   C67   1.455478 S    
C100  H37   1.085276 S    
C81   C108  1.480956 S    
O8    C6    1.293190 A    
C48   O24   1.250205 A    
C79   C82   1.388422 A    
O1    C2    1.304206 A    
H2    C23   1.112204 S    
O12   C6    1.300444 A    
O11   C5    1.289573 A    
O18   C44   1.205638 A    
C45   C68   1.454104 S    
C75   C78   1.424401 A    
C9    C21   1.563080 S    
C55   C88   1.420306 A    
O19   Cr6   1.957118 S    
Cr5   O20   1.889710 S    
O5    Cr2   1.949528 S    
C112  H49   1.084635 S    
C68   C92   1.389248 A    
C7    F1    1.386514 S    
C98   H35   1.083060 S    
C56   C89   1.420377 A    
C24   C99   1.508572 S    
C80   C107  1.480491 S    
C38   C41   1.205846 T    
C8    C23   1.566975 S    
C14   C26   1.557203 S    
C15   C27   1.553454 S    
O3    C1    1.325088 A    
O4    C1    1.332580 A    
C67   C91   1.394294 A    
C83   C86   1.387640 A    
C23   C26   1.572230 S    
C49   C100  1.486766 S    
C48   O23   1.257995 A    
O7    C5    1.292956 A    
C12   C111  1.521425 S    
O16   C44   1.196073 A    
C17   C35   1.206619 T    
C46   O21   1.256303 A    
C8    C20   1.568624 S    
C58   C103  1.486853 S    
O14   Cr4   2.070221 S    
C106  O36   1.220269 D    
C31   H10   1.110113 S    
C101  H38   1.085098 S    
C79   C106  1.482929 S    
C84   H33   1.086022 S    
C73   C79   1.425399 A    
O4    Cr1   1.960985 S    
C72   C96   1.402961 A    
C26   C29   1.551579 S    
C63   H27   1.078757 S    
O9    C4    1.285914 A    
C8    F2    1.385978 S    
C102  O32   1.221501 D    
C84   C87   1.391187 A    
H3    C24   1.113381 S    
C30   H21   1.112685 S    
C31   H7    1.111873 S    
C59   C62   1.395629 A    
Cr5   O22   1.945663 S    
O15   C43   1.191655 A    
C22   C25   1.567720 S    
C73   C76   1.422041 A    
C71   C95   1.409975 A    
C59   C104  1.487500 S    
C99   O29   1.218073 D    
C50   C95   1.418821 A    
Cr3   O13   2.044954 S    
C43   C69   1.459180 S    
Cr5   O25   2.073452 S    
C86   C89   1.409858 A    
C52   C61   1.409980 A    
C98   O28   1.220724 D    
O18   Cr5   1.952907 S    
O6    C3    1.309760 A    
C80   C83   1.387089 A    
O17   Cr4   1.965173 S    
C49   C94   1.415939 A    
C103  O33   1.220461 D    
Cr4   O24   2.085625 S    
C25   C28   1.553228 S    
C97   O27   1.219315 D    
C112  O42   1.222371 D    
C70   F4    1.355643 S    
C13   F7    1.388643 S    
C78   C90   1.407886 A    
C81   C84   1.389025 A    
O8    Cr2   2.064535 S    
O1    Cr1   2.075087 S    
C28   C31   1.547262 S    
C18   C36   1.202343 T    
O10   Cr1   1.956583 S    
O2    Cr2   2.066410 S    
C110  H47   1.082093 S    
C33   H12   1.112297 S    
C66   H24   1.080867 S    
C86   C92   1.384000 A    
C55   C64   1.406368 A    
C26   C35   1.480178 S    
Cr1   O13   2.035637 S    
C113  H50   1.084381 S    
C19   C37   1.472360 S    
C30   H15   1.111496 S    
C85   C88   1.408600 A    
C20   C38   1.479129 S    
C114  H51   1.084701 S    
C57   C90   1.420638 A    
C108  H45   1.085730 S    
C70   C73   1.398470 A    
O6    Cr3   1.956103 S    
O9    Cr3   2.072733 S    
C50   C53   1.414817 A    
C7    C22   1.564163 S    
C3    C40   1.423315 S    
C61   H25   1.077562 S    
C72   F6    1.355324 S    
C107  O37   1.219045 D    
Cr4   O20   1.869921 S    
C39   C42   1.200865 T    
C10   C109  1.528189 S    
C104  H41   1.084987 S    
C17   C48   1.435600 S    
C75   C81   1.425904 A    
O11   Cr2   1.947307 S    
C114  O44   1.222420 D    
C100  O30   1.220756 D    
C54   C78   1.415578 A    
C24   C27   1.565081 S    
C47   O26   1.213446 A    
O7    Cr1   2.075273 S    
C65   H23   1.078885 S    
C1    C41   1.434395 S    
C49   C52   1.415448 A    
H1    C22   1.113470 S    
C28   H13   1.109838 S    
C55   C58   1.413730 A    
C18   C46   1.428584 S    
O16   Cr6   2.063977 S    
C19   C31   1.557380 S    
C69   C93   1.397412 A    
C2    C42   1.424940 S    
C64   C67   1.397249 A    
C21   C33   1.554081 S    
C99   H36   1.085198 S    
C13   C25   1.553760 S    
C102  H39   1.083892 S    
C51   C54   1.413428 A    
C111  O41   1.214973 D    
C66   C69   1.396191 A    
C10   C112  1.532862 S    
C50   C101  1.484224 S    
C11   C113  1.530005 S    
C57   C60   1.411548 A    
O12   Cr3   1.955474 S    
O3    Cr3   2.076660 S    
C5    C96   1.483777 S    
C77   C89   1.409359 A    
C29   H14   1.110132 S    
Cr2   O13   2.057187 S    
C7    H16   1.112829 S    
C105  O35   1.220927 D    
C72   C75   1.401565 A    
C47   O22   1.217435 A    
C103  H40   1.085232 S    
C21   C39   1.472668 S    
C97   H34   1.085045 S    
O19   C45   1.247251 A    
C82   H31   1.085375 S    
C92   H29   1.085316 S    
C60   C105  1.486346 S    
C37   C40   1.200453 T    
C65   C68   1.398827 A    
C12   C21   1.581403 S    
C12   C15   1.590095 S    
C74   C80   1.425064 A    
C27   C30   1.551809 S    
C52   C76   1.416331 A    
O15   Cr5   2.061738 S    
C82   C85   1.390748 A    
O5    C2    1.304893 A    
C33   H9    1.112955 S    
C30   C33   1.542836 S    
C8    H17   1.113413 S    
C14   F8    1.385903 S    
C32   H8    1.109408 S    
C12   C114  1.527104 S    
C13   H4    1.109750 S    
C51   C96   1.419577 A    
C7    C19   1.559545 S    
C58   C61   1.396381 A    
C14   H5    1.112035 S    
C56   C65   1.405525 A    
C46   O25   1.251530 A    
C29   C32   1.546256 S    
C107  H44   1.085740 S    
C9    H18   1.113791 S    
Cr4   O21   1.954625 S    
C104  O34   1.220194 D    
C53   C77   1.414756 A    
C29   H20   1.110456 S    
C62   H26   1.079214 S    
C22   C97   1.508656 S    
C9    F3    1.386447 S    
C20   C32   1.559840 S    
C109  O39   1.219784 D    
C70   C94   1.407260 A    
C11   C20   1.587533 S    
C32   H11   1.107223 S    
Cr6   O26   2.075426 S    
C16   C47   1.429902 S    
C54   C63   1.411778 A    
C4    C95   1.488981 S    
C11   C110  1.527227 S    
Cr6   O23   1.950449 S    
C93   H30   1.085488 S    
C106  H43   1.084131 S    
C91   H28   1.085649 S    
C71   F5    1.355662 S    
C101  O31   1.220248 D    
C57   C66   1.408962 A    
C71   C74   1.400579 A    
C64   H22   1.080339 S    
C51   C102  1.488497 S    
C85   C91   1.382527 A    
Cr6   O20   1.878466 S    
C15   F9    1.387047 S    
C74   C77   1.420529 A    
C15   H6    1.110278 S    
C87   C93   1.382008 A    
O17   C43   1.209478 A    
C16   C34   1.203250 T    
C109  H46   1.084815 S    
C83   H32   1.082057 S    
C10   C13   1.579678 S    
O14   C45   1.248219 A    
C111  H48   1.085326 S    
O10   C4    1.291848 A    
C60   C63   1.396837 A    
C28   H19   1.113305 S    
C110  O40   1.219999 D    
C53   C62   1.409619 A    
C108  O38   1.220024 D    
C105  H42   1.085553 S    
C6    C94   1.484725 S    
O2    C3    1.307499 A    
C23   C98   1.512308 S    
C9    C24   1.562258 S    
C27   C36   1.472326 S    
C113  O43   1.222464 D    
C10   C19   1.576169 S    
C25   C34   1.474068 S    
C11   C14   1.579506 S    
C56   C59   1.415111 A    
