data_mof_unit_2318.cif
_audit_creation_date              2012-12-10T16:53:11-0500
_audit_creation_method            fapswitch 2.2
_symmetry_space_group_name_H-M    P1
_symmetry_Int_Tables_number       1
_space_group_crystal_system       triclinic
_cell_length_a                    10.798105
_cell_length_b                    10.932578
_cell_length_c                    9.691514
_cell_angle_alpha                 88.086078
_cell_angle_beta                  90.335068
_cell_angle_gamma                 89.371545
_cell_volume                      1143.36498748

loop_
_atom_site_label
_atom_site_type_symbol
_atom_type_description
_atom_site_fract_x
_atom_site_fract_y
_atom_site_fract_z
_atom_type_partial_charge
C1    C     C_R   0.503571 0.265145 0.502748 0.750818
C2    C     C_R   0.068229 0.397053 0.575112 0.022428
C3    C     C_R   0.129038 0.490804 0.498634 -0.186592
C4    C     C_R   0.061581 0.580311 0.421889 0.422956
C5    C     C_R   0.933374 0.576753 0.421188 -0.280743
C6    C     C_R   0.871361 0.489319 0.501913 -0.134350
C7    C     C_2   0.559047 0.934155 0.406274 0.537395
C8    C     C_2   0.487058 0.865521 0.489914 -0.351203
C9    C     C_2   0.541048 0.068496 0.400659 -0.384468
C10   C     C_2   0.516378 0.132681 0.513581 0.275225
C11   C     C_2   0.435389 0.422709 0.923827 0.568735
C12   C     C_R   0.262680 0.497930 0.499585 0.813736
C13   C     C_2   0.422906 0.436977 0.079347 -0.173071
C14   C     C_R   0.498324 0.734291 0.497490 0.867949
C15   C     C_R   0.737461 0.495714 0.500628 0.811640
C16   C     C_R   0.134588 0.300127 0.643000 -0.196140
C17   C     C_R   0.073438 0.211058 0.721662 -0.192829
C18   C     C_R   0.945058 0.215346 0.733286 0.533083
C19   C     C_R   0.877075 0.305441 0.658540 -0.274725
C20   C     C_R   0.937505 0.398025 0.579887 0.031812
Cu1   Cu    Cu3+1 0.500020 0.500020 0.638630 0.980411
Cu2   Cu    Cu3+1 0.499980 0.499980 0.361370 0.974373
H1    H     H_    0.539185 0.571661 0.892797 0.154391
H2    H     H_    0.348359 0.389787 0.132355 0.176959
H3    H     H_    0.574785 0.535483 0.104922 0.192898
H4    H     H_    0.233885 0.290754 0.634239 0.199237
H5    H     H_    0.125973 0.138175 0.773821 0.154390
H6    H     H_    0.777450 0.301071 0.662273 0.145786
H7    H     H_    0.881875 0.645223 0.360194 0.173733
H8    H     H_    0.414908 0.904526 0.552561 0.161498
H9    H     H_    0.555896 0.115940 0.301964 0.148694
N1    N     N_2   0.498640 0.498660 0.846910 -0.315556
N2    N     N_2   0.498610 0.498630 0.153040 -0.295586
O1    O     O_R   0.500020 0.321960 0.617040 -0.528567
O2    O     O_R   0.499980 0.321920 0.382900 -0.612128
O3    O     O_R   0.319670 0.500020 0.617100 -0.554732
O4    O     O_R   0.319630 0.499980 0.382950 -0.543071
O5    O     O_R   0.500020 0.678080 0.617100 -0.587074
O6    O     O_R   0.499980 0.678040 0.382960 -0.520804
O7    O     O_R   0.680370 0.500020 0.617050 -0.588300
O8    O     O_R   0.680330 0.499980 0.382900 -0.573028
O9    O     O_3   0.121068 0.668656 0.342002 -0.561087
C21   C     C_3   0.129063 0.776465 0.417688 0.060256
H10   H     H_    0.188237 0.760590 0.511290 0.130126
H11   H     H_    0.035668 0.809421 0.449206 0.137315
C22   C     C_3   0.187485 0.876541 0.327671 -0.780583
H12   H     H_    0.198725 0.960487 0.387785 0.195096
H13   H     H_    0.279824 0.845878 0.291636 0.262780
H14   H     H_    0.127395 0.898309 0.236533 0.245719
O10   O     O_3   0.502365 0.075695 0.642577 -0.607437
C23   C     C_3   0.616976 0.072439 0.712670 -0.246999
H15   H     H_    0.635729 0.162785 0.756483 0.190656
H16   H     H_    0.694904 0.043005 0.646131 0.173351
H17   H     H_    0.611257 0.005056 0.800461 0.191244
O11   O     O_3   0.368296 0.333932 0.857785 -0.539739
C24   C     C_3   0.377323 0.219976 0.930221 -0.322496
H18   H     H_    0.309445 0.215121 0.015776 0.146249
H19   H     H_    0.472962 0.199679 0.969162 0.146412
H20   H     H_    0.353176 0.147020 0.858330 0.221234
O12   O     O_3   0.885737 0.125326 0.810011 -0.605587
C25   C     C_3   0.857417 0.171800 0.940189 -0.374543
H21   H     H_    0.793098 0.251997 0.930714 0.161516
H22   H     H_    0.943045 0.196407 0.997037 0.178496
H23   H     H_    0.810044 0.099471 0.002308 0.189117
O13   O     O_3   0.641786 0.876750 0.318762 -0.563725
C26   C     C_3   0.755708 0.938769 0.313719 -0.337801
H24   H     H_    0.790842 0.958678 0.418830 0.153850
H25   H     H_    0.747950 0.024134 0.248711 0.157666
H26   H     H_    0.825436 0.878935 0.265093 0.193734

loop_
_geom_bond_atom_site_label_1
_geom_bond_atom_site_label_2
_ccdc_geom_bond_type
C11   N1    D    
C25   H23   S    
C26   H25   S    
O11   C24   S    
C13   N2    D    
Cu1   O1    S    
C2    C16   A    
C7    O13   S    
C6    C20   A    
C9    C10   D    
C17   H5    S    
C19   C20   A    
C24   H20   S    
C21   H10   S    
C23   H17   S    
C8    H8    S    
H1    N1    S    
Cu2   O2    S    
C2    C3    A    
C6    C15   S    
C7    C8    D    
Cu1   O3    S    
Cu1   Cu2   S    
C19   H6    S    
C21   H11   S    
C22   H14   S    
C15   O8    A    
C23   H15   S    
C25   H21   S    
Cu1   O7    S    
C4    O9    S    
O12   C25   S    
Cu2   O6    S    
C18   O12   S    
C21   C22   S    
C24   H19   S    
C1    O1    A    
C26   H24   S    
C5    H7    S    
C16   H4    S    
C5    C6    A    
Cu1   N1    S    
C22   H13   S    
C15   O7    A    
Cu2   O8    S    
C12   O3    A    
O9    C21   S    
C9    H9    S    
C2    C20   A    
C14   O5    A    
C26   H26   S    
C16   C17   A    
C7    C9    S    
C11   C13   S    
C11   O11   S    
C24   H18   S    
C1    O2    A    
C17   C18   A    
O13   C26   S    
C1    C10   S    
C12   O4    A    
C25   H22   S    
Cu2   N2    S    
C22   H12   S    
C18   C19   A    
C8    C14   S    
C3    C12   S    
O10   C23   S    
C14   O6    A    
Cu2   O4    S    
Cu1   O5    S    
C3    C4    A    
C13   H2    S    
H3    N2    S    
C4    C5    A    
C23   H16   S    
C10   O10   S    
