data_mof_unit_4869.cif
_audit_creation_date              2012-10-26T20:00:56-0400
_audit_creation_method            fapswitch 2.2
_symmetry_space_group_name_H-M    P1
_symmetry_Int_Tables_number       1
_space_group_crystal_system       triclinic
_cell_length_a                    11.793294
_cell_length_b                    13.061354
_cell_length_c                    13.359492
_cell_angle_alpha                 94.429083
_cell_angle_beta                  75.747057
_cell_angle_gamma                 100.339494
_cell_volume                      1960.93800102

loop_
_atom_site_label
_atom_site_type_symbol
_atom_type_description
_atom_site_fract_x
_atom_site_fract_y
_atom_site_fract_z
_atom_type_partial_charge
C1    C     C_R   0.523020 0.700694 0.498474 0.559432
C2    C     C_R   0.396410 0.473413 0.807910 -0.046407
C3    C     C_R   0.460338 0.185339 0.516134 -0.006385
C4    C     C_R   0.435661 0.493482 0.696135 0.542371
C5    C     C_R   0.539171 0.814929 0.497069 -0.006484
C6    C     C_R   0.659026 0.987775 0.496105 -0.023595
C7    C     C_R   0.651352 0.879031 0.488300 -0.027188
C8    C     C_R   0.438805 0.860151 0.504394 -0.129902
C9    C     C_R   0.445042 0.967903 0.509241 0.014678
C10   C     C_R   0.554217 0.032691 0.512838 -0.013119
C11   C     C_R   0.554896 0.140336 0.531710 -0.062666
C12   C     C_R   0.468867 0.465115 0.963658 -0.012651
C13   C     C_R   0.352293 0.120188 0.510855 0.127614
C14   C     C_R   0.343235 0.011961 0.511983 0.103743
C15   C     C_R   0.938570 0.594362 0.603232 -0.031821
C16   C     C_R   0.476291 0.299410 0.505313 0.562303
C17   C     C_R   0.821281 0.582616 0.593486 0.044365
C18   C     C_R   0.862507 0.465353 0.449792 0.253902
C19   C     C_R   0.979923 0.466537 0.461491 -0.004924
C20   C     C_R   0.019386 0.533115 0.538860 -0.001546
C21   C     C_R   0.137361 0.535350 0.549812 0.216290
C22   C     C_R   0.177734 0.415229 0.407557 0.222629
C23   C     C_R   0.470606 0.518651 0.874666 -0.021299
C24   C     C_R   0.059686 0.404465 0.397601 -0.036483
C25   C     C_R   0.564176 0.506123 0.304011 0.550961
C26   C     C_R   0.730900 0.620351 0.049545 0.006160
C27   C     C_R   0.602944 0.521442 0.192439 -0.012128
C28   C     C_R   0.304709 0.388884 0.841297 0.000791
C29   C     C_R   0.302820 0.335792 0.928730 0.074006
C30   C     C_R   0.391240 0.367581 0.983835 -0.011786
C31   C     C_1   0.776309 0.051609 0.476351 0.228292
C32   C     C_1   0.760087 0.835193 0.468329 0.242074
C33   C     C_1   0.972614 0.674742 0.675879 0.216263
C34   C     C_R   0.547019 0.509893 0.027389 -0.005619
C35   C     C_1   0.023503 0.325707 0.323763 0.226676
C36   C     C_1   0.842267 0.687958 0.011426 0.260156
C37   C     C_1   0.219780 0.347217 0.780284 0.268867
C38   C     C_1   0.409377 0.292056 0.050086 0.177236
C39   C     C_1   0.525605 0.689500 0.788102 0.194100
C40   C     C_1   0.641522 0.200876 0.583297 0.245327
C41   C     C_R   0.642871 0.591239 0.991247 0.067038
C42   C     C_R   0.639106 0.647336 0.906085 0.072604
C43   C     C_R   0.547510 0.615674 0.854030 -0.002174
C44   C     C_R   0.523817 0.484012 0.131070 -0.111044
C45   C     C_R   0.710504 0.583616 0.149177 -0.151544
Cu1   Cu    Cu3+1 0.386470 0.492430 0.492410 1.004156
Cu2   Cu    Cu3+1 0.613530 0.507570 0.507590 0.982345
H1    H     H_    0.774112 0.610582 0.195830 0.131631
H2    H     H_    0.248550 0.637676 0.622720 0.276387
H3    H     H_    0.262102 0.369806 0.265212 0.201696
H4    H     H_    0.224040 0.276091 0.352653 0.236568
H5    H     H_    0.758305 0.741456 0.801539 0.243919
H6    H     H_    0.670198 0.804749 0.896565 0.252098
H7    H     H_    0.751400 0.365656 0.374929 0.285335
H8    H     H_    0.834566 0.472934 0.306592 0.247561
H9    H     H_    0.257617 0.179717 0.948919 0.254750
H10   H     H_    0.170713 0.253550 0.034021 0.256111
H11   H     H_    0.354642 0.810023 0.507081 0.135943
H12   H     H_    0.759754 0.627673 0.643399 0.130995
H13   H     H_    0.438931 0.441242 0.167723 0.142211
H14   H     H_    0.183492 0.141600 0.574695 0.276688
H15   H     H_    0.218561 0.130912 0.444180 0.253646
H16   H     H_    0.203822 0.902826 0.577070 0.255169
H17   H     H_    0.238415 0.900601 0.445016 0.241297
H18   H     H_    0.166756 0.531697 0.693148 0.266029
N1    N     N_R   0.215880 0.481050 0.481000 -0.196968
N2    N     N_1   0.995463 0.262672 0.264694 -0.258617
N3    N     N_3   0.718927 0.743540 0.880602 -0.598222
N4    N     N_3   0.831689 0.416301 0.358516 -0.597174
N5    N     N_1   0.931702 0.742000 0.981446 -0.226923
N6    N     N_1   0.151835 0.313715 0.731765 -0.259924
N7    N     N_1   0.423656 0.231446 0.102655 -0.281075
N8    N     N_3   0.214984 0.244495 0.956605 -0.596647
N9    N     N_1   0.507887 0.749216 0.736569 -0.299752
N10   N     N_1   0.709944 0.249191 0.624840 -0.245811
N11   N     N_R   0.784100 0.518950 0.519000 -0.227060
N12   N     N_3   0.249566 0.163512 0.508378 -0.561334
N13   N     N_1   0.869924 0.101816 0.460385 -0.246572
N14   N     N_3   0.230220 0.948604 0.511874 -0.625414
N15   N     N_1   0.846945 0.800741 0.452331 -0.278414
N16   N     N_3   0.168592 0.586775 0.640067 -0.600383
N17   N     N_3   0.258420 0.354849 0.341714 -0.527435
N18   N     N_1   0.000050 0.739518 0.733633 -0.241563
O1    O     O_R   0.419710 0.645650 0.494620 -0.528382
O2    O     O_R   0.611450 0.658430 0.507430 -0.486473
O3    O     O_R   0.357340 0.490460 0.641450 -0.514881
O4    O     O_R   0.549080 0.503250 0.654260 -0.492282
O5    O     O_R   0.388550 0.341570 0.492570 -0.426869
O6    O     O_R   0.580290 0.354350 0.505380 -0.518980
O7    O     O_R   0.450920 0.496750 0.345740 -0.471210
O8    O     O_R   0.642660 0.509540 0.358550 -0.525282

loop_
_geom_bond_atom_site_label_1
_geom_bond_atom_site_label_2
_ccdc_geom_bond_type
C21   N1    A    
C41   C42   A    
H15   N12   S    
C19   C20   A    
C4    O4    A    
H16   N14   S    
C1    O1    A    
C12   C23   A    
C25   O7    A    
C1    C5    S    
Cu2   O2    S    
C28   C29   A    
Cu2   N11   S    
Cu1   N1    S    
C29   N8    S    
H10   N8    S    
C23   C43   A    
C30   C38   S    
C18   C19   A    
C39   N9    T    
H2    N16   S    
H6    N3    S    
C22   N1    A    
C26   C45   A    
C8    H11   S    
C27   C44   A    
H14   N12   S    
C8    C9    A    
C17   N11   A    
C7    C32   S    
C9    C10   A    
C3    C13   A    
C27   C45   A    
C18   N4    S    
C6    C31   S    
C16   O6    A    
C13   C14   A    
C42   N3    S    
Cu2   O6    S    
C34   C41   A    
C36   N5    T    
Cu1   O5    S    
C1    O2    A    
C15   C20   A    
C38   N7    T    
C25   O8    A    
C24   C35   S    
C34   C44   A    
C5    C7    A    
C39   C43   S    
Cu2   O4    S    
C2    C4    S    
C9    C14   A    
C29   C30   A    
C32   N15   T    
H18   N16   S    
C35   N2    T    
C14   N14   S    
C33   N18   T    
H4    N17   S    
H8    N4    S    
C17   H12   S    
Cu1   O1    S    
C26   C36   S    
C21   N16   S    
C37   N6    T    
C13   N12   S    
H17   N14   S    
C22   C24   A    
C42   C43   A    
C12   C34   A    
C22   N17   S    
H3    N17   S    
C31   N13   T    
C45   H1    S    
C15   C17   A    
Cu1   Cu2   S    
C18   N11   A    
H9    N8    S    
C12   C30   A    
Cu2   O8    S    
H5    N3    S    
C6    C10   A    
C5    C8    A    
C6    C7    A    
Cu1   O7    S    
C25   C27   S    
C40   N10   T    
C19   C24   A    
H7    N4    S    
C28   C37   S    
C44   H13   S    
C11   C40   S    
C3    C11   A    
C10   C11   A    
C4    O3    A    
C20   C21   A    
C2    C23   A    
C16   O5    A    
C2    C28   A    
C15   C33   S    
C3    C16   S    
C26   C41   A    
Cu1   O3    S    
