data_mof_unit_54.cif
_audit_creation_date              2012-10-26T20:16:38-0400
_audit_creation_method            fapswitch 2.2
_symmetry_space_group_name_H-M    P1
_symmetry_Int_Tables_number       1
_space_group_crystal_system       triclinic
_cell_length_a                    10.886078
_cell_length_b                    10.909307
_cell_length_c                    9.834444
_cell_angle_alpha                 98.453786
_cell_angle_beta                  99.406319
_cell_angle_gamma                 93.076261
_cell_volume                      1136.09330163

loop_
_atom_site_label
_atom_site_type_symbol
_atom_type_description
_atom_site_fract_x
_atom_site_fract_y
_atom_site_fract_z
_atom_type_partial_charge
C1    C     C_R   0.502712 0.262159 0.499585 0.552293
C2    C     C_R   0.654217 0.936130 0.855891 -0.055008
C3    C     C_R   0.463290 0.079498 0.230485 0.009011
C4    C     C_R   0.536669 0.920493 0.769509 0.009035
C5    C     C_R   0.566214 0.132939 0.184355 -0.011944
C6    C     C_R   0.433739 0.867031 0.815608 -0.011951
C7    C     C_R   0.550470 0.175004 0.055588 0.254508
C8    C     C_R   0.449466 0.824968 0.944377 0.254511
C9    C     C_R   0.432595 0.160170 0.970558 -0.115014
C10   C     C_R   0.567333 0.839808 0.029427 -0.114993
C11   C     C_R   0.471038 0.915764 0.375982 -0.138629
C12   C     C_R   0.497285 0.737840 0.500414 0.552298
C13   C     C_R   0.528938 0.084232 0.624019 -0.138621
C14   C     C_R   0.494885 0.872089 0.503201 0.002973
C15   C     C_R   0.505104 0.127908 0.496797 0.002966
C16   C     C_R   0.261840 0.497988 0.498739 0.552464
C17   C     C_R   0.738159 0.502014 0.501258 0.552507
C18   C     C_R   0.521184 0.957878 0.629603 -0.023296
C19   C     C_R   0.478794 0.042118 0.370395 -0.023309
C20   C     C_2   0.511970 0.509136 0.079089 0.051847
C21   C     C_2   0.488026 0.490871 0.920912 0.051847
C22   C     C_R   0.139068 0.447228 0.020301 -0.134716
C23   C     C_R   0.872466 0.502399 0.504405 0.007446
C24   C     C_R   0.860999 0.552917 0.979711 -0.134681
C25   C     C_R   0.117790 0.490380 0.154743 -0.075812
C26   C     C_R   0.882275 0.509707 0.845283 -0.075831
C27   C     C_R   0.070137 0.407925 0.234187 0.049480
C28   C     C_R   0.929845 0.592129 0.765756 0.049535
C29   C     C_R   0.040524 0.281728 0.174742 0.278163
C30   C     C_R   0.959342 0.718358 0.825082 0.278183
C31   C     C_R   0.058965 0.240332 0.038570 -0.059294
C32   C     C_R   0.940884 0.759820 0.961230 -0.059266
C33   C     C_R   0.108967 0.322600 0.961931 -0.183964
C34   C     C_R   0.127531 0.497606 0.495578 0.007413
C35   C     C_R   0.890992 0.677579 0.037969 -0.183864
C36   C     C_R   0.912680 0.460537 0.379033 -0.107616
C37   C     C_R   0.087316 0.539475 0.620947 -0.107664
C38   C     C_R   0.961314 0.543127 0.627650 0.004294
C39   C     C_R   0.038680 0.456885 0.372323 0.004305
C40   C     C_R   0.331126 0.102910 0.013816 -0.141587
C41   C     C_R   0.668810 0.897093 0.986203 -0.141633
C42   C     C_R   0.345737 0.063879 0.144133 -0.055009
Cl1   Cl    Cl    0.678743 0.246339 0.001997 -0.693936
Cl2   Cl    Cl    0.321180 0.753649 0.997959 -0.694088
Cl3   Cl    Cl    0.979536 0.173365 0.267520 -0.626871
Cl4   Cl    Cl    0.020217 0.826681 0.732189 -0.626876
Cu1   Cu    Cu3+1 0.521120 0.521140 0.639640 0.984611
Cu2   Cu    Cu3+1 0.478880 0.478860 0.360360 0.984596
H1    H     H_    0.123828 0.289924 0.856951 0.131037
H2    H     H_    0.376421 0.384424 0.094739 0.214224
H3    H     H_    0.176630 0.510877 0.960164 0.173867
H4    H     H_    0.823512 0.489291 0.039921 0.173723
H5    H     H_    0.137869 0.588213 0.196889 0.163534
H6    H     H_    0.862271 0.411857 0.803216 0.163494
H7    H     H_    0.034610 0.144022 0.992083 0.161357
H8    H     H_    0.965142 0.856161 0.007622 0.161315
H9    H     H_    0.845350 0.428799 0.284502 0.175329
H10   H     H_    0.154645 0.571224 0.715476 0.175304
H11   H     H_    0.418663 0.193323 0.871427 0.118195
H12   H     H_    0.876128 0.710304 0.142935 0.131050
H13   H     H_    0.581255 0.806650 0.128557 0.118200
H14   H     H_    0.241280 0.088449 0.945830 0.151210
H15   H     H_    0.758650 0.911574 0.054219 0.151207
H16   H     H_    0.265834 0.021695 0.177716 0.172882
H17   H     H_    0.734128 0.978339 0.822338 0.172896
H18   H     H_    0.657502 0.144610 0.250087 0.170650
H19   H     H_    0.342455 0.855352 0.749858 0.170588
H20   H     H_    0.447599 0.850988 0.279697 0.179469
H21   H     H_    0.552365 0.149007 0.720308 0.179490
H22   H     H_    0.413610 0.423182 0.864755 0.135372
H23   H     H_    0.586386 0.576827 0.135247 0.135366
H24   H     H_    0.623575 0.615579 0.905261 0.214222
N1    N     N_2   0.447120 0.447110 0.150550 -0.334991
N2    N     N_2   0.552880 0.552890 0.849450 -0.334985
O1    O     O_R   0.517830 0.337490 0.617920 -0.501195
O2    O     O_R   0.482170 0.662510 0.382080 -0.501223
O3    O     O_R   0.482150 0.301790 0.382070 -0.490534
O4    O     O_R   0.517850 0.698210 0.617930 -0.490538
O5    O     O_R   0.337480 0.517860 0.617920 -0.505931
O6    O     O_R   0.662520 0.482140 0.382080 -0.505914
O7    O     O_R   0.301810 0.482160 0.382070 -0.493756
O8    O     O_R   0.698190 0.517840 0.617930 -0.493730

loop_
_geom_bond_atom_site_label_1
_geom_bond_atom_site_label_2
_ccdc_geom_bond_type
C24   H4    S    
C3    C42   A    
C27   C29   A    
C34   C37   A    
C1    O3    A    
C14   C18   A    
Cu1   O5    S    
C2    H17   S    
C15   C19   A    
C11   C19   A    
C17   C23   S    
C13   C18   A    
C24   C26   A    
C11   C14   A    
C2    C41   A    
C33   H1    S    
C40   H14   S    
Cu2   O7    S    
C17   O8    A    
Cu1   O8    S    
Cu2   O2    S    
C16   C34   S    
C27   C39   S    
C22   C25   A    
C12   O4    A    
C31   C33   A    
C20   H23   S    
C3    C19   S    
C1    C15   S    
C7    Cl1   S    
C37   H10   S    
C4    C18   S    
C40   C42   A    
C10   C41   A    
C26   H6    S    
C24   C35   A    
C34   C39   A    
C1    O1    A    
C32   C35   A    
H24   N2    S    
C36   H9    S    
H2    N1    S    
C5    C7    A    
C6    C8    A    
C21   N2    D    
C17   O6    A    
C29   Cl3   S    
C35   H12   S    
C9    H11   S    
Cu2   O3    S    
C2    C4    A    
C37   C38   A    
Cu1   Cu2   S    
C28   C38   S    
C4    C6    A    
C6    H19   S    
C12   C14   S    
C13   C15   A    
C12   O2    A    
C10   H13   S    
C41   H15   S    
C42   H16   S    
C11   H20   S    
C7    C9    A    
C22   C33   A    
Cu2   N1    S    
C30   Cl4   S    
C36   C39   A    
C8    Cl2   S    
Cu1   N2    S    
C25   H5    S    
C5    H18   S    
C3    C5    A    
C25   C27   A    
C23   C38   A    
C26   C28   A    
C21   H22   S    
C16   O5    A    
Cu2   O6    S    
C28   C30   A    
Cu1   O1    S    
C29   C31   A    
C30   C32   A    
C13   H21   S    
C16   O7    A    
C20   N1    D    
C9    C40   A    
C20   C21   S    
C8    C10   A    
C23   C36   A    
Cu1   O4    S    
C31   H7    S    
C32   H8    S    
C22   H3    S    
