data_mof_unit_3639.cif
_audit_creation_date              2012-12-10T18:45:08-0500
_audit_creation_method            fapswitch 2.2
_symmetry_space_group_name_H-M    P1
_symmetry_Int_Tables_number       1
_space_group_crystal_system       triclinic
_cell_length_a                    10.775275
_cell_length_b                    9.823093
_cell_length_c                    10.713057
_cell_angle_alpha                 89.564187
_cell_angle_beta                  89.357846
_cell_angle_gamma                 90.636239
_cell_volume                      1133.76487761

loop_
_atom_site_label
_atom_site_type_symbol
_atom_type_description
_atom_site_fract_x
_atom_site_fract_y
_atom_site_fract_z
_atom_type_partial_charge
C1    C     C_R   0.260460 0.499986 0.491653 0.933106
C2    C     C_R   0.501919 0.499590 0.739843 1.103247
C3    C     C_R   0.731199 0.580790 0.126175 0.567859
C4    C     C_R   0.733265 0.571907 0.867157 0.587276
C5    C     C_R   0.840554 0.614432 0.060418 0.042236
C6    C     C_R   0.842276 0.608878 0.929384 0.060260
C7    C     C_R   0.621946 0.538191 0.932854 -0.195348
C8    C     C_R   0.621280 0.541143 0.063859 -0.198514
C9    C     C_R   0.510479 0.501834 0.127892 -0.280398
C10   C     C_R   0.511017 0.498663 0.872027 -0.281102
C11   C     C_R   0.404195 0.459829 0.065496 0.508084
C12   C     C_R   0.740677 0.501647 0.499637 1.112863
C13   C     C_R   0.404360 0.458597 0.937703 0.499647
C14   C     C_R   0.062654 0.382060 0.504382 -0.194895
C15   C     C_R   0.935963 0.383738 0.507789 -0.247894
C16   C     C_R   0.874119 0.507300 0.496840 -0.028274
C17   C     C_R   0.128513 0.502177 0.479513 -0.059003
C18   C     C_3   0.952587 0.656209 0.134750 -0.735870
C19   C     C_3   0.959359 0.641291 0.855176 -0.770984
C20   C     C_3   0.881982 0.771408 0.494254 -0.831845
C21   C     C_3   0.134260 0.746157 0.390812 -0.840951
C22   C     C_R   0.940719 0.632192 0.478772 0.193760
C23   C     C_R   0.067335 0.625465 0.452581 0.152955
C24   C     C_R   0.568570 0.073545 0.413880 -0.059233
C25   C     C_R   0.431067 0.070467 0.585836 -0.063424
C26   C     C_R   0.568179 0.929544 0.413589 -0.072431
C27   C     C_R   0.431173 0.926444 0.585918 -0.073530
C28   C     C_R   0.502381 0.500583 0.260187 1.085403
F1    F     F_    0.299205 0.422501 0.129226 -0.647952
F2    F     F_    0.299386 0.420654 0.877158 -0.653381
F3    F     F_    0.734895 0.587219 0.251827 -0.716984
F4    F     F_    0.738090 0.567046 0.741922 -0.722427
H1    H     H_    0.108859 0.286477 0.521923 0.181576
H2    H     H_    0.947402 0.629880 0.753198 0.271713
H3    H     H_    0.988802 0.748194 0.871982 0.223799
H4    H     H_    0.034335 0.571106 0.883264 0.272832
H5    H     H_    0.826989 0.774739 0.582380 0.273704
H6    H     H_    0.951062 0.854834 0.504782 0.220700
H7    H     H_    0.823659 0.795457 0.412553 0.260306
H8    H     H_    0.203938 0.710577 0.321511 0.257660
H9    H     H_    0.070594 0.811104 0.336784 0.229884
H10   H     H_    0.179316 0.810673 0.462323 0.250685
H11   H     H_    0.886783 0.288275 0.523883 0.178761
H12   H     H_    0.623418 0.129433 0.345120 0.135837
H13   H     H_    0.375914 0.123925 0.654323 0.151713
H14   H     H_    0.622024 0.876138 0.344085 0.147464
H15   H     H_    0.376060 0.870520 0.654439 0.137251
H16   H     H_    0.977758 0.572168 0.199221 0.271641
H17   H     H_    0.035766 0.681794 0.077423 0.238456
H18   H     H_    0.928733 0.747617 0.189745 0.233701
N1    N     N_R   0.500000 0.857200 0.500000 -0.086616
N2    N     N_R   0.500000 0.142810 0.500000 -0.089201
O1    O     O_R   0.316770 0.614620 0.499990 -0.639810
O2    O     O_R   0.683230 0.614620 0.500010 -0.570083
O3    O     O_R   0.316800 0.385290 0.500000 -0.620804
O4    O     O_R   0.683200 0.385290 0.500000 -0.652658
O5    O     O_R   0.500010 0.614690 0.316770 -0.608409
O6    O     O_R   0.499990 0.614690 0.683230 -0.608409
O7    O     O_R   0.500040 0.385360 0.316770 -0.615430
O8    O     O_R   0.499960 0.385360 0.683230 -0.611619
Zn1   Zn    Zn3+2 0.500000 0.653120 0.500000 0.993453
Zn2   Zn    Zn3+2 0.500000 0.346880 0.500000 0.999646

loop_
_geom_bond_atom_site_label_1
_geom_bond_atom_site_label_2
_ccdc_geom_bond_type
C24   N2    A    
C7    C10   A    
C2    O6    A    
O5    Zn1   S    
C6    C19   S    
O2    Zn1   S    
C25   C27   A    
C20   H6    S    
C1    C17   S    
N1    Zn1   S    
C20   C22   S    
O6    Zn1   S    
C1    O3    A    
C25   N2    A    
C15   H11   S    
C7    C8    A    
C4    F4    S    
C28   O5    A    
C3    F3    S    
C20   H5    S    
C9    C11   A    
C14   C17   A    
C11   F1    S    
C12   O4    A    
C21   H8    S    
C17   C23   A    
C14   H1    S    
C4    C7    A    
C21   H9    S    
O8    Zn2   S    
C27   N1    A    
C10   C13   A    
C2    O8    A    
C19   H4    S    
C21   C23   S    
C5    C6    A    
C24   H12   S    
O4    Zn2   S    
C15   C16   A    
C26   H14   S    
C21   H10   S    
C2    C10   S    
O3    Zn2   S    
C25   H13   S    
C13   F2    S    
C11   C13   A    
C18   H18   S    
C4    C6    A    
C3    C8    A    
C28   O7    A    
C27   H15   S    
C19   H3    S    
C20   H7    S    
C1    O1    A    
C14   C15   A    
O7    Zn2   S    
C16   C22   A    
C5    C18   S    
C26   N1    A    
O1    Zn1   S    
C9    C28   S    
N2    Zn2   S    
C22   C23   A    
C12   O2    A    
C12   C16   S    
C18   H17   S    
C24   C26   A    
C8    C9    A    
C3    C5    A    
C19   H2    S    
C18   H16   S    
