data_mof_unit_42.cif
_audit_creation_date              2012-12-10T16:39:38-0500
_audit_creation_method            fapswitch 2.2
_symmetry_space_group_name_H-M    P1
_symmetry_Int_Tables_number       1
_space_group_crystal_system       triclinic
_cell_length_a                    16.98229
_cell_length_b                    16.724429
_cell_length_c                    16.879811
_cell_angle_alpha                 65.777076
_cell_angle_beta                  65.839933
_cell_angle_gamma                 65.864748
_cell_volume                      3818.17929287

loop_
_atom_site_label
_atom_site_type_symbol
_atom_type_description
_atom_site_fract_x
_atom_site_fract_y
_atom_site_fract_z
_atom_type_partial_charge
C1    C     C_R   0.313565 0.002757 0.433449 -0.024702
C2    C     C_R   0.312198 0.433492 0.004021 -0.025246
C3    C     C_R   0.547047 0.425515 0.966308 0.024166
C4    C     C_R   0.971857 0.468965 0.596182 0.030378
C5    C     C_R   0.972723 0.551068 0.414811 0.030582
C6    C     C_R   0.040469 0.675795 0.542847 -0.021655
C7    C     C_R   0.930849 0.331242 0.461301 -0.027760
C8    C     C_R   0.454463 0.990075 0.451939 -0.023008
C9    C     C_R   0.546051 0.008575 0.548446 -0.022923
C10   C     C_R   0.954615 0.465957 0.461605 -0.027933
C11   C     C_R   0.995420 0.551272 0.548064 -0.027764
C12   C     C_R   0.452446 0.451564 0.993302 -0.022787
C13   C     C_R   0.543661 0.546826 0.014624 -0.022624
C14   C     C_R   0.960384 0.179646 0.438440 0.944598
C15   C     C_R   0.686858 0.996278 0.566806 -0.024782
C16   C     C_R   0.036850 0.820387 0.561970 0.950868
C17   C     C_R   0.176100 0.430413 0.980207 0.977357
C18   C     C_R   0.823126 0.569125 0.021574 0.942131
C19   C     C_R   0.438186 0.961831 0.179349 0.923997
C20   C     C_R   0.561898 0.037998 0.820647 0.926790
C21   C     C_R   0.560916 0.820605 0.039945 0.923443
C22   C     C_R   0.438446 0.179480 0.961271 0.924530
C23   C     C_R   0.024143 0.567559 0.822495 0.970719
C24   C     C_R   0.961212 0.438319 0.179179 0.957153
C25   C     C_R   0.823852 0.020012 0.569358 0.951582
C26   C     C_R   0.937648 0.463394 0.326041 -0.023023
C27   C     C_R   0.176253 0.979728 0.430708 0.959122
C28   C     C_R   0.408525 0.979341 0.404811 0.068576
C29   C     C_R   0.591925 0.019527 0.595479 0.068225
C30   C     C_R   0.939926 0.420585 0.416588 0.065138
C31   C     C_R   0.015246 0.594116 0.591927 0.063148
C32   C     C_R   0.407010 0.405050 0.980879 0.069964
C33   C     C_R   0.589694 0.593575 0.026036 0.067450
C34   C     C_R   0.270593 0.976524 0.394126 -0.245538
C35   C     C_R   0.729655 0.022876 0.606011 -0.244024
C36   C     C_R   0.936012 0.410881 0.277995 -0.244462
C37   C     C_R   0.004912 0.557980 0.685938 -0.018584
C38   C     C_R   0.029357 0.600922 0.727477 -0.248115
C39   C     C_R   0.407440 0.278711 0.943277 -0.238606
C40   C     C_R   0.590876 0.721077 0.060310 -0.240098
C41   C     C_R   0.592712 0.054989 0.722069 -0.236912
C42   C     C_R   0.407525 0.944452 0.277988 -0.237089
C43   C     C_R   0.728139 0.604924 0.027290 -0.240629
C44   C     C_R   0.270055 0.394127 0.976768 -0.252098
C45   C     C_R   0.052215 0.721559 0.591246 -0.236027
C46   C     C_R   0.933582 0.280176 0.409740 -0.244944
C47   C     C_R   0.447995 0.080792 0.696515 -0.187602
C48   C     C_R   0.456066 0.328233 0.947534 -0.020147
C49   C     C_R   0.552429 0.918143 0.303679 -0.189236
C50   C     C_R   0.049982 0.709964 0.448270 -0.197299
C51   C     C_R   0.919588 0.296390 0.555768 -0.195390
C52   C     C_R   0.731915 0.497067 0.956093 -0.198462
C53   C     C_R   0.264147 0.500382 0.051856 -0.198094
C54   C     C_R   0.266072 0.050014 0.500485 -0.196803
C55   C     C_R   0.734456 0.948884 0.499842 -0.197283
C56   C     C_R   0.551115 0.303741 0.919495 -0.187497
C57   C     C_R   0.445847 0.695611 0.086795 -0.187581
C58   C     C_R   0.939055 0.556357 0.287000 -0.195824
C59   C     C_R   0.541202 0.671123 0.058076 -0.019454
C60   C     C_R   0.971459 0.480084 0.733614 -0.204161
C61   C     C_R   0.319339 0.944071 0.319448 0.531674
C62   C     C_R   0.680842 0.055455 0.680606 0.530183
C63   C     C_R   0.925486 0.323962 0.322787 0.535046
C64   C     C_R   0.059247 0.677247 0.677603 0.524338
C65   C     C_R   0.319402 0.320107 0.942759 0.537048
C66   C     C_R   0.679256 0.679522 0.060463 0.533935
C67   C     C_R   0.689484 0.938589 0.452493 0.106191
C68   C     C_R   0.311066 0.059967 0.547988 0.106361
C69   C     C_R   0.963710 0.431542 0.688680 0.106583
C70   C     C_R   0.543279 0.051757 0.672646 -0.019056
C71   C     C_R   0.965497 0.596194 0.326535 0.100789
C72   C     C_R   0.399812 0.645988 0.080356 0.105442
C73   C     C_R   0.596505 0.352006 0.928254 0.104904
C74   C     C_R   0.598311 0.923696 0.353637 0.104575
C75   C     C_R   0.402189 0.074892 0.646763 0.103608
C76   C     C_R   0.308810 0.547732 0.063125 0.107451
C77   C     C_R   0.686882 0.449019 0.946981 0.107975
C78   C     C_R   0.933939 0.340972 0.600552 0.106102
C79   C     C_R   0.022072 0.672714 0.407154 0.101838
C80   C     C_R   0.737863 0.898037 0.381474 -0.197870
C81   C     C_R   0.457103 0.947314 0.327524 -0.018039
C82   C     C_R   0.262674 0.100251 0.619171 -0.198346
C83   C     C_R   0.946183 0.346444 0.735814 -0.219658
C84   C     C_R   0.986376 0.679690 0.278575 -0.223438
C85   C     C_R   0.305298 0.668172 0.111664 -0.194516
C86   C     C_R   0.690895 0.327588 0.900076 -0.191023
C87   C     C_R   0.692781 0.891467 0.331995 -0.193883
C88   C     C_R   0.307739 0.106853 0.668602 -0.191873
C89   C     C_R   0.260271 0.618916 0.103971 -0.198361
C90   C     C_R   0.735384 0.375691 0.909657 -0.194217
C91   C     C_R   0.930512 0.301764 0.692357 -0.206854
C92   C     C_R   0.684713 0.564910 0.002366 -0.023757
C93   C     C_R   0.017555 0.716008 0.317488 -0.222147
C94   C     C_R   0.549179 0.961650 0.426810 0.025054
C95   C     C_R   0.451346 0.036916 0.573612 0.025038
C96   C     C_R   0.954410 0.424830 0.552451 0.026771
C97   C     C_R   0.996777 0.591723 0.456730 0.029293
C98   C     C_R   0.403389 0.524413 0.032231 0.028435
C99   C     C_R   0.592454 0.473477 0.976550 0.027530
C100  C     C_R   0.594890 0.970249 0.475514 0.028507
C101  C     C_R   0.405649 0.028308 0.524930 0.028594
C102  C     C_R   0.448966 0.572647 0.042130 0.024805
F1    F     F_    0.279684 0.917083 0.282854 -0.644721
F2    F     F_    0.720342 0.082785 0.717055 -0.646328
F3    F     F_    0.914669 0.278629 0.278609 -0.629033
F4    F     F_    0.088882 0.713334 0.715570 -0.629366
F5    F     F_    0.280412 0.283625 0.914763 -0.638650
F6    F     F_    0.719243 0.716780 0.086462 -0.645584
H1    H     H_    0.268616 0.137013 0.723975 0.156822
H2    H     H_    0.266124 0.723648 0.142109 0.152128
H3    H     H_    0.981747 0.715101 0.209891 0.141599
H4    H     H_    0.947088 0.313331 0.805692 0.132582
H5    H     H_    0.408925 0.112130 0.750987 0.177405
H6    H     H_    0.591441 0.887029 0.249035 0.176315
H7    H     H_    0.080006 0.764876 0.404656 0.185887
H8    H     H_    0.897593 0.235748 0.596300 0.186809
H9    H     H_    0.803608 0.481600 0.924129 0.158052
H10   H     H_    0.192105 0.515809 0.082621 0.171368
H11   H     H_    0.194131 0.081610 0.515819 0.172837
H12   H     H_    0.731917 0.861164 0.276717 0.153265
H13   H     H_    0.806450 0.917556 0.484411 0.172693
H14   H     H_    0.590371 0.249484 0.887485 0.174796
H15   H     H_    0.407065 0.750810 0.117609 0.174637
H16   H     H_    0.919335 0.600243 0.226368 0.189756
H17   H     H_    0.946481 0.455439 0.805959 0.168150
H18   H     H_    0.035727 0.779169 0.278406 0.143733
H19   H     H_    0.916853 0.236247 0.730166 0.143902
H20   H     H_    0.807821 0.354116 0.890414 0.134928
H21   H     H_    0.187290 0.637622 0.128564 0.147216
H22   H     H_    0.189712 0.125319 0.637686 0.146874
H23   H     H_    0.810823 0.872787 0.363080 0.149087
H24   H     H_    0.730351 0.270894 0.871345 0.149310
O1    O     O_R   0.982940 0.138950 0.510160 -0.671696
O2    O     O_R   0.982940 0.510160 0.138950 -0.680185
O3    O     O_R   0.861050 0.017060 0.489840 -0.653675
O4    O     O_R   0.138950 0.982940 0.510160 -0.652154
O5    O     O_R   0.867700 0.025880 0.612340 -0.560558
O6    O     O_R   0.132300 0.974120 0.387660 -0.556543
O7    O     O_R   0.025880 0.612340 0.867700 -0.551109
O8    O     O_R   0.974120 0.387660 0.132300 -0.550893
O9    O     O_R   0.612340 0.867700 0.025880 -0.557547
O10   O     O_R   0.387660 0.132300 0.974120 -0.556931
O11   O     O_R   0.387660 0.974120 0.132300 -0.557271
O12   O     O_R   0.017060 0.861050 0.489840 -0.675341
O13   O     O_R   0.612340 0.025880 0.867700 -0.557225
O14   O     O_R   0.132300 0.387660 0.974120 -0.548605
O15   O     O_R   0.867700 0.612340 0.025880 -0.564759
O16   O     O_R   0.974120 0.132300 0.387660 -0.546863
O17   O     O_R   0.025880 0.867700 0.612340 -0.551610
O18   O     O_R   0.138950 0.510160 0.982940 -0.650891
O19   O     O_R   0.861050 0.489840 0.017060 -0.663814
O20   O     O_R   0.510160 0.982940 0.138950 -0.647602
O21   O     O_R   0.489840 0.017060 0.861050 -0.647241
O22   O     O_R   0.489840 0.861050 0.017060 -0.645483
O23   O     O_R   0.510160 0.138950 0.982940 -0.647173
O24   O     O_R   0.017060 0.489840 0.861050 -0.671799
Zn1   Zn    Zn3+2 0.004880 0.004880 0.583590 1.010343
Zn2   Zn    Zn3+2 0.995120 0.995120 0.416410 1.014022
Zn3   Zn    Zn3+2 0.004880 0.583590 0.004880 1.007337
Zn4   Zn    Zn3+2 0.995120 0.416410 0.995120 1.017195
Zn5   Zn    Zn3+2 0.583590 0.004880 0.004880 1.019587
Zn6   Zn    Zn3+2 0.416410 0.995120 0.995120 1.023231

loop_
_geom_bond_atom_site_label_1
_geom_bond_atom_site_label_2
_ccdc_geom_bond_type
C55   H13   S    
O9    Zn5   S    
C6    C45   A    
C15   C29   A    
C32   C48   A    
C74   C94   A    
C17   O18   A    
C48   C56   A    
O15   Zn3   S    
C50   C79   A    
C72   C85   A    
C75   C95   A    
C14   C46   S    
O23   Zn5   S    
C24   C36   S    
C91   H19   S    
C27   O4    A    
C23   O7    A    
C60   H17   S    
C16   O12   A    
C35   C62   A    
C79   C93   A    
C80   C87   A    
C58   C71   A    
C57   C59   A    
O14   Zn4   S    
C76   C98   A    
C14   O16   A    
C89   H21   S    
C2    C32   A    
C50   H7    S    
C49   C81   A    
O6    Zn2   S    
C93   H18   S    
C3    C12   A    
C4    C96   A    
C78   C96   A    
C1    C28   A    
C21   O22   A    
C77   C99   A    
C16   O17   A    
C10   C96   A    
C74   C87   A    
C63   F3    S    
C36   C63   A    
C8    C101  A    
C9    C95   A    
O11   Zn6   S    
C12   C98   A    
O20   Zn5   S    
C19   C42   S    
C9    C29   A    
C76   C89   A    
C52   H9    S    
O2    Zn3   S    
C11   C31   A    
C33   C59   A    
C40   C59   A    
C40   C66   A    
C54   H11   S    
C12   C32   A    
C39   C65   A    
C44   C65   A    
C42   C81   A    
C41   C62   A    
C3    C73   A    
C15   C35   A    
C4    C69   A    
C79   C97   A    
C1    C34   A    
C20   C41   S    
C38   C64   A    
C22   O23   A    
C27   C34   S    
C77   C90   A    
C84   H3    S    
O18   Zn3   S    
C27   O6    A    
C7    C46   A    
O24   Zn4   S    
C8    C94   A    
C68   C101  A    
C72   C102  A    
C80   H23   S    
C18   O15   A    
C20   O21   A    
C33   C92   A    
C2    C44   A    
C85   C89   A    
C53   H10   S    
C18   O19   A    
C98   C102  A    
C62   F2    S    
C24   O8    A    
C31   C37   A    
C56   H14   S    
C13   C99   A    
C25   O5    A    
C1    C54   A    
C83   H4    S    
C47   C70   A    
C13   C33   A    
C37   C38   A    
C69   C83   A    
C57   H15   S    
C10   C30   A    
C94   C100  A    
C22   O10   A    
C19   O20   A    
O16   Zn2   S    
C6    C50   A    
C4    C11   A    
C64   F4    S    
C26   C58   A    
C42   C61   A    
C67   C100  A    
C25   C35   S    
O4    Zn1   S    
C26   C36   A    
C5    C97   A    
C85   H2    S    
C9    C100  A    
C86   C90   A    
C8    C28   A    
C52   C92   A    
C53   C76   A    
C82   H22   S    
C88   H1    S    
O12   Zn2   S    
C52   C77   A    
C71   C84   A    
C7    C51   A    
C24   O2    A    
C47   H5    S    
C19   O11   A    
C56   C73   A    
C61   F1    S    
C28   C81   A    
C49   C74   A    
O22   Zn6   S    
C67   C80   A    
C51   H8    S    
C66   F6    S    
C47   C75   A    
C2    C53   A    
C16   C45   S    
O10   Zn6   S    
C55   C67   A    
C26   C30   A    
C14   O1    A    
C78   C91   A    
C23   C38   S    
C83   C91   A    
O21   Zn6   S    
C45   C64   A    
C58   H16   S    
C43   C92   A    
O5    Zn1   S    
C46   C63   A    
C11   C97   A    
C68   C82   A    
O19   Zn4   S    
C17   O14   A    
C17   C44   S    
C21   O9    A    
C5    C10   A    
C5    C71   A    
C18   C43   S    
O8    Zn4   S    
C49   H6    S    
C86   H24   S    
C21   C40   S    
O13   Zn5   S    
C60   C69   A    
C43   C66   A    
C82   C88   A    
C22   C39   S    
C6    C31   A    
C29   C70   A    
O1    Zn1   S    
C84   C93   A    
C34   C61   A    
C57   C72   A    
C25   O3    A    
C73   C86   A    
C51   C78   A    
C37   C60   A    
O7    Zn3   S    
C3    C99   A    
C75   C88   A    
C87   H12   S    
C54   C68   A    
C7    C30   A    
O3    Zn2   S    
C90   H20   S    
C20   O13   A    
C41   C70   A    
C13   C102  A    
C23   O24   A    
O17   Zn1   S    
C65   F5    S    
C95   C101  A    
C15   C55   A    
C39   C48   A    
