data_mof_unit_2030.cif
_audit_creation_date              2012-10-26T21:33:24-0400
_audit_creation_method            fapswitch 2.2
_symmetry_space_group_name_H-M    P1
_symmetry_Int_Tables_number       1
_space_group_crystal_system       triclinic
_cell_length_a                    28.18253
_cell_length_b                    18.467265
_cell_length_c                    17.105075
_cell_angle_alpha                 90.251819
_cell_angle_beta                  60.726283
_cell_angle_gamma                 90.411417
_cell_volume                      7765.3108385

loop_
_atom_site_label
_atom_site_type_symbol
_atom_type_description
_atom_site_fract_x
_atom_site_fract_y
_atom_site_fract_z
_atom_type_partial_charge
C1    C     C_R   0.701365 0.267282 0.676258 0.903192
C2    C     C_R   0.094086 0.501304 0.518226 0.070104
C3    C     C_R   0.188844 0.221157 0.906590 -0.008007
C4    C     C_R   0.074976 0.098617 0.933160 0.924422
C5    C     C_R   0.925024 0.901382 0.066840 0.924422
C6    C     C_R   0.925013 0.098476 0.066985 0.922924
C7    C     C_R   0.074987 0.901524 0.933015 0.922924
C8    C     C_R   0.574976 0.598618 0.933160 0.924422
C9    C     C_R   0.425023 0.401382 0.066840 0.924423
C10   C     C_R   0.425013 0.598476 0.066985 0.922924
C11   C     C_R   0.574987 0.401524 0.933015 0.922925
C12   C     C_R   0.522866 0.119852 0.579336 0.112168
C13   C     C_R   0.405914 0.998696 0.481774 0.070104
C14   C     C_R   0.477134 0.880148 0.420664 0.112168
C15   C     C_R   0.427425 0.116863 0.565027 0.105490
C16   C     C_R   0.572575 0.883137 0.434973 0.105490
C17   C     C_R   0.022866 0.619851 0.579336 0.112168
C18   C     C_R   0.977134 0.380148 0.420664 0.112168
C19   C     C_R   0.927425 0.616863 0.565027 0.105490
C20   C     C_R   0.072575 0.383137 0.434973 0.105490
C21   C     C_R   0.485644 0.177037 0.613587 -0.197296
C22   C     C_R   0.514356 0.822963 0.386413 -0.197297
C23   C     C_R   0.438068 0.175287 0.607135 -0.199269
C24   C     C_R   0.594086 0.001304 0.518226 0.070104
C25   C     C_R   0.561932 0.824713 0.392865 -0.199269
C26   C     C_R   0.985644 0.677037 0.613587 -0.197298
C27   C     C_R   0.014356 0.322963 0.386413 -0.197298
C28   C     C_R   0.938068 0.675287 0.607135 -0.199270
C29   C     C_R   0.061932 0.324713 0.392865 -0.199269
C30   C     C_R   0.464088 0.058844 0.531441 0.034285
C31   C     C_R   0.535912 0.941156 0.468559 0.034285
C32   C     C_R   0.511518 0.059978 0.539490 0.030163
C33   C     C_R   0.488482 0.940022 0.460509 0.030163
C34   C     C_R   0.964088 0.558844 0.531441 0.034284
C35   C     C_R   0.118903 0.383874 0.445054 -0.237287
C36   C     C_R   0.035912 0.441156 0.468559 0.034285
C37   C     C_R   0.011517 0.559978 0.539491 0.030163
C38   C     C_R   0.988482 0.440022 0.460509 0.030163
C39   C     C_R   0.952763 0.499086 0.491463 -0.048216
C40   C     C_R   0.047237 0.500914 0.508537 -0.048215
C41   C     C_R   0.452763 0.999086 0.491462 -0.048215
C42   C     C_R   0.547237 0.000914 0.508537 -0.048215
C43   C     C_R   0.892052 0.436704 0.448428 0.062403
C44   C     C_R   0.107948 0.563296 0.551572 0.062403
C45   C     C_R   0.127924 0.440137 0.492954 0.047355
C46   C     C_R   0.881097 0.616125 0.554946 -0.237288
C47   C     C_R   0.872076 0.559863 0.507046 0.047354
C48   C     C_R   0.392052 0.936704 0.448428 0.062403
C49   C     C_R   0.607948 0.063296 0.551572 0.062403
C50   C     C_R   0.627924 0.940137 0.492954 0.047354
C51   C     C_R   0.372076 0.059863 0.507046 0.047354
C52   C     C_R   0.841296 0.435838 0.449425 -0.117541
C53   C     C_R   0.158704 0.564162 0.550575 -0.117541
C54   C     C_R   0.169545 0.438076 0.517173 -0.112638
C55   C     C_R   0.830455 0.561924 0.482826 -0.112638
C56   C     C_R   0.341296 0.935838 0.449425 -0.117540
C57   C     C_R   0.928835 0.378364 0.415845 -0.227739
C58   C     C_R   0.658704 0.064161 0.550575 -0.117540
C59   C     C_R   0.669545 0.938076 0.517173 -0.112639
C60   C     C_R   0.330455 0.061924 0.482826 -0.112638
C61   C     C_R   0.815160 0.499882 0.455841 -0.274695
C62   C     C_R   0.184840 0.500118 0.544159 -0.274695
C63   C     C_R   0.315160 0.999882 0.455841 -0.274693
C64   C     C_R   0.684840 0.000118 0.544158 -0.274693
C65   C     C_R   0.071165 0.621636 0.584155 -0.227738
C66   C     C_R   0.618903 0.883874 0.445054 -0.237287
C67   C     C_R   0.381097 0.116126 0.554946 -0.237286
C68   C     C_R   0.428835 0.878364 0.415845 -0.227737
C69   C     C_R   0.298635 0.732718 0.323742 0.903192
C70   C     C_R   0.571165 0.121636 0.584155 -0.227737
C71   C     C_R   0.719221 0.264881 0.956542 0.141058
C72   C     C_R   0.280779 0.735119 0.043457 0.141047
C73   C     C_R   0.279760 0.262996 0.045771 0.156588
C74   C     C_R   0.720240 0.737004 0.954229 0.156589
C75   C     C_R   0.219223 0.764885 0.956542 0.141049
C76   C     C_R   0.780775 0.235112 0.043460 0.141060
C77   C     C_R   0.779760 0.762997 0.045771 0.156589
C78   C     C_R   0.220240 0.237004 0.954229 0.156588
C79   C     C_R   0.721521 0.194288 0.984949 -0.087759
C80   C     C_R   0.299035 0.266442 0.323598 0.914498
C81   C     C_R   0.278463 0.805717 0.015077 -0.087741
C82   C     C_R   0.223381 0.275681 0.088057 -0.105996
C83   C     C_R   0.776618 0.724319 0.911943 -0.105996
C84   C     C_R   0.221539 0.694287 0.984921 -0.087743
C85   C     C_R   0.778475 0.305705 0.015054 -0.087762
C86   C     C_R   0.723381 0.775682 0.088057 -0.105996
C87   C     C_R   0.276618 0.224320 0.911943 -0.105995
C88   C     C_R   0.752196 0.179519 0.027504 -0.165434
C89   C     C_R   0.247786 0.820484 0.972525 -0.165458
C90   C     C_R   0.193883 0.262268 0.043055 -0.173526
C91   C     C_R   0.700965 0.733558 0.676402 0.914498
C92   C     C_R   0.806117 0.737732 0.956945 -0.173524
C93   C     C_R   0.252216 0.679520 0.027474 -0.165461
C94   C     C_R   0.747800 0.320474 0.972499 -0.165438
C95   C     C_R   0.693883 0.762269 0.043055 -0.173524
C96   C     C_R   0.306117 0.237732 0.956945 -0.173527
C97   C     C_R   0.645017 0.328904 0.944920 -0.261450
C98   C     C_R   0.354984 0.671098 0.055080 -0.261450
C99   C     C_R   0.355120 0.326999 0.055307 -0.267953
C100  C     C_R   0.644880 0.673001 0.944693 -0.267952
C101  C     C_R   0.145017 0.828904 0.944920 -0.261450
C102  C     C_R   0.201366 0.767283 0.676257 0.903194
C103  C     C_R   0.854981 0.171093 0.055081 -0.261450
C104  C     C_R   0.855119 0.827000 0.055307 -0.267953
C105  C     C_R   0.144880 0.173001 0.944693 -0.267952
C106  C     C_R   0.617841 0.348591 0.897410 -0.061151
C107  C     C_R   0.382160 0.651410 0.102589 -0.061151
C108  C     C_R   0.382277 0.347945 0.102583 -0.062831
C109  C     C_R   0.617722 0.652055 0.897417 -0.062831
C110  C     C_R   0.117840 0.848591 0.897411 -0.061150
C111  C     C_R   0.882159 0.151408 0.102590 -0.061150
C112  C     C_R   0.882277 0.847945 0.102583 -0.062831
C113  C     C_R   0.798634 0.232717 0.323742 0.903192
C114  C     C_R   0.117723 0.152055 0.897417 -0.062832
C115  C     C_R   0.634066 0.321986 0.813161 -0.318730
C116  C     C_R   0.365934 0.678015 0.186839 -0.318730
C117  C     C_R   0.365932 0.322393 0.187202 -0.311873
C118  C     C_R   0.634068 0.677607 0.812798 -0.311873
C119  C     C_R   0.134066 0.821985 0.813161 -0.318732
C120  C     C_R   0.865933 0.178014 0.186839 -0.318733
C121  C     C_R   0.865932 0.822393 0.187202 -0.311874
C122  C     C_R   0.134068 0.177607 0.812798 -0.311874
C123  C     C_R   0.678910 0.278154 0.772349 -0.136051
C124  C     C_R   0.799035 0.766442 0.323598 0.914497
C125  C     C_R   0.321090 0.721846 0.227651 -0.136046
C126  C     C_R   0.321678 0.277066 0.227712 -0.132683
C127  C     C_R   0.678322 0.722933 0.772288 -0.132684
C128  C     C_R   0.178911 0.778156 0.772348 -0.136046
C129  C     C_R   0.821088 0.221843 0.227652 -0.136051
C130  C     C_R   0.821678 0.777067 0.227712 -0.132684
C131  C     C_R   0.178322 0.222934 0.772288 -0.132683
C132  C     C_R   0.705199 0.253365 0.821152 0.380236
C133  C     C_R   0.294801 0.746636 0.178848 0.380227
C134  C     C_R   0.295758 0.250578 0.178977 0.364579
C135  C     C_R   0.200965 0.233558 0.676402 0.914498
C136  C     C_R   0.704242 0.749422 0.821023 0.364579
C137  C     C_R   0.205202 0.753369 0.821151 0.380229
C138  C     C_R   0.794797 0.246628 0.178850 0.380238
C139  C     C_R   0.795757 0.750579 0.178977 0.364579
C140  C     C_R   0.204242 0.249422 0.821023 0.364579
C141  C     C_R   0.691024 0.129650 0.535971 0.881984
C142  C     C_R   0.308976 0.870349 0.464029 0.881984
C143  C     C_R   0.303198 0.127730 0.482820 0.897251
C144  C     C_R   0.696802 0.872270 0.517180 0.897251
C145  C     C_R   0.191024 0.629650 0.535971 0.881984
C146  C     C_R   0.905913 0.498696 0.481774 0.070104
C147  C     C_R   0.808976 0.370349 0.464029 0.881984
C148  C     C_R   0.803198 0.627730 0.482820 0.897251
C149  C     C_R   0.196802 0.372270 0.517180 0.897251
C150  C     C_R   0.688600 0.280744 0.907730 -0.017032
C151  C     C_R   0.311401 0.719258 0.092269 -0.017021
C152  C     C_R   0.311155 0.278843 0.093410 -0.008006
C153  C     C_R   0.688844 0.721157 0.906590 -0.008008
C154  C     C_R   0.188601 0.780746 0.907730 -0.017022
C155  C     C_R   0.811397 0.219250 0.092272 -0.017033
C156  C     C_R   0.811155 0.778844 0.093410 -0.008007
Cl1   Cl    Cl    0.759769 0.190767 0.775957 -0.597463
Cl2   Cl    Cl    0.240229 0.809231 0.224046 -0.597478
Cl3   Cl    Cl    0.247158 0.179162 0.219683 -0.611404
Cl4   Cl    Cl    0.752841 0.820838 0.780317 -0.611401
Cl5   Cl    Cl    0.259777 0.690780 0.775950 -0.597478
Cl6   Cl    Cl    0.740222 0.309217 0.224049 -0.597462
Cl7   Cl    Cl    0.747158 0.679163 0.219683 -0.611404
Cl8   Cl    Cl    0.252841 0.320839 0.780317 -0.611406
H1    H     H_    0.089951 0.279756 0.366293 0.161483
H2    H     H_    0.219905 0.499653 0.554395 0.207485
H3    H     H_    0.280095 0.000347 0.445605 0.207485
H4    H     H_    0.719905 0.999653 0.554395 0.207485
H5    H     H_    0.148036 0.340955 0.413185 0.180369
H6    H     H_    0.851964 0.659045 0.586815 0.180369
H7    H     H_    0.921218 0.332621 0.383612 0.160589
H8    H     H_    0.078782 0.667379 0.616388 0.160589
H9    H     H_    0.648036 0.840955 0.413185 0.180369
H10   H     H_    0.351964 0.159045 0.586815 0.180369
H11   H     H_    0.421218 0.832621 0.383612 0.160589
H12   H     H_    0.910049 0.720244 0.633707 0.161483
H13   H     H_    0.578782 0.167379 0.616388 0.160589
H14   H     H_    0.746903 0.375246 0.950892 0.146409
H15   H     H_    0.253126 0.624745 0.049057 0.146412
H16   H     H_    0.349477 0.227690 0.922734 0.140653
H17   H     H_    0.650523 0.772311 0.077266 0.140653
H18   H     H_    0.246875 0.875259 0.950942 0.146412
H19   H     H_    0.753093 0.124747 0.049110 0.146409
H20   H     H_    0.849477 0.727690 0.922735 0.140653
H21   H     H_    0.150523 0.272310 0.077266 0.140653
H22   H     H_    0.699664 0.150567 0.973874 0.162959
H23   H     H_    0.006604 0.276780 0.354902 0.146383
H24   H     H_    0.300308 0.849443 0.026172 0.162980
H25   H     H_    0.202214 0.296490 0.155930 0.149923
H26   H     H_    0.797786 0.703509 0.844071 0.149922
H27   H     H_    0.199694 0.650561 0.973826 0.162977
H28   H     H_    0.800332 0.349426 0.026129 0.162955
H29   H     H_    0.702213 0.796492 0.155930 0.149922
H30   H     H_    0.297786 0.203510 0.844070 0.149923
H31   H     H_    0.632791 0.351588 0.010572 0.181738
H32   H     H_    0.367211 0.648414 0.989427 0.181734
H33   H     H_    0.367026 0.349784 0.989945 0.176780
H34   H     H_    0.993396 0.723220 0.645098 0.146383
H35   H     H_    0.632974 0.650217 0.010055 0.176780
H36   H     H_    0.132789 0.851587 0.010573 0.181734
H37   H     H_    0.867208 0.148409 0.989428 0.181738
H38   H     H_    0.867025 0.849784 0.989946 0.176780
H39   H     H_    0.132974 0.150216 0.010055 0.176780
H40   H     H_    0.613626 0.339476 0.776827 0.192857
H41   H     H_    0.386374 0.660525 0.223173 0.192857
H42   H     H_    0.386053 0.341272 0.223786 0.196091
H43   H     H_    0.613947 0.658728 0.776213 0.196091
H44   H     H_    0.113626 0.839474 0.776828 0.192857
H45   H     H_    0.589951 0.779756 0.366293 0.161484
H46   H     H_    0.886374 0.160526 0.223172 0.192857
H47   H     H_    0.886053 0.841271 0.223786 0.196091
H48   H     H_    0.113947 0.158728 0.776214 0.196091
H49   H     H_    0.410049 0.220244 0.633707 0.161483
H50   H     H_    0.506604 0.776780 0.354902 0.146383
H51   H     H_    0.493396 0.223220 0.645098 0.146383
H52   H     H_    0.780095 0.500347 0.445605 0.207485
O1    O     O_R   0.746490 0.236330 0.638080 -0.556977
O2    O     O_R   0.325830 0.813840 0.483730 -0.628604
O3    O     O_R   0.325830 0.186160 0.483730 -0.639783
O4    O     O_R   0.674170 0.813840 0.516270 -0.639783
O5    O     O_R   0.174170 0.686160 0.516270 -0.628605
O6    O     O_R   0.825830 0.313840 0.483730 -0.628606
O7    O     O_R   0.825830 0.686160 0.483730 -0.639783
O8    O     O_R   0.174170 0.313840 0.516270 -0.639783
O9    O     O_R   0.739960 0.127620 0.525000 -0.616159
O10   O     O_R   0.260040 0.872380 0.475000 -0.616159
O11   O     O_R   0.260040 0.127620 0.475000 -0.618013
O12   O     O_R   0.253510 0.763670 0.361920 -0.556973
O13   O     O_R   0.739960 0.872380 0.525000 -0.618013
O14   O     O_R   0.239960 0.627620 0.525000 -0.616160
O15   O     O_R   0.760040 0.372380 0.475000 -0.616160
O16   O     O_R   0.760040 0.627620 0.475000 -0.618014
O17   O     O_R   0.239960 0.372380 0.525000 -0.618014
O18   O     O_R   0.680700 0.294870 0.629350 -0.646367
O19   O     O_R   0.319300 0.705130 0.370650 -0.646369
O20   O     O_R   0.319300 0.294870 0.370650 -0.638811
O21   O     O_R   0.680700 0.705130 0.629350 -0.638811
O22   O     O_R   0.180700 0.794870 0.629350 -0.646368
O23   O     O_R   0.253510 0.236330 0.361920 -0.579143
O24   O     O_R   0.819300 0.205130 0.370650 -0.646367
O25   O     O_R   0.819300 0.794870 0.370650 -0.638811
O26   O     O_R   0.180700 0.205130 0.629350 -0.638811
O27   O     O_R   0.062020 0.072840 0.007170 -0.626584
O28   O     O_R   0.937980 0.927160 0.992830 -0.626584
O29   O     O_R   0.937980 0.072840 0.992830 -0.624231
O30   O     O_R   0.062020 0.927160 0.007170 -0.624231
O31   O     O_R   0.562020 0.572840 0.007170 -0.626585
O32   O     O_R   0.437980 0.427160 0.992830 -0.626585
O33   O     O_R   0.437980 0.572840 0.992830 -0.624231
O34   O     O_R   0.746490 0.763670 0.638080 -0.579143
O35   O     O_R   0.562020 0.427160 0.007170 -0.624231
O36   O     O_R   0.947860 0.073950 0.109290 -0.625490
O37   O     O_R   0.052140 0.926050 0.890710 -0.625490
O38   O     O_R   0.052140 0.073950 0.890710 -0.623244
O39   O     O_R   0.947860 0.926050 0.109290 -0.623244
O40   O     O_R   0.447860 0.573950 0.109290 -0.625490
O41   O     O_R   0.552140 0.426050 0.890710 -0.625490
O42   O     O_R   0.552140 0.573950 0.890710 -0.623244
O43   O     O_R   0.447860 0.426050 0.109290 -0.623244
O44   O     O_R   0.246490 0.736330 0.638080 -0.556973
O45   O     O_R   0.753510 0.263670 0.361920 -0.556976
O46   O     O_R   0.753510 0.736330 0.361920 -0.579143
O47   O     O_R   0.246490 0.263670 0.638080 -0.579143
O48   O     O_R   0.674170 0.186160 0.516270 -0.628604
Zn1   Zn    Zn3+2 0.792340 0.208750 0.507670 1.028141
Zn2   Zn    Zn3+2 0.494040 0.500000 0.919480 0.961064
Zn3   Zn    Zn3+2 0.005960 0.000000 0.080520 0.961064
Zn4   Zn    Zn3+2 0.994040 0.000000 0.919480 0.961065
Zn5   Zn    Zn3+2 0.207660 0.791250 0.492330 1.028143
Zn6   Zn    Zn3+2 0.207660 0.208750 0.492330 1.015809
Zn7   Zn    Zn3+2 0.792340 0.791250 0.507670 1.015809
Zn8   Zn    Zn3+2 0.292340 0.708750 0.507670 1.028144
Zn9   Zn    Zn3+2 0.707660 0.291250 0.492330 1.028142
Zn10  Zn    Zn3+2 0.707660 0.708750 0.492330 1.015809
Zn11  Zn    Zn3+2 0.292340 0.291250 0.507670 1.015808
Zn12  Zn    Zn3+2 0.505960 0.500000 0.080520 0.961066

loop_
_geom_bond_atom_site_label_1
_geom_bond_atom_site_label_2
_ccdc_geom_bond_type
C100  C153  A    
C138  C155  A    
C30   C32   A    
C145  O14   A    
C77   C92   A    
C135  O47   A    
C79   H22   S    
C123  C132  A    
C27   C29   A    
C34   C37   A    
C132  C150  A    
C6    C111  S    
C80   O20   A    
C6    O29   A    
O21   Zn10  S    
C133  C151  A    
O42   Zn2   S    
C4    O38   A    
C121  C130  A    
C53   C145  S    
C14   C33   A    
C71   C79   A    
C93   H15   S    
C101  H36   S    
C71   C94   A    
C26   C28   A    
C3    C105  A    
C16   C31   A    
C83   C92   A    
C7    O30   A    
O38   Zn4   S    
C59   C64   A    
O18   Zn9   S    
C113  C129  S    
O24   Zn1   S    
C60   C63   A    
C10   O40   A    
C17   C26   A    
C11   O41   A    
C80   O23   A    
C4    C114  S    
C31   C42   A    
C148  O7    A    
O27   Zn3   S    
C43   C52   A    
C144  O4    A    
C37   C40   A    
C131  C135  S    
C52   C61   A    
C77   C156  S    
C38   C39   A    
C18   C57   A    
C75   C84   A    
C105  H39   S    
C71   C150  S    
O32   Zn2   S    
C67   H10   S    
C127  C136  A    
O17   Zn11  S    
C134  C152  A    
C16   C25   A    
C24   C42   A    
O15   Zn9   S    
C84   H27   S    
C103  C111  A    
C133  Cl2   S    
C94   H14   S    
C29   H1    S    
C34   C39   A    
C9    O32   A    
C142  O2    A    
C124  O25   A    
C131  C140  A    
C83   H26   S    
O12   Zn5   S    
C13   C51   A    
C20   C35   A    
C147  O15   A    
C44   C53   A    
C113  O24   A    
C76   C85   A    
C129  C138  A    
C119  H44   S    
C8    O31   A    
C2    C44   A    
C10   C107  S    
C22   C25   A    
C69   O19   A    
C97   C150  A    
C31   C33   A    
C30   C41   A    
C148  O16   A    
C61   H52   S    
C117  C126  A    
C76   C88   A    
C4    O27   A    
C116  H41   S    
C20   C29   A    
C56   C142  S    
C119  C128  A    
C15   C23   A    
C134  Cl3   S    
C47   C146  A    
C69   C125  S    
C100  C109  A    
C2    C45   A    
C21   H51   S    
C12   C32   A    
C58   C64   A    
C99   H33   S    
C44   C65   A    
O34   Zn7   S    
C130  C139  A    
C74   C95   A    
O9    Zn1   S    
C79   C88   A    
C68   H11   S    
C109  C118  A    
C142  O10   A    
C54   C149  S    
C98   C151  A    
O37   Zn4   S    
C120  H46   S    
O46   Zn10  S    
C102  O22   A    
C115  C123  A    
C18   C27   A    
C65   H8    S    
O4    Zn10  S    
C120  C129  A    
C74   C83   A    
O16   Zn10  S    
C105  C114  A    
C36   C40   A    
O35   Zn12  S    
C138  Cl6   S    
C117  H42   S    
C92   H20   S    
C85   H28   S    
C104  C112  A    
O6    Zn1   S    
C43   C57   A    
C28   H12   S    
C88   H19   S    
C113  O45   A    
C54   C62   A    
C101  C110  A    
C18   C38   A    
O8    Zn6   S    
C12   C21   A    
C11   O35   A    
C98   C107  A    
C46   H6    S    
C74   C153  S    
C111  C120  A    
C9    C108  S    
C104  H38   S    
O33   Zn2   S    
O44   Zn8   S    
O22   Zn5   S    
C128  C137  A    
C1    C123  S    
O7    Zn7   S    
C99   C108  A    
C2    C40   A    
C141  O9    A    
C107  C116  A    
C85   C94   A    
C144  O13   A    
O36   Zn3   S    
C124  O46   A    
C1    O18   A    
C72   C151  S    
C15   C67   A    
C87   C96   A    
C91   O21   A    
C11   C106  S    
O3    Zn11  S    
C56   C63   A    
C98   H32   S    
O43   Zn12  S    
C66   H9    S    
C27   H23   S    
C96   H16   S    
C25   H45   S    
C19   C28   A    
C50   C66   A    
C24   C50   A    
C147  O6    A    
C91   C127  S    
C115  H40   S    
C72   C93   A    
C103  C155  A    
C149  O8    A    
C39   C146  A    
C77   C86   A    
C52   C147  S    
O47   Zn11  S    
C116  C125  A    
C9    O43   A    
C73   C152  S    
C14   C22   A    
C101  C154  A    
O1    Zn1   S    
C122  H48   S    
C104  C156  A    
O29   Zn4   S    
C16   C66   A    
C49   C58   A    
C50   C59   A    
C21   C23   A    
O30   Zn3   S    
C35   C45   A    
C69   O12   A    
O26   Zn6   S    
C122  C131  A    
C59   C144  S    
O5    Zn5   S    
C135  O26   A    
C15   C30   A    
C47   C55   A    
C23   H49   S    
C125  C133  A    
C24   C49   A    
C48   C56   A    
C12   C70   A    
C46   C47   A    
C132  Cl1   S    
C32   C42   A    
O10   Zn5   S    
C81   H24   S    
O23   Zn6   S    
C62   H2    S    
C139  Cl7   S    
C17   C65   A    
C108  C117  A    
C95   H17   S    
O41   Zn2   S    
C72   C81   A    
C87   H30   S    
C143  O11   A    
C48   C68   A    
C19   C34   A    
C110  C119  A    
C45   C54   A    
C13   C48   A    
C19   C46   A    
C82   H25   S    
C70   H13   S    
C13   C41   A    
C51   C60   A    
C90   H21   S    
C17   C37   A    
C140  Cl8   S    
C5    C112  S    
C99   C152  A    
C76   C155  S    
C102  C128  S    
O48   Zn9   S    
C82   C90   A    
C7    C110  S    
C6    O36   A    
C106  C115  A    
C49   C70   A    
C10   O33   A    
C33   C41   A    
C89   H18   S    
O20   Zn11  S    
C22   H50   S    
C118  H43   S    
O19   Zn8   S    
C81   C89   A    
C103  H37   S    
C86   H29   S    
C43   C146  A    
C145  O5    A    
C8    C109  S    
C124  C130  S    
C36   C38   A    
C137  Cl5   S    
C136  C153  A    
O13   Zn7   S    
C58   C141  S    
C97   H31   S    
C55   C148  S    
C51   C67   A    
C80   C126  S    
C139  C156  A    
C78   C90   A    
C35   H5    S    
C55   C61   A    
C75   C154  S    
C63   H3    S    
C141  O48   A    
C102  O44   A    
C73   C82   A    
O14   Zn8   S    
C78   C87   A    
C84   C93   A    
C121  H47   S    
C5    O28   A    
C8    O42   A    
C5    O39   A    
C26   H34   S    
O11   Zn6   S    
C149  O17   A    
C60   C143  S    
O2    Zn8   S    
C86   C95   A    
C75   C89   A    
C143  O3    A    
C114  C122  A    
C100  H35   S    
O25   Zn7   S    
C112  C121  A    
O45   Zn9   S    
C126  C134  A    
C53   C62   A    
C64   H4    S    
C118  C127  A    
C20   C36   A    
C14   C68   A    
O39   Zn3   S    
O40   Zn12  S    
C1    O1    A    
C3    C140  A    
C7    O37   A    
C73   C96   A    
O28   Zn4   S    
O31   Zn12  S    
C3    C78   S    
C137  C154  A    
C136  Cl4   S    
C57   H7    S    
C91   O34   A    
C97   C106  A    
