data_mof_unit_4428.cif
_audit_creation_date              2012-12-11T17:45:33-0500
_audit_creation_method            fapswitch 2.2
_symmetry_space_group_name_H-M    P1
_symmetry_Int_Tables_number       1
_space_group_crystal_system       triclinic
_cell_length_a                    15.078214
_cell_length_b                    15.091782
_cell_length_c                    15.092501
_cell_angle_alpha                 111.065711
_cell_angle_beta                  108.335868
_cell_angle_gamma                 108.975787
_cell_volume                      2643.75222124

loop_
_atom_site_label
_atom_site_type_symbol
_atom_type_description
_atom_site_fract_x
_atom_site_fract_y
_atom_site_fract_z
_atom_type_partial_charge
C1    C     C_R   0.974941 0.251684 0.063478 -0.106514
C2    C     C_R   0.320589 0.785592 0.326032 0.067232
C3    C     C_R   0.303831 0.498103 0.941317 0.018402
C4    C     C_R   0.937556 0.504252 0.302589 0.036624
C5    C     C_R   0.686979 0.406306 0.938719 -0.069833
C6    C     C_R   0.021187 0.589980 0.780772 -0.104495
C7    C     C_R   0.794176 0.195614 0.699573 -0.145467
C8    C     C_R   0.980459 0.791967 0.076826 -0.147275
C9    C     C_R   0.075688 0.794585 0.989614 -0.156544
C10   C     C_R   0.713978 0.191008 0.799476 -0.124250
C11   C     C_R   0.775445 0.590431 0.031709 -0.179630
C12   C     C_R   0.313284 0.757786 0.224321 -0.098211
C13   C     C_R   0.942682 0.407923 0.685243 -0.139005
C14   C     C_R   0.674695 0.497117 0.961349 0.017423
C15   C     C_R   0.959419 0.500477 0.677684 0.047298
C16   C     C_R   0.709723 0.128801 0.703256 -0.006067
C17   C     C_R   0.024448 0.845372 0.031447 0.073609
C18   C     C_R   0.592768 0.296440 0.118614 -0.100307
C19   C     C_R   0.681038 0.375341 0.221751 -0.139544
C20   C     C_R   0.740075 0.344422 0.284531 0.123602
C21   C     C_R   0.706363 0.233024 0.244953 -0.184731
C22   C     C_R   0.618954 0.154187 0.140728 -0.206931
C23   C     C_R   0.210082 0.408333 0.906584 -0.149795
C24   C     C_R   0.563240 0.185736 0.075584 -0.001062
C25   C     C_R   0.851364 0.428259 0.483382 -0.248028
C26   C     C_R   0.945006 0.508645 0.582345 0.066378
C27   C     C_R   0.027008 0.594520 0.588642 0.019624
C28   C     C_R   0.014259 0.596226 0.495735 -0.245604
C29   C     C_R   0.925463 0.511483 0.395557 0.062576
C30   C     C_R   0.840132 0.429044 0.388605 0.022383
C31   C     C_R   0.153686 0.784227 0.748581 -0.225754
C32   C     C_R   0.245725 0.857155 0.850524 -0.114758
C33   C     C_R   0.318131 0.824422 0.890612 -0.053430
C34   C     C_R   0.994747 0.593103 0.298560 -0.166747
C35   C     C_R   0.300639 0.720256 0.827110 -0.110608
C36   C     C_R   0.208068 0.646325 0.725824 -0.124908
C37   C     C_R   0.132647 0.677120 0.687361 0.117970
C38   C     C_R   0.187269 0.988933 0.469317 0.010445
C39   C     C_R   0.279914 0.987162 0.470552 -0.224921
C40   C     C_R   0.325889 0.941140 0.523064 0.085682
C41   C     C_R   0.282495 0.901563 0.579344 -0.121300
C42   C     C_R   0.190031 0.902934 0.577868 -0.164950
C43   C     C_R   0.141662 0.944938 0.522014 -0.144408
C44   C     C_R   0.517727 0.018608 0.608058 -0.148383
C45   C     C_R   0.301247 0.590109 0.999638 -0.101919
C46   C     C_R   0.614321 0.026385 0.613119 0.096960
C47   C     C_R   0.612425 0.944120 0.528131 0.009868
C48   C     C_R   0.513552 0.861965 0.436507 -0.231918
C49   C     C_R   0.418316 0.859474 0.430113 0.050686
C50   C     C_R   0.420553 0.935517 0.520107 0.014221
C51   C     C_R   0.742996 0.943201 0.460484 -0.231410
C52   C     C_R   0.810599 0.902552 0.441719 -0.108819
C53   C     C_R   0.840335 0.848207 0.493168 -0.064376
C54   C     C_R   0.803908 0.835920 0.564733 -0.095281
C55   C     C_R   0.737268 0.877518 0.584614 -0.138947
C56   C     C_R   0.909148 0.411436 0.211242 -0.070134
C57   C     C_R   0.706125 0.931272 0.532468 0.132528
C58   C     C_3   0.477264 0.377282 0.877073 -0.368042
C59   C     C_3   0.375161 0.378441 0.870209 -0.376902
C60   C     C_3   0.587523 0.544560 0.066439 -0.575647
C61   C     C_3   0.551502 0.565075 0.900558 0.521095
C62   C     C_3   0.574235 0.495688 0.949990 0.243925
C63   C     C_3   0.400549 0.496662 0.942083 0.214438
C64   C     C_3   0.486133 0.547480 0.062811 -0.191867
C65   C     C_3   0.448123 0.566274 0.896938 -0.516262
C66   C     C_R   0.995465 0.085508 0.719816 -0.291614
C67   C     C_R   0.218087 0.747363 0.312236 -0.125939
C68   C     C_R   0.988893 0.061000 0.799085 -0.170567
C69   C     C_R   0.079839 0.074200 0.878003 0.072828
C70   C     C_R   0.171821 0.095281 0.866298 -0.204294
C71   C     C_R   0.175809 0.112873 0.782278 -0.222674
C72   C     C_R   0.090903 0.115810 0.712716 0.559434
C73   C     C_R   0.066356 0.974226 0.971575 -0.264881
C74   C     C_R   0.032451 0.945986 0.038374 0.081543
C75   C     C_R   0.010203 0.015202 0.109280 0.032356
C76   C     C_R   0.052613 0.122388 0.133215 -0.232600
C77   C     C_R   0.073984 0.146368 0.058630 0.093665
C78   C     C_R   0.079543 0.271187 0.987512 -0.107951
C79   C     C_R   0.079087 0.069371 0.974321 0.055829
C80   C     C_R   0.814138 0.890341 0.030963 -0.169068
C81   C     C_R   0.719044 0.867138 0.036637 -0.095918
C82   C     C_R   0.722417 0.922932 0.135098 -0.119378
C83   C     C_R   0.820632 0.006103 0.227178 -0.102476
C84   C     C_R   0.915227 0.033728 0.220489 -0.067764
C85   C     C_R   0.914101 0.974147 0.123215 0.086508
C86   C     C_R   0.056076 0.232619 0.051109 0.027602
H1    H     H_    0.934400 0.229496 0.106033 0.104711
H2    H     H_    0.042114 0.672562 0.803332 0.115878
H3    H     H_    0.820191 0.171397 0.640290 0.086729
H4    H     H_    0.951979 0.819898 0.132700 0.118447
H5    H     H_    0.135418 0.826465 0.967961 0.107516
H6    H     H_    0.792993 0.674225 0.069949 0.105477
H7    H     H_    0.898898 0.323852 0.619529 0.091305
H8    H     H_    0.550679 0.322166 0.070187 0.159520
H9    H     H_    0.705242 0.460831 0.251514 0.114482
H10   H     H_    0.378321 0.776580 0.205861 0.096042
H11   H     H_    0.750962 0.207654 0.292420 0.117325
H12   H     H_    0.597569 0.069169 0.109545 0.152344
H13   H     H_    0.787997 0.364611 0.480054 0.135076
H14   H     H_    0.080815 0.658537 0.501188 0.134454
H15   H     H_    0.095044 0.808315 0.721067 0.119970
H16   H     H_    0.259607 0.938047 0.899622 0.125179
H17   H     H_    0.388423 0.880164 0.970489 0.116416
H18   H     H_    0.357830 0.696266 0.857293 0.103099
H19   H     H_    0.193071 0.564137 0.679394 0.114788
H20   H     H_    0.069468 0.944226 0.521175 0.161517
H21   H     H_    0.181788 0.324245 0.851700 0.109149
H22   H     H_    0.315417 0.019189 0.428992 0.169233
H23   H     H_    0.318383 0.866985 0.621347 0.128379
H24   H     H_    0.155058 0.870812 0.619156 0.135225
H25   H     H_    0.516702 0.081807 0.670879 0.121612
H26   H     H_    0.510862 0.799603 0.369369 0.171105
H27   H     H_    0.715997 0.980075 0.415855 0.113779
H28   H     H_    0.838112 0.911185 0.385609 0.149509
H29   H     H_    0.891124 0.815153 0.477296 0.093051
H30   H     H_    0.826564 0.793372 0.604120 0.108730
H31   H     H_    0.017981 0.677222 0.350542 0.108737
H32   H     H_    0.705879 0.863319 0.636585 0.125075
H33   H     H_    0.489235 0.325855 0.911710 0.184384
H34   H     H_    0.467408 0.338232 0.793890 0.197873
H35   H     H_    0.316681 0.344238 0.783996 0.195665
H36   H     H_    0.339128 0.324209 0.897404 0.201438
H37   H     H_    0.607037 0.496920 0.103214 0.189644
H38   H     H_    0.619593 0.650287 0.957118 -0.040243
H39   H     H_    0.387348 0.534665 0.812322 0.194283
H40   H     H_    0.358000 0.674083 0.031282 0.076771
H41   H     H_    0.469429 0.652313 0.947573 0.112481
H42   H     H_    0.656430 0.629606 0.121106 0.166160
H43   H     H_    0.509137 0.635302 0.107831 0.113100
H44   H     H_    0.926593 0.082899 0.666098 0.133078
H45   H     H_    0.916003 0.041364 0.805076 0.146961
H46   H     H_    0.241574 0.102290 0.924607 0.183554
H47   H     H_    0.247956 0.130828 0.775164 0.193628
H48   H     H_    0.071374 0.916616 0.907851 0.125630
H49   H     H_    0.044510 0.179962 0.193759 0.112438
H50   H     H_    0.858474 0.327806 0.185590 0.118912
H51   H     H_    0.808991 0.847632 0.952926 0.107458
H52   H     H_    0.642169 0.808024 0.963964 0.104611
H53   H     H_    0.648641 0.903959 0.139186 0.097061
H54   H     H_    0.823099 0.052114 0.302778 0.100325
H55   H     H_    0.988374 0.104726 0.290352 0.118499
H56   H     H_    0.193149 0.748108 0.371646 0.121616
H57   H     H_    0.142537 0.274738 0.967593 0.137875
H58   H     H_    0.626794 0.320780 0.889357 0.104461
N1    N     N_R   0.947080 0.293830 0.002870 -0.034462
N2    N     N_R   0.054040 0.556820 0.847890 -0.042514
N3    N     N_R   0.848290 0.293830 0.791110 -0.045442
N4    N     N_R   0.995680 0.706170 0.053910 -0.040476
N5    N     N_R   0.052920 0.706170 0.997130 -0.041775
N6    N     N_R   0.791050 0.293830 0.847890 -0.053496
N7    N     N_R   0.846330 0.556820 0.053910 -0.038454
N8    N     N_R   0.997640 0.443180 0.791110 -0.043053
N9    N     N_R   0.208950 0.706170 0.152110 -0.044925
N10   N     N_R   0.153670 0.443180 0.946090 -0.041716
N11   N     N_R   0.002360 0.556820 0.208890 -0.044414
N12   N     N_R   0.210070 0.556820 0.002870 -0.032277
N13   N     N_R   0.945960 0.443180 0.152110 -0.029359
N14   N     N_R   0.151710 0.706170 0.208890 -0.046161
N15   N     N_R   0.004320 0.293830 0.946090 -0.053120
N16   N     N_R   0.789930 0.443180 0.997130 -0.019281
Ni1   Ni    Ni4+2 0.869690 0.369690 0.000000 0.261058
Ni2   Ni    Ni4+2 0.130310 0.630310 0.000000 0.219217
Ni3   Ni    Ni4+2 0.000970 0.369690 0.869780 0.203369
Ni4   Ni    Ni4+2 0.999030 0.630310 0.130220 0.218746
C87   C     C_2   0.682001 0.144994 0.862967 0.974433
O1    O     O_2   0.632613 0.046054 0.823206 -0.627938
O2    O     O_R   0.716645 0.214759 0.971806 -0.829468
H59   H     H_    0.707685 0.173619 0.011348 0.322877
C88   C     C_2   0.482891 0.105652 0.959494 0.952676
O3    O     O_2   0.419694 0.126217 0.908772 -0.692923
O4    O     O_R   0.483455 0.008850 0.906042 -0.788517
H60   H     H_    0.429305 0.963790 0.825477 0.340871
C89   C     C_2   0.139169 0.037239 0.413625 0.990233
O5    O     O_2   0.051347 0.026488 0.400432 -0.684635
O6    O     O_R   0.194886 0.096226 0.377162 -0.812340
H61   H     H_    0.157278 0.130623 0.345277 0.312095
C90   C     C_2   0.446418 0.497389 0.123292 1.032223
O7    O     O_2   0.420990 0.402242 0.095803 -0.669321
O8    O     O_R   0.439177 0.561554 0.211467 -0.820021
H62   H     H_    0.411168 0.519860 0.245256 0.326008
O9    O     O_3   0.537175 0.519001 0.793322 -0.628348
C91   C     C_3   0.614282 0.593748 0.784519 0.242288
H63   H     H_    0.697523 0.624006 0.846572 0.093667
H64   H     H_    0.600480 0.663869 0.794025 0.097690
C92   C     C_3   0.603503 0.536888 0.672590 -0.839658
H65   H     H_    0.521604 0.506576 0.608432 0.260022
H66   H     H_    0.663557 0.595212 0.664700 0.200932
H67   H     H_    0.617765 0.466840 0.661269 0.255316
O10   O     O_3   0.106606 0.149248 0.641193 -0.641434
C93   C     C_3   0.043771 0.196685 0.611818 0.287410
H68   H     H_    0.033052 0.244686 0.679420 0.063301
H69   H     H_    0.963729 0.131525 0.540359 0.118808
C94   C     C_3   0.098966 0.275618 0.581197 -0.881073
H70   H     H_    0.115193 0.234069 0.516008 0.279679
H71   H     H_    0.046514 0.307404 0.551573 0.200765
H72   H     H_    0.176032 0.345711 0.653407 0.238771

loop_
_geom_bond_atom_site_label_1
_geom_bond_atom_site_label_2
_ccdc_geom_bond_type
C59   H35   S    
C66   C68   A    
O4    H60   S    
C63   C65   S    
C58   C62   S    
C87   O1    D    
C22   H12   S    
N11   N13   A    
C41   C42   A    
C3    C23   A    
C35   C36   A    
C12   N9    A    
C2    C12   A    
C9    H5    S    
C80   C85   A    
C81   C82   A    
C20   C30   S    
C34   N11   A    
N2    Ni2   S    
C9    N5    A    
C26   C27   A    
C93   H68   S    
C61   H38   S    
C18   C24   A    
C31   H15   S    
C22   C24   A    
C28   C29   A    
C27   C37   S    
C69   C70   A    
C38   C39   A    
N1    N15   A    
C11   C14   A    
C92   H66   S    
C44   C50   A    
C80   H51   S    
C7    H3    S    
N9    N14   A    
C6    H2    S    
C60   C62   S    
C18   C19   A    
C88   O3    D    
C1    H1    S    
C49   C50   A    
C91   H63   S    
C73   H48   S    
C93   C94   S    
C6    C15   A    
C54   C55   A    
C1    N1    A    
C11   H6    S    
C25   H13   S    
C66   C72   A    
C47   C48   A    
C44   C46   A    
C68   C69   A    
C94   H71   S    
C54   H30   S    
C70   C71   A    
C51   C57   A    
N10   N12   A    
C4    C29   S    
N14   Ni4   S    
C78   C86   A    
C59   H36   S    
C77   C79   A    
N12   Ni2   S    
C87   O2    S    
C41   H23   S    
C21   C22   A    
C4    C56   A    
C88   O4    S    
C8    N4    A    
C70   H46   S    
C83   H54   S    
C56   H50   S    
C76   H49   S    
C75   C85   S    
C7    N3    A    
C76   C77   A    
C89   O6    S    
C73   C74   A    
C39   H22   S    
C4    C34   A    
C74   C75   A    
C51   C52   A    
N4    Ni4   S    
N10   Ni3   S    
C60   H42   S    
N3    N6    A    
C84   C85   A    
C35   H18   S    
C16   C46   S    
O2    H59   S    
C10   C16   A    
C80   C81   A    
C15   C26   S    
C90   O8    S    
C25   C26   A    
O9    C91   S    
C3    C45   A    
C31   C37   A    
C13   H7    S    
C91   C92   S    
C65   H39   S    
C68   H45   S    
C75   C76   A    
C29   C30   A    
C2    C49   S    
C47   C57   S    
C56   N13   A    
C21   H11   S    
O6    H61   S    
C45   H40   S    
C5    H58   S    
C5    N16   A    
C23   H21   S    
C20   C21   A    
C82   H53   S    
C58   H34   S    
C73   C79   A    
O10   C93   S    
N7    Ni4   S    
C45   N12   A    
C51   H27   S    
N4    N5    A    
C24   C88   S    
C5    C14   A    
N7    N16   A    
C90   O7    D    
N2    N8    A    
C9    C17   A    
C48   C49   A    
C48   H26   S    
C77   C86   S    
C2    C67   A    
C52   H28   S    
C13   C15   A    
C17   C74   S    
C18   H8    S    
N15   Ni3   S    
C83   C84   A    
C8    H4    S    
C42   C43   A    
C6    N2    A    
N13   Ni1   S    
C72   O10   S    
C39   C40   A    
C19   H9    S    
C52   C53   A    
C11   N7    A    
C25   C30   A    
N6    Ni1   S    
C46   C47   A    
C36   C37   A    
C93   H69   S    
C36   H19   S    
C33   H17   S    
C61   O9    S    
C65   H41   S    
C31   C32   A    
C7    C16   A    
C13   N8    A    
C81   H52   S    
C92   H67   S    
C71   H47   S    
C53   C54   A    
C3    C63   S    
N11   Ni4   S    
C59   C63   S    
C8    C17   A    
N9    Ni2   S    
C60   C64   S    
C32   C33   A    
C19   C20   A    
C55   C57   A    
C58   C59   S    
C38   C43   A    
N3    Ni3   S    
C78   H57   S    
C38   C89   S    
C94   H72   S    
C64   C90   S    
C28   H14   S    
C92   H65   S    
N1    Ni1   S    
C84   H55   S    
C34   H31   S    
C10   C87   S    
C40   C50   S    
C58   H33   S    
C33   C35   A    
C67   N14   A    
C32   H16   S    
C42   H24   S    
C61   C62   S    
N16   Ni1   S    
C91   H64   S    
N8    Ni3   S    
C69   C79   S    
C89   O5    D    
C63   C64   S    
C44   H25   S    
C61   C65   S    
C78   N15   A    
C1    C86   A    
C60   H37   S    
C71   C72   A    
C64   H43   S    
C94   H70   S    
C23   N10   A    
C27   C28   A    
O8    H62   S    
C12   H10   S    
C40   C41   A    
N5    Ni2   S    
C82   C83   A    
C67   H56   S    
C43   H20   S    
C10   N6    A    
C53   H29   S    
C66   H44   S    
C55   H32   S    
C14   C62   S    
