data_mof_unit_2409.cif
_audit_creation_date              2012-12-10T19:06:30-0500
_audit_creation_method            fapswitch 2.2
_symmetry_space_group_name_H-M    P1
_symmetry_Int_Tables_number       1
_space_group_crystal_system       triclinic
_cell_length_a                    23.563949
_cell_length_b                    10.843027
_cell_length_c                    9.577001
_cell_angle_alpha                 90.663878
_cell_angle_beta                  91.089855
_cell_angle_gamma                 90.074265
_cell_volume                      2446.35748018

loop_
_atom_site_label
_atom_site_type_symbol
_atom_type_description
_atom_site_fract_x
_atom_site_fract_y
_atom_site_fract_z
_atom_type_partial_charge
C1    C     C_R   0.500896 0.262403 0.499061 0.839771
C2    C     C_R   0.969109 0.292056 0.456091 -0.230948
C3    C     C_R   0.028047 0.291314 0.441740 0.477209
C4    C     C_R   0.059428 0.401309 0.464827 -0.107209
C5    C     C_R   0.030310 0.513224 0.491058 -0.085916
C6    C     C_R   0.060888 0.623987 0.516076 -0.128485
C7    C     C_R   0.030740 0.733367 0.551474 -0.127520
C8    C     C_R   0.970890 0.734841 0.541304 0.437200
C9    C     C_R   0.119126 0.403091 0.463065 0.567681
C10   C     C_R   0.120558 0.620782 0.503251 0.588758
C11   C     C_R   0.237439 0.515630 0.614646 -0.177920
C12   C     C_R   0.390863 0.501085 0.499086 0.814778
C13   C     C_R   0.296789 0.515202 0.621434 0.457327
C14   C     C_R   0.327994 0.504790 0.496689 -0.138910
C15   C     C_R   0.298285 0.499870 0.367714 -0.272699
C16   C     C_R   0.239133 0.502139 0.362495 -0.114214
C17   C     C_R   0.208692 0.509775 0.485968 0.287024
C18   C     C_R   0.758441 0.433303 0.404985 -0.066798
C19   C     C_R   0.699637 0.429212 0.413480 -0.231384
C20   C     C_R   0.670744 0.513565 0.498211 -0.101118
C21   C     C_R   0.701598 0.608329 0.569214 -0.056088
C22   C     C_R   0.761063 0.600557 0.574215 -0.136431
C23   C     C_R   0.499723 0.737393 0.500417 0.872273
C24   C     C_R   0.790214 0.515303 0.489939 0.273034
C25   C     C_R   0.479217 0.065257 0.610545 0.079161
C26   C     C_R   0.499122 0.128710 0.495201 -0.189114
C27   C     C_R   0.513464 0.061956 0.373060 0.473444
C28   C     C_R   0.513043 0.932555 0.376902 -0.265613
C29   C     C_R   0.497773 0.870494 0.498482 -0.155468
C30   C     C_R   0.478245 0.938103 0.612301 0.075289
C31   C     C_3   0.496697 0.934799 0.762642 -0.185280
C32   C     C_3   0.497338 0.075152 0.760637 -0.513054
C33   C     C_R   0.548230 0.522570 0.076292 0.151169
C34   C     C_R   0.608666 0.504629 0.500421 0.865791
C35   C     C_R   0.454648 0.454149 0.071696 0.583028
C36   C     C_R   0.454125 0.460550 0.921938 -0.164890
C37   C     C_R   0.549421 0.515953 0.930264 0.232975
C38   C     C_3   0.592381 0.618545 0.928906 -0.222882
C39   C     C_3   0.585904 0.631719 0.086848 -0.485418
C40   C     C_R   0.881228 0.624090 0.487623 0.558724
C41   C     C_R   0.880657 0.404508 0.488328 0.566251
C42   C     C_R   0.939950 0.402729 0.478402 -0.062032
C43   C     C_R   0.970389 0.514016 0.491721 -0.077843
C44   C     C_R   0.940748 0.625719 0.505588 -0.120465
Cu1   Cu    Cu3+1 0.500000 0.499980 0.640670 1.000614
Cu2   Cu    Cu3+1 0.500000 0.500020 0.359330 1.023123
H1    H     H_    0.946218 0.205661 0.444896 0.219536
H2    H     H_    0.676412 0.360777 0.351854 0.173427
H3    H     H_    0.785039 0.664704 0.639613 0.206887
H4    H     H_    0.528213 0.880637 0.288047 0.175752
H5    H     H_    0.539632 0.893930 0.777870 0.158339
H6    H     H_    0.464368 0.120602 0.824807 0.208037
H7    H     H_    0.540662 0.114782 0.774610 0.202906
H8    H     H_    0.417056 0.432135 0.862523 0.203043
H9    H     H_    0.578482 0.700460 0.868818 0.174374
H10   H     H_    0.624865 0.613161 0.150596 0.217740
H11   H     H_    0.562558 0.716452 0.117745 0.213405
H12   H     H_    0.213526 0.520342 0.710057 0.153629
H13   H     H_    0.320610 0.494180 0.270313 0.225061
H14   H     H_    0.216915 0.497937 0.262531 0.154075
H15   H     H_    0.779117 0.370946 0.333130 0.175961
N1    N     N_R   0.851781 0.514528 0.488122 -0.462753
N2    N     N_R   0.147904 0.511424 0.481935 -0.466247
N3    N     N_R   0.500360 0.500930 0.147930 -0.210342
N4    N     N_R   0.500360 0.500890 0.852020 -0.207136
O1    O     O_R   0.500000 0.319640 0.618810 -0.590220
O2    O     O_2   0.852430 0.296814 0.499423 -0.532462
O3    O     O_2   0.148570 0.297820 0.443794 -0.473934
O4    O     O_2   0.151286 0.725823 0.507444 -0.500897
O5    O     O_R   0.500010 0.319680 0.381230 -0.518220
O6    O     O_R   0.417880 0.499940 0.618820 -0.556502
O7    O     O_R   0.417880 0.499980 0.381240 -0.532773
O8    O     O_R   0.499990 0.680320 0.618770 -0.567474
O9    O     O_R   0.500000 0.680360 0.381190 -0.589822
O10   O     O_R   0.582120 0.500020 0.618760 -0.543313
O11   O     O_R   0.582120 0.500060 0.381180 -0.592122
O12   O     O_2   0.853317 0.731023 0.466536 -0.471919
C45   C     C_2   0.674471 0.722327 0.625751 0.854276
O13   O     O_2   0.624291 0.743561 0.602875 -0.648952
O14   O     O_R   0.707236 0.809120 0.700720 -0.713243
H16   H     H_    0.684242 0.882889 0.732599 0.342624
O15   O     O_3   0.536149 0.123891 0.260661 -0.557741
C46   C     C_3   0.511647 0.082668 0.132824 -0.267148
H17   H     H_    0.516640 0.156813 0.055227 0.176118
H18   H     H_    0.465367 0.063047 0.140344 0.154305
H19   H     H_    0.534513 0.000412 0.092906 0.173244
C47   C     C_2   0.452113 0.881428 0.855071 0.850908
O16   O     O_2   0.464973 0.799573 0.936389 -0.634363
O17   O     O_R   0.396409 0.925725 0.848565 -0.766492
H20   H     H_    0.370914 0.884294 0.918080 0.321206
O18   O     O_3   0.408712 0.407764 0.142979 -0.564660
C48   C     C_3   0.383808 0.303903 0.075741 -0.350140
H21   H     H_    0.415713 0.241799 0.027622 0.141035
H22   H     H_    0.351690 0.333574 0.996721 0.198397
H23   H     H_    0.361246 0.249551 0.154963 0.206315
O19   O     O_3   0.054961 0.181082 0.412627 -0.519972
C49   C     C_3   0.047333 0.153086 0.269324 -0.155483
H24   H     H_    0.071999 0.068792 0.244678 0.206682
H25   H     H_    0.063557 0.228602 0.202963 0.136541
H26   H     H_    0.002042 0.133237 0.242877 0.141895
C50   C     C_2   0.651221 0.572734 0.896044 0.865875
O20   O     O_2   0.692205 0.638695 0.922842 -0.567437
O21   O     O_R   0.659277 0.454019 0.841202 -0.752946
H27   H     H_    0.700765 0.434555 0.825622 0.335087
C51   C     C_2   0.059538 0.843274 0.614116 0.950487
O22   O     O_2   0.093436 0.830873 0.711270 -0.576267
O23   O     O_R   0.045445 0.961178 0.567979 -0.678252
H28   H     H_    0.066283 0.028172 0.623124 0.359943
O24   O     O_3   0.942006 0.842774 0.572182 -0.509952
C52   C     C_3   0.926788 0.841534 0.714105 -0.176667
H29   H     H_    0.964810 0.837004 0.784505 0.126066
H30   H     H_    0.897470 0.763987 0.736281 0.149263
H31   H     H_    0.904195 0.928599 0.738521 0.208525
O25   O     O_3   0.323654 0.517253 0.750893 -0.595624
C53   C     C_3   0.325973 0.640246 0.800049 -0.269350
H32   H     H_    0.282763 0.677331 0.819036 0.171603
H33   H     H_    0.349036 0.700445 0.726582 0.182867
H34   H     H_    0.349728 0.642429 0.901185 0.198459

loop_
_geom_bond_atom_site_label_1
_geom_bond_atom_site_label_2
_ccdc_geom_bond_type
C47   O16   D    
C50   O20   D    
Cu1   O6    S    
C41   C42   A    
C10   N2    A    
Cu2   O11   S    
C49   H24   S    
C7    C8    A    
C41   O2    S    
Cu1   Cu2   S    
C51   O23   S    
C26   C27   A    
C33   C39   S    
C46   H17   S    
C18   C24   A    
C23   C29   S    
C28   C29   A    
C38   C50   S    
C30   C31   S    
C45   O14   S    
C53   H32   S    
C39   H11   S    
C40   N1    A    
Cu1   O8    S    
C18   C19   A    
C16   H14   S    
C52   H29   S    
C32   H6    S    
C28   H4    S    
C38   H9    S    
C19   C20   A    
C16   C17   A    
C53   H33   S    
C37   N4    A    
C21   C45   S    
O23   H28   S    
C7    C51   S    
C35   N3    A    
C11   H12   S    
Cu2   O7    S    
C13   O25   S    
C34   O10   A    
C20   C34   S    
C25   C32   S    
C5    C43   A    
C50   O21   S    
C9    N2    A    
C13   C14   A    
C41   N1    A    
C23   O8    A    
C49   H25   S    
O25   C53   S    
C27   O15   S    
C38   C39   S    
C31   C47   S    
O18   C48   S    
C19   H2    S    
O14   H16   S    
C25   C26   A    
C48   H23   S    
C33   C37   A    
Cu2   N3    S    
Cu1   O1    S    
C35   C36   A    
C43   C44   A    
C37   C38   S    
C39   H10   S    
C53   H34   S    
O19   C49   S    
C48   H22   S    
C1    O1    A    
C52   H31   S    
C3    O19   S    
C8    O24   S    
C22   H3    S    
C46   H18   S    
C12   O6    A    
C12   C14   S    
C47   O17   S    
Cu1   N4    S    
C1    C26   S    
C22   C24   A    
C42   C43   A    
C23   O9    A    
C3    C4    A    
C32   H7    S    
Cu2   O9    S    
C49   H26   S    
C25   C30   A    
C11   C17   A    
C24   N1    S    
C45   O13   D    
C15   H13   S    
C31   C32   S    
C8    C44   A    
C31   H5    S    
C4    C5    A    
C6    C10   A    
C18   H15   S    
C6    C7    A    
C2    H1    S    
C51   O22   D    
C1    O5    A    
Cu1   O10   S    
C36   N4    A    
C2    C3    A    
O17   H20   S    
C9    O3    S    
O24   C52   S    
C17   N2    S    
C11   C13   A    
C5    C6    A    
C2    C42   A    
C33   N3    A    
C48   H21   S    
C40   O12   S    
C12   O7    A    
C52   H30   S    
Cu2   O5    S    
C36   H8    S    
C29   C30   A    
C10   O4    S    
C40   C44   A    
C46   H19   S    
C20   C21   A    
O15   C46   S    
O21   H27   S    
C14   C15   A    
C4    C9    A    
C21   C22   A    
C15   C16   A    
C34   O11   A    
C27   C28   A    
C35   O18   S    
