data_mof_unit_4729.cif
_audit_creation_date              2012-12-10T19:03:35-0500
_audit_creation_method            fapswitch 2.2
_symmetry_space_group_name_H-M    P1
_symmetry_Int_Tables_number       1
_space_group_crystal_system       triclinic
_cell_length_a                    15.897561
_cell_length_b                    10.869561
_cell_length_c                    9.599888
_cell_angle_alpha                 91.194035
_cell_angle_beta                  89.793453
_cell_angle_gamma                 91.949331
_cell_volume                      1657.52899162

loop_
_atom_site_label
_atom_site_type_symbol
_atom_type_description
_atom_site_fract_x
_atom_site_fract_y
_atom_site_fract_z
_atom_type_partial_charge
C1    C     C_R   0.497706 0.262782 0.498729 0.820458
C2    C     C_3   0.945972 0.366362 0.555691 0.017036
C3    C     C_3   0.916809 0.493683 0.500456 0.076677
C4    C     C_3   0.954586 0.599509 0.596660 0.004778
C5    C     C_3   0.051768 0.592673 0.601991 -0.447293
C6    C     C_1   0.824545 0.497972 0.498691 0.013922
C7    C     C_1   0.175166 0.492884 0.500942 0.023941
C8    C     C_1   0.250714 0.496024 0.500591 -0.092918
C9    C     C_R   0.501119 0.068402 0.622201 0.095844
C10   C     C_R   0.490731 0.129834 0.498017 -0.084259
C11   C     C_R   0.471964 0.060653 0.376270 -0.178117
C12   C     C_R   0.340355 0.499277 0.500215 0.838742
C13   C     C_R   0.472991 0.932019 0.378185 -0.189478
C14   C     C_R   0.493165 0.871328 0.501660 -0.088325
C15   C     C_R   0.502540 0.941830 0.624694 0.070422
C16   C     C_3   0.569067 0.946995 0.735763 -0.303333
C17   C     C_3   0.565301 0.087338 0.734749 -0.271232
C18   C     C_R   0.568129 0.543682 0.073946 0.230099
C19   C     C_R   0.441095 0.432596 0.074264 -0.032649
C20   C     C_R   0.440838 0.431807 0.925176 0.193002
C21   C     C_R   0.569520 0.539988 0.927711 0.175779
C22   C     C_3   0.615911 0.660510 0.923373 -0.290999
C23   C     C_R   0.499529 0.737813 0.500974 0.792967
C24   C     C_3   0.610929 0.667240 0.082333 -0.497043
C25   C     C_R   0.659615 0.500687 0.499680 0.832252
C26   C     C_3   0.044974 0.363424 0.549477 -0.040354
C27   C     C_3   0.049799 0.517173 0.352692 -0.020071
C28   C     C_3   0.952276 0.511598 0.350929 -0.378289
C29   C     C_1   0.749133 0.499880 0.498838 -0.092040
C30   C     C_3   0.082816 0.490230 0.501467 0.103611
Cu1   Cu    Cu3+1 0.500000 0.499980 0.640670 0.990429
Cu2   Cu    Cu3+1 0.500000 0.500020 0.359330 0.970934
H1    H     H_    0.459778 0.105444 0.279028 0.170284
H2    H     H_    0.460969 0.880779 0.281941 0.165214
H3    H     H_    0.545600 0.911285 0.836308 0.145803
H4    H     H_    0.537633 0.127235 0.831439 0.163151
H5    H     H_    0.063102 0.293201 0.470375 0.198757
H6    H     H_    0.579613 0.728452 0.868965 0.164731
H7    H     H_    0.672585 0.664867 0.136540 0.208617
H8    H     H_    0.568567 0.739520 0.121783 0.202113
H9    H     H_    0.071769 0.611769 0.324226 0.169727
H10   H     H_    0.928609 0.436095 0.280445 0.224034
H11   H     H_    0.929242 0.597594 0.305914 0.199322
H12   H     H_    0.071555 0.574416 0.710462 0.208065
H13   H     H_    0.081874 0.682724 0.574060 0.210452
H14   H     H_    0.929436 0.589675 0.704206 0.168464
N1    N     N_R   0.500530 0.500930 0.147930 -0.221175
N2    N     N_R   0.500530 0.500890 0.852020 -0.216659
O1    O     O_R   0.500000 0.319640 0.618810 -0.567836
O2    O     O_R   0.500010 0.319680 0.381230 -0.592002
O3    O     O_R   0.379430 0.499990 0.618840 -0.547125
O4    O     O_R   0.379440 0.500030 0.381260 -0.578739
O5    O     O_R   0.499990 0.680320 0.618770 -0.585809
O6    O     O_R   0.500000 0.680360 0.381190 -0.585704
O7    O     O_R   0.620560 0.499970 0.618740 -0.573570
O8    O     O_R   0.620570 0.500010 0.381160 -0.576005
I1    I     I_    0.893350 0.211478 0.434866 -0.260374
I2    I     I_    0.105239 0.297146 0.735910 -0.234092
C31   C     C_1   0.912872 0.346900 0.698229 0.344589
N3    N     N_1   0.886573 0.331970 0.809458 -0.212015
I3    I     I_    0.918632 0.781529 0.537975 -0.277326
C32   C     C_1   0.648990 0.895547 0.686383 0.297640
N4    N     N_1   0.711447 0.855955 0.646419 -0.218750
C33   C     C_1   0.642757 0.154896 0.690012 0.334506
N5    N     N_1   0.703274 0.208023 0.655200 -0.246714
C34   C     C_1   0.381266 0.354777 0.147479 0.376283
N6    N     N_1   0.333131 0.291480 0.205009 -0.246927
I4    I     I_    0.352052 0.305855 0.825771 -0.274478
C35   C     C_1   0.702329 0.646647 0.871522 0.357253
N7    N     N_1   0.770392 0.635414 0.831290 -0.261324
I5    I     I_    0.099306 0.398812 0.190272 -0.276873

loop_
_geom_bond_atom_site_label_1
_geom_bond_atom_site_label_2
_ccdc_geom_bond_type
C14   C23   S    
C26   H5    S    
C26   C30   S    
C32   N4    T    
C17   H4    S    
C18   C21   A    
C11   C13   A    
C9    C10   A    
C27   H9    S    
C28   H11   S    
C19   C20   A    
C25   O8    A    
C11   H1    S    
C8    C12   S    
C21   N2    A    
C33   N5    T    
C3    C6    S    
C2    C3    S    
C9    C15   A    
C2    I1    S    
C27   I5    S    
C31   N3    T    
C2    C26   S    
C7    C30   S    
C4    H14   S    
C13   C14   A    
C18   N1    A    
C27   C30   S    
C24   H7    S    
C26   I2    S    
Cu2   O2    S    
C20   N2    A    
C16   C32   S    
Cu1   O1    S    
C18   C24   S    
C9    C17   S    
C3    C28   S    
C12   O4    A    
C5    H12   S    
C20   I4    S    
C23   O5    A    
C19   N1    A    
Cu1   N2    S    
C16   H3    S    
C25   C29   S    
C35   N7    T    
Cu2   N1    S    
C22   C24   S    
C24   H8    S    
C7    C8    T    
C10   C11   A    
C15   C16   S    
C22   H6    S    
C16   C17   S    
C25   O7    A    
C13   H2    S    
C12   O3    A    
C34   N6    T    
C6    C29   T    
C23   O6    A    
C5    C30   S    
C1    O2    A    
Cu2   O6    S    
C27   C28   S    
C22   C35   S    
C2    C31   S    
Cu2   O4    S    
C17   C33   S    
C28   H10   S    
Cu1   O7    S    
C21   C22   S    
C14   C15   A    
C5    H13   S    
C4    I3    S    
Cu2   O8    S    
Cu1   Cu2   S    
Cu1   O5    S    
C1    C10   S    
C3    C4    S    
C19   C34   S    
Cu1   O3    S    
C4    C5    S    
C1    O1    A    
