data_mof_unit_4213.cif
_audit_creation_date              2012-10-26T18:30:17-0400
_audit_creation_method            fapswitch 2.2
_symmetry_space_group_name_H-M    P1
_symmetry_Int_Tables_number       1
_space_group_crystal_system       triclinic
_cell_length_a                    10.647832
_cell_length_b                    12.996224
_cell_length_c                    11.832758
_cell_angle_alpha                 100.280719
_cell_angle_beta                  93.02093
_cell_angle_gamma                 92.269605
_cell_volume                      1606.90594425

loop_
_atom_site_label
_atom_site_type_symbol
_atom_type_description
_atom_site_fract_x
_atom_site_fract_y
_atom_site_fract_z
_atom_type_partial_charge
C1    C     C_R   0.500785 0.299423 0.478017 0.570023
C2    C     C_R   0.615505 0.584532 0.855870 0.271783
C3    C     C_R   0.555396 0.541681 0.159008 0.221077
C4    C     C_R   0.440541 0.463990 0.846316 0.223783
C5    C     C_R   0.545551 0.537895 0.036024 -0.061087
C6    C     C_R   0.454999 0.466071 0.968360 -0.008035
C7    C     C_R   0.260119 0.500805 0.500971 0.575805
C8    C     C_R   0.739825 0.499784 0.499044 0.576271
C9    C     C_3   0.046958 0.518173 0.612077 -0.128028
C10   C     C_3   0.952605 0.483304 0.387622 -0.120418
C11   C     C_3   0.957786 0.425493 0.551990 0.072094
C12   C     C_R   0.498720 0.700576 0.522044 0.563224
C13   C     C_3   0.041966 0.575919 0.447715 0.077252
C14   C     C_3   0.875664 0.499566 0.496913 0.047829
C15   C     C_3   0.124126 0.501811 0.502908 0.049154
C16   C     C_3   0.964781 0.591786 0.554088 0.094264
C17   C     C_3   0.034873 0.409619 0.445540 0.098312
C18   C     C_R   0.492226 0.814277 0.535770 -0.000164
C19   C     C_R   0.506204 0.185704 0.464578 0.025493
C20   C     C_R   0.557280 0.016194 0.357812 0.107950
C21   C     C_R   0.440317 0.983150 0.643216 0.106296
C22   C     C_R   0.550708 0.125102 0.365088 0.103925
C23   C     C_R   0.469538 0.138392 0.555488 -0.171864
C24   C     C_R   0.447858 0.874641 0.635423 0.135073
C25   C     C_R   0.527932 0.862037 0.445075 -0.147462
C26   C     C_R   0.476545 0.030858 0.550459 0.000372
C27   C     C_R   0.520676 0.969497 0.450618 0.040967
C28   C     C_R   0.379991 0.399521 0.025695 0.067502
C29   C     C_R   0.621491 0.601140 0.976645 0.095788
C30   C     C_R   0.391695 0.410077 0.146207 0.260109
Cu1   Cu    Cu3+1 0.509400 0.507730 0.615930 0.946427
Cu2   Cu    Cu3+1 0.490600 0.492270 0.384070 1.018948
H1    H     H_    0.082632 0.533926 0.703522 0.114293
H2    H     H_    0.870540 0.724277 0.551114 0.227740
H3    H     H_    0.995434 0.259942 0.363680 0.243992
H4    H     H_    0.128937 0.277023 0.448416 0.226525
H5    H     H_    0.460532 0.858234 0.802659 0.251592
H6    H     H_    0.312604 0.841283 0.739491 0.247223
H7    H     H_    0.539435 0.143028 0.197784 0.227022
H8    H     H_    0.687286 0.160104 0.262389 0.226637
H9    H     H_    0.543835 0.961036 0.185497 0.235302
H10   H     H_    0.693583 0.978495 0.245656 0.233790
H11   H     H_    0.314304 0.079895 0.723703 0.229537
H12   H     H_    0.914495 0.468900 0.296752 0.118279
H13   H     H_    0.464610 0.099079 0.783629 0.231328
H14   H     H_    0.265364 0.466009 0.771756 0.246497
H15   H     H_    0.350845 0.361828 0.710181 0.268619
H16   H     H_    0.640884 0.682736 0.236833 0.216197
H17   H     H_    0.740111 0.578339 0.210784 0.205313
H18   H     H_    0.780897 0.585893 0.776457 0.255716
H19   H     H_    0.677600 0.678118 0.743705 0.284946
H20   H     H_    0.220461 0.356610 0.183339 0.239396
H21   H     H_    0.332505 0.266655 0.172317 0.238112
H22   H     H_    0.341784 0.268883 0.902148 0.256221
H23   H     H_    0.562209 0.814530 0.369595 0.165598
H24   H     H_    0.215908 0.347999 0.931471 0.258707
H25   H     H_    0.781382 0.661290 0.076786 0.228704
H26   H     H_    0.654332 0.743782 0.082887 0.241219
H27   H     H_    0.435145 0.186684 0.630493 0.121050
H28   H     H_    0.987177 0.304452 0.635604 0.223635
H29   H     H_    0.864570 0.375188 0.678781 0.241230
H30   H     H_    0.012684 0.696843 0.363890 0.223312
H31   H     H_    0.135612 0.626281 0.321214 0.244155
H32   H     H_    0.004188 0.741557 0.635669 0.251449
N1    N     N_R   0.523540 0.519360 0.790140 -0.233175
N2    N     N_3   0.394896 0.042694 0.745823 -0.652341
N3    N     N_3   0.330486 0.411088 0.785316 -0.656421
N4    N     N_3   0.651239 0.603028 0.233189 -0.563736
N5    N     N_3   0.712480 0.637840 0.805706 -0.561189
N6    N     N_3   0.315035 0.344918 0.203442 -0.518826
N7    N     N_3   0.295186 0.316688 0.965593 -0.660033
N8    N     N_3   0.704438 0.686722 0.033163 -0.618059
N9    N     N_R   0.476460 0.480640 0.209860 -0.192101
N10   N     N_3   0.909491 0.340960 0.605999 -0.620761
N11   N     N_3   0.090335 0.660479 0.393792 -0.620770
N12   N     N_3   0.923683 0.692227 0.611820 -0.624858
N13   N     N_3   0.075964 0.309207 0.387709 -0.616850
N14   N     N_3   0.406936 0.825355 0.727359 -0.580266
N15   N     N_3   0.592545 0.174756 0.273674 -0.599266
N16   N     N_3   0.601715 0.952671 0.257071 -0.671310
O1    O     O_R   0.506670 0.354460 0.582000 -0.534226
O2    O     O_R   0.493330 0.645540 0.418000 -0.494955
O3    O     O_R   0.490800 0.341410 0.386200 -0.437540
O4    O     O_R   0.509200 0.658590 0.613800 -0.483991
O5    O     O_R   0.324790 0.506500 0.597880 -0.529632
O6    O     O_R   0.675210 0.493500 0.402120 -0.481795
O7    O     O_R   0.308910 0.493440 0.402080 -0.466812
O8    O     O_R   0.691090 0.506560 0.597920 -0.517082

loop_
_geom_bond_atom_site_label_1
_geom_bond_atom_site_label_2
_ccdc_geom_bond_type
C21   C26   A    
H10   N16   S    
Cu1   O5    S    
H17   N4    S    
C21   N2    S    
C3    N4    S    
C2    N1    A    
H9    N16   S    
C7    O5    A    
C23   H27   S    
C26   C27   A    
C2    C29   A    
C18   C24   A    
C9    C16   S    
C22   N15   S    
H4    N13   S    
C4    N1    A    
C11   C14   S    
C10   C17   S    
C1    O1    A    
C12   O4    A    
C15   C17   S    
C23   C26   A    
C6    C28   A    
H22   N7    S    
C13   N11   S    
C2    N5    S    
C29   N8    S    
C7    C15   S    
C9    H1    S    
C18   C25   A    
H21   N6    S    
H15   N3    S    
C30   N6    S    
C5    C29   A    
C7    O7    A    
C1    C19   S    
C20   N16   S    
C10   H12   S    
C19   C22   A    
C4    C6    A    
C10   C14   S    
Cu2   N9    S    
C30   N9    A    
H6    N14   S    
Cu2   O7    S    
C11   N10   S    
Cu1   O4    S    
C8    O8    A    
H7    N15   S    
C19   C23   A    
Cu1   Cu2   S    
H24   N7    S    
Cu2   O6    S    
C17   N13   S    
H32   N12   S    
H8    N15   S    
C12   O2    A    
H16   N4    S    
C9    C11   S    
C24   N14   S    
C20   C22   A    
C13   C15   S    
C14   C16   S    
H30   N11   S    
C21   C24   A    
C28   N7    S    
C25   C27   A    
Cu1   N1    S    
Cu2   O3    S    
C11   C17   S    
C8    C14   S    
Cu1   O8    S    
C16   N12   S    
H18   N5    S    
C25   H23   S    
C3    C5    A    
C10   C13   S    
C4    N3    S    
C20   C27   A    
H29   N10   S    
C1    O3    A    
Cu2   O2    S    
H5    N14   S    
Cu1   O1    S    
C28   C30   A    
C9    C15   S    
H14   N3    S    
H26   N8    S    
C5    C6    A    
H31   N11   S    
H11   N2    S    
H28   N10   S    
H3    N13   S    
C8    O6    A    
H25   N8    S    
C3    N9    A    
H20   N6    S    
C13   C16   S    
C12   C18   S    
H13   N2    S    
H19   N5    S    
H2    N12   S    
