data_mof_unit_10.cif
_audit_creation_date              2012-12-10T17:40:03-0500
_audit_creation_method            fapswitch 2.2
_symmetry_space_group_name_H-M    P1
_symmetry_Int_Tables_number       1
_space_group_crystal_system       triclinic
_cell_length_a                    12.041039
_cell_length_b                    13.008236
_cell_length_c                    27.438486
_cell_angle_alpha                 91.181769
_cell_angle_beta                  84.870254
_cell_angle_gamma                 92.639099
_cell_volume                      4275.42142025

loop_
_atom_site_label
_atom_site_type_symbol
_atom_type_description
_atom_site_fract_x
_atom_site_fract_y
_atom_site_fract_z
_atom_type_partial_charge
C1    C     C_R   0.521471 0.700291 0.498782 0.941158
C2    C     C_R   0.645794 0.553156 0.125711 -0.116541
C3    C     C_R   0.502978 0.519772 0.647070 -0.203219
C4    C     C_R   0.503111 0.488880 0.353156 -0.154724
C5    C     C_R   0.654251 0.568006 0.022180 -0.050244
C6    C     C_R   0.597065 0.387161 0.966783 -0.068492
C7    C     C_R   0.577251 0.388703 0.018385 0.115977
C8    C     C_R   0.656877 0.571147 0.970043 0.107788
C9    C     C_R   0.613146 0.475923 0.045830 0.025965
C10   C     C_R   0.623536 0.481711 0.943242 0.025509
C11   C     C_R   0.681097 0.655279 0.052267 0.062612
C12   C     C_R   0.478547 0.299329 0.500161 0.970736
C13   C     C_R   0.593221 0.294902 0.937708 0.062244
C14   C     C_R   0.692712 0.642392 0.102515 0.427251
C15   C     C_R   0.595369 0.301146 0.886111 0.446225
C16   C     C_R   0.499600 0.504025 0.594139 0.868713
C17   C     C_R   0.500777 0.498017 0.406084 0.919377
C18   C     C_R   0.695171 0.658982 0.942799 -0.189151
C19   C     C_R   0.511732 0.310156 0.043130 -0.187394
C20   C     C_R   0.465766 0.187511 0.501777 -0.251594
C21   C     C_R   0.533822 0.811567 0.500229 -0.232516
C22   C     C_R   0.644084 0.968222 0.514406 0.361427
C23   C     C_R   0.615175 0.487379 0.892351 -0.141091
C24   C     C_R   0.348969 0.030458 0.510447 0.363614
C25   C     C_R   0.635531 0.860351 0.511818 0.276551
C26   C     C_R   0.358573 0.138540 0.510034 0.281936
C27   C     C_R   0.440925 0.869242 0.492483 0.145032
C28   C     C_R   0.562182 0.129164 0.496137 0.167454
C29   C     C_R   0.446080 0.974389 0.502643 -0.086565
C30   C     C_R   0.551546 0.024234 0.504846 -0.080248
C31   C     C_R   0.961620 0.415865 0.448484 0.121853
C32   C     C_R   0.037779 0.578969 0.553280 0.137082
C33   C     C_R   0.844882 0.427118 0.452322 0.310582
C34   C     C_R   0.599856 0.473050 0.097581 -0.141149
C35   C     C_R   0.155759 0.581825 0.544881 0.301221
C36   C     C_R   0.853998 0.528380 0.524640 -0.070851
C37   C     C_R   0.145262 0.463296 0.478225 -0.064984
C38   C     C_R   0.972465 0.525741 0.520229 -0.066715
C39   C     C_R   0.027046 0.468146 0.481834 -0.062908
C40   C     C_R   0.600947 0.591515 0.821471 0.490760
C41   C     C_R   0.517204 0.393644 0.172219 0.496279
C42   C     C_R   0.576242 0.409062 0.814537 0.614270
C43   C     C_R   0.635795 0.544536 0.176999 0.614556
C44   C     C_R   0.443292 0.470078 0.730866 0.250883
C45   C     C_R   0.629086 0.583137 0.869389 0.020094
C46   C     C_R   0.498384 0.567144 0.273793 0.255224
C47   C     C_R   0.425204 0.467661 0.680851 0.078719
C48   C     C_R   0.487588 0.575776 0.325149 0.053005
C49   C     C_R   0.593250 0.580372 0.664007 0.155188
C50   C     C_R   0.532019 0.394881 0.330270 0.132205
C51   C     C_R   0.617584 0.569053 0.712322 -0.163900
C52   C     C_R   0.555150 0.390752 0.279664 -0.220198
C53   C     C_R   0.543967 0.514911 0.745772 0.163309
C54   C     C_R   0.538740 0.475814 0.251206 0.184780
C55   C     C_3   0.711390 0.740997 0.653485 -0.750965
C56   C     C_R   0.538206 0.390802 0.121282 0.016015
C57   C     C_3   0.436318 0.252876 0.373403 -0.762372
C58   C     C_3   0.187711 0.753829 0.583381 -0.761182
C59   C     C_3   0.807987 0.418388 0.365541 -0.713450
C60   C     C_3   0.025081 0.247577 0.423969 -0.755709
C61   C     C_3   0.964856 0.562404 0.637727 -0.735234
C62   C     C_3   0.566808 0.734282 0.356086 -0.774036
C63   C     C_3   0.347214 0.308095 0.648778 -0.705060
C64   C     C_3   0.366274 0.634601 0.222810 -0.769529
C65   C     C_3   0.297580 0.499197 0.795318 -0.772642
C66   C     C_3   0.560741 0.792844 0.037874 -0.725326
C67   C     C_R   0.673748 0.667514 0.894292 -0.160608
C68   C     C_3   0.514262 0.118839 0.952769 -0.765149
C69   C     C_3   0.704093 0.126798 0.426715 -0.768570
C70   C     C_3   0.323404 0.869476 0.423389 -0.725150
C71   C     C_R   0.492704 0.310990 0.093615 -0.161515
C72   C     C_R   0.593474 0.398085 0.864324 -0.133135
H1    H     H_    0.188869 0.415895 0.450699 0.157899
H2    H     H_    0.648017 0.784236 0.676461 0.261581
H3    H     H_    0.749311 0.792103 0.623964 0.248857
H4    H     H_    0.779589 0.720157 0.675454 0.237723
H5    H     H_    0.599530 0.255309 0.342558 0.228860
H6    H     H_    0.394352 0.224952 0.340851 0.250991
H7    H     H_    0.380878 0.304984 0.395765 0.250875
H8    H     H_    0.450534 0.185701 0.395949 0.225867
H9    H     H_    0.201269 0.156654 0.502982 0.335315
H10   H     H_    0.795315 0.840688 0.507480 0.340035
H11   H     H_    0.773476 0.976545 0.552312 0.343301
H12   H     H_    0.809827 0.570132 0.554107 0.182581
H13   H     H_    0.201473 0.020894 0.545668 0.344827
H14   H     H_    0.303058 0.641946 0.573147 0.280558
H15   H     H_    0.263095 0.806605 0.579314 0.249616
H16   H     H_    0.148424 0.763753 0.621232 0.265914
H17   H     H_    0.129320 0.776888 0.556804 0.252289
H18   H     H_    0.704252 0.351393 0.424278 0.291012
H19   H     H_    0.739850 0.465330 0.355119 0.250229
H20   H     H_    0.816560 0.351572 0.339899 0.234738
H21   H     H_    0.886131 0.467474 0.361450 0.235747
H22   H     H_    0.079408 0.385375 0.390278 0.219468
H23   H     H_    0.694053 0.602788 0.724641 0.180124
H24   H     H_    0.052187 0.201353 0.390938 0.240375
H25   H     H_    0.945324 0.212693 0.440892 0.256218
H26   H     H_    0.089506 0.245362 0.450350 0.241190
H27   H     H_    0.923604 0.675828 0.590352 0.236898
H28   H     H_    0.937520 0.609223 0.670493 0.231419
H29   H     H_    0.041627 0.523532 0.645342 0.248754
H30   H     H_    0.897804 0.503661 0.630938 0.243022
H31   H     H_    0.411171 0.669068 0.379006 0.251856
H32   H     H_    0.614798 0.697078 0.383104 0.246373
H33   H     H_    0.544500 0.811539 0.370463 0.238873
H34   H     H_    0.585194 0.320605 0.262250 0.179451
H35   H     H_    0.620246 0.744271 0.321194 0.263986
H36   H     H_    0.282028 0.453130 0.643490 0.260261
H37   H     H_    0.403871 0.307133 0.614553 0.240997
H38   H     H_    0.266236 0.269324 0.641355 0.247987
H39   H     H_    0.383939 0.264397 0.677302 0.247249
H40   H     H_    0.479713 0.722565 0.260154 0.266192
H41   H     H_    0.354541 0.700176 0.198791 0.243532
H42   H     H_    0.295798 0.629983 0.251860 0.240606
H43   H     H_    0.365832 0.562973 0.200107 0.252498
H44   H     H_    0.313460 0.365162 0.753660 0.262568
H45   H     H_    0.695984 0.739436 0.875883 0.185607
H46   H     H_    0.240965 0.458220 0.823419 0.241667
H47   H     H_    0.246518 0.542368 0.771596 0.240914
H48   H     H_    0.352981 0.554090 0.814428 0.256159
H49   H     H_    0.796398 0.757919 0.110861 0.318290
H50   H     H_    0.647881 0.164627 0.870934 0.334713
H51   H     H_    0.729751 0.812228 0.047117 0.227380
H52   H     H_    0.561555 0.869698 0.020925 0.229970
H53   H     H_    0.525756 0.799222 0.076642 0.251338
H54   H     H_    0.506583 0.738934 0.017545 0.249178
H55   H     H_    0.681122 0.170808 0.958239 0.225513
H56   H     H_    0.440839 0.249247 0.110789 0.188561
H57   H     H_    0.490397 0.080005 0.988042 0.231526
H58   H     H_    0.544847 0.059522 0.925806 0.247185
H59   H     H_    0.438695 0.152662 0.940317 0.260985
H60   H     H_    0.725928 0.190690 0.496561 0.287493
H61   H     H_    0.768783 0.178341 0.407592 0.243182
H62   H     H_    0.634436 0.114843 0.403001 0.232596
H63   H     H_    0.741847 0.052072 0.431906 0.259033
H64   H     H_    0.281495 0.797549 0.490731 0.285158
H65   H     H_    0.256235 0.924706 0.430996 0.263092
H66   H     H_    0.292866 0.808459 0.398459 0.229440
H67   H     H_    0.742535 0.722513 0.957434 0.176611
H68   H     H_    0.397777 0.910344 0.404659 0.225500
H69   H     H_    0.466642 0.251347 0.023876 0.184793
H70   H     H_    0.623981 0.668053 0.600754 0.253705
N1    N     N_R   0.572963 0.505082 0.795168 -0.345625
N2    N     N_2   0.987381 0.628479 0.595945 -0.305045
N3    N     N_2   0.466421 0.672937 0.348134 -0.322822
N4    N     N_2   0.329004 0.412726 0.665455 -0.321479
N5    N     N_2   0.470929 0.650242 0.244564 -0.272553
N6    N     N_2   0.362311 0.425357 0.766282 -0.275885
N7    N     N_2   0.673275 0.757434 0.035388 -0.322210
N8    N     N_2   0.601477 0.197279 0.959694 -0.320433
N9    N     N_2   0.664791 0.172514 0.473431 -0.257600
N10   N     N_2   0.349773 0.823355 0.468394 -0.253469
N11   N     N_R   0.565612 0.470205 0.199107 -0.345995
N12   N     N_R   0.207800 0.519340 0.508990 -0.146621
N13   N     N_R   0.792200 0.480660 0.491010 -0.145472
N14   N     N_2   0.659750 0.650006 0.632045 -0.293072
N15   N     N_2   0.542009 0.305285 0.358252 -0.309426
N16   N     N_2   0.219026 0.647796 0.575628 -0.311575
N17   N     N_2   0.783237 0.381476 0.415081 -0.297851
N18   N     N_2   0.010694 0.352459 0.410184 -0.300911
O1    O     O_R   0.421700 0.658820 0.502400 -0.653855
O2    O     O_2   0.447163 0.321686 0.194584 -0.571933
O3    O     O_2   0.693843 0.610532 0.204827 -0.494428
O4    O     O_2   0.561452 0.325096 0.785742 -0.484000
O5    O     O_3   0.265022 0.196890 0.515316 -0.754386
O6    O     O_3   0.725509 0.801882 0.519020 -0.772654
O7    O     O_3   0.737827 0.020365 0.529644 -0.790765
O8    O     O_3   0.247910 0.978244 0.522308 -0.807316
O9    O     O_3   0.733539 0.722523 0.130495 -0.701747
O10   O     O_3   0.600508 0.214029 0.856537 -0.694857
O11   O     O_R   0.578300 0.341180 0.497600 -0.638881
O12   O     O_R   0.609310 0.646410 0.496630 -0.558655
O13   O     O_R   0.390690 0.353590 0.503370 -0.550060
O14   O     O_R   0.406200 0.506190 0.574130 -0.649524
O15   O     O_R   0.593800 0.493810 0.425870 -0.625013
O16   O     O_R   0.593820 0.493770 0.568360 -0.613925
O17   O     O_R   0.406180 0.506230 0.431640 -0.639362
O18   O     O_2   0.599387 0.685568 0.801705 -0.571172
Zn1   Zn    Zn3+2 0.374730 0.508290 0.503850 0.945470
Zn2   Zn    Zn3+2 0.625270 0.491710 0.496150 0.963329

loop_
_geom_bond_atom_site_label_1
_geom_bond_atom_site_label_2
_ccdc_geom_bond_type
H49   O9    S    
H51   N7    S    
C26   O5    S    
C1    C21   S    
C27   N10   S    
C23   C45   A    
C27   C29   A    
C57   H7    S    
C49   N14   S    
C19   C71   A    
C35   N12   A    
C58   H15   S    
C54   N11   S    
C3    C49   A    
C62   H33   S    
C37   N12   A    
C70   H68   S    
C15   C72   A    
C69   H62   S    
H40   N5    S    
C24   O8    S    
C24   C26   A    
C13   N8    S    
C5    C11   A    
C60   H26   S    
H55   N8    S    
C4    C48   A    
C38   C39   A    
C11   C14   A    
C42   O4    S    
O13   Zn1   S    
C16   O14   A    
C3    C47   A    
H18   N17   S    
C24   C29   A    
C21   C25   A    
C55   H2    S    
C59   N17   S    
C44   C53   A    
C11   N7    S    
C49   C51   A    
C22   C25   A    
C45   C67   A    
C50   C52   A    
C65   H46   S    
C31   C33   A    
C32   C38   A    
O1    Zn1   S    
C63   N4    S    
H36   N4    S    
C31   N18   S    
C44   C47   A    
C34   C56   A    
C55   H3    S    
O12   Zn2   S    
C21   C27   A    
C47   N4    S    
C52   H34   S    
O17   Zn1   S    
C19   H69   S    
C64   H43   S    
C41   O2    S    
C57   H8    S    
C46   C54   A    
C55   N14   S    
C14   O9    S    
C2    C14   A    
C57   H6    S    
H64   N10   S    
C52   C54   A    
C12   O11   A    
C41   N11   A    
C50   N15   S    
C40   C45   A    
C46   C48   A    
C64   H42   S    
C69   N9    S    
C32   C35   A    
H27   N2    S    
C70   N10   S    
C66   N7    S    
C60   H25   S    
C58   N16   S    
H44   N6    S    
C62   H35   S    
C20   C28   A    
H50   O10   S    
C18   C67   A    
H11   O7    S    
C62   N3    S    
C62   H32   S    
C8    C18   A    
C66   H54   S    
C15   O10   S    
C4    C50   A    
C51   C53   A    
C63   H37   S    
C68   H59   S    
C61   H29   S    
C41   C56   A    
C5    C9    A    
C29   C30   A    
C67   H45   S    
C61   N2    S    
C46   N5    S    
C2    C43   A    
C56   C71   A    
C48   N3    S    
C12   C20   S    
C42   C72   A    
C65   H47   S    
C59   H19   S    
C65   N6    S    
C68   H58   S    
H14   N16   S    
C6    C7    A    
C28   N9    S    
C40   O18   S    
C4    C17   S    
C60   H24   S    
C70   H66   S    
C7    C19   A    
C13   C15   A    
C64   N5    S    
C9    C34   A    
C25   O6    S    
C66   H52   S    
O11   Zn2   S    
C61   H28   S    
C55   H4    S    
N13   Zn2   S    
H31   N3    S    
H10   O6    S    
C17   O17   A    
C7    C9    A    
C57   N15   S    
H22   N18   S    
C64   H41   S    
C22   C30   A    
C2    C34   A    
H13   O8    S    
C23   C72   A    
C60   N18   S    
C58   H16   S    
C6    C10   A    
C5    C8    A    
C33   N13   A    
O15   Zn2   S    
C69   H61   S    
C10   C23   A    
C1    O12   A    
C37   H1    S    
C66   H53   S    
H70   N14   S    
C63   H38   S    
C36   C38   A    
C61   H30   S    
C35   N16   S    
C37   C39   A    
C43   N11   A    
C6    C13   A    
C16   O16   A    
C20   C26   A    
C36   H12   S    
C28   C30   A    
C44   N6    S    
C65   H48   S    
C31   C39   A    
C59   H20   S    
C63   H39   S    
C18   H67   S    
C71   H56   S    
C58   H17   S    
C32   N2    S    
C68   N8    S    
C1    O1    A    
C17   O15   A    
O16   Zn2   S    
C68   H57   S    
C70   H65   S    
C8    C10   A    
C40   N1    A    
H5    N15   S    
C42   N1    A    
H60   N9    S    
H9    O5    S    
C59   H21   S    
C53   N1    S    
N12   Zn1   S    
C43   O3    S    
O14   Zn1   S    
C3    C16   S    
C33   N17   S    
C36   N13   A    
C51   H23   S    
C12   O13   A    
C69   H63   S    
C22   O7    S    
