data_mof_unit_474.cif
_audit_creation_date              2012-12-11T14:58:32-0500
_audit_creation_method            fapswitch 2.2
_symmetry_space_group_name_H-M    P1
_symmetry_Int_Tables_number       1
_space_group_crystal_system       triclinic
_cell_length_a                    10.947357
_cell_length_b                    10.927485
_cell_length_c                    18.7489
_cell_angle_alpha                 90.171514
_cell_angle_beta                  90.453209
_cell_angle_gamma                 59.543925
_cell_volume                      1933.33779526

loop_
_atom_site_label
_atom_site_type_symbol
_atom_type_description
_atom_site_fract_x
_atom_site_fract_y
_atom_site_fract_z
_atom_type_partial_charge
C1    C     C_R   0.358691 0.773637 0.397966 0.537920
C2    C     C_R   0.613885 0.114886 0.166360 0.056140
C3    C     C_R   0.361172 0.331735 0.161905 -0.005392
C4    C     C_R   0.480170 0.237777 0.273940 -0.151846
C5    C     C_R   0.483720 0.232163 0.200271 -0.026245
C6    C     C_R   0.070368 0.713615 0.280865 -0.085632
C7    C     C_R   0.949432 0.828371 0.310375 -0.110465
C8    C     C_R   0.670648 0.973916 0.189925 -0.095556
C9    C     C_R   0.787703 0.862696 0.155966 -0.119092
C10   C     C_R   0.248689 0.444758 0.197936 -0.154548
C11   C     C_R   0.246770 0.452805 0.272161 -0.032317
C12   C     C_R   0.386020 0.355158 0.387193 0.528916
C13   C     C_R   0.875516 0.805470 0.363973 -0.120703
C14   C     C_R   0.923055 0.667852 0.388367 -0.110275
C15   C     C_R   0.044276 0.552889 0.359295 -0.048206
C16   C     C_R   0.120040 0.574548 0.305505 0.059355
C17   C     C_R   0.363441 0.344539 0.310955 -0.002988
C18   C     C_R   0.955416 0.302679 0.308086 -0.157907
C19   C     C_R   0.984086 0.294456 0.235816 -0.128187
C20   C     C_R   0.874670 0.332132 0.185810 0.034953
C21   C     C_R   0.735984 0.381909 0.207277 -0.152405
C22   C     C_R   0.706906 0.392672 0.279505 -0.117625
C23   C     C_R   0.778355 0.377778 0.403312 0.531483
C24   C     C_R   0.816687 0.353189 0.329577 0.041036
C25   C     C_R   0.471025 0.788161 0.287522 -0.144526
C26   C     C_R   0.458972 0.814341 0.214590 -0.153475
C27   C     C_R   0.324267 0.888744 0.184197 0.032685
C28   C     C_R   0.202845 0.948095 0.227446 -0.142896
C29   C     C_R   0.214767 0.923470 0.299671 -0.151726
C30   C     C_R   0.347925 0.836714 0.329125 0.027345
C31   C     C_R   0.380226 0.178738 0.689761 -0.017851
C32   C     C_R   0.353475 0.161991 0.760518 -0.132097
C33   C     C_R   0.273785 0.279697 0.804044 0.010342
C34   C     C_R   0.345789 0.767079 0.605241 0.547776
C35   C     C_R   0.208528 0.416519 0.775305 -0.144960
C36   C     C_R   0.226304 0.435374 0.703846 -0.152347
C37   C     C_R   0.317578 0.318530 0.661329 0.016049
C38   C     C_R   0.896341 0.402405 0.708904 -0.122055
C39   C     C_R   0.928870 0.386620 0.780440 -0.116659
C40   C     C_R   0.915206 0.287392 0.821076 0.032057
C41   C     C_R   0.872230 0.199541 0.788472 -0.132566
C42   C     C_R   0.834775 0.218312 0.716373 -0.137056
C43   C     C_R   0.841835 0.323988 0.677172 0.027511
C44   C     C_R   0.196494 0.855411 0.711384 -0.150581
C45   C     C_R   0.368575 0.348228 0.595248 0.539261
C46   C     C_R   0.185935 0.865419 0.784581 -0.158622
C47   C     C_R   0.304381 0.835888 0.826735 0.040200
C48   C     C_R   0.437417 0.785479 0.794835 0.055171
C49   C     C_R   0.447496 0.773744 0.721307 -0.113059
C50   C     C_R   0.327155 0.810007 0.679263 0.008420
C51   C     C_R   0.910593 0.316282 0.111764 0.546390
C52   C     C_R   0.330090 0.295469 0.091685 0.547632
C53   C     C_R   0.301435 0.910309 0.108255 0.554820
C54   C     C_R   0.946474 0.281167 0.896944 0.553971
C55   C     C_R   0.268808 0.254897 0.879946 0.530714
C56   C     C_R   0.768542 0.373440 0.609102 0.547662
C57   C     C_R   0.277477 0.890700 0.898854 0.557886
C58   C     C_R   0.850054 0.890799 0.098494 -0.107001
C59   C     C_R   0.794968 0.030121 0.074680 -0.079948
C60   C     C_R   0.678548 0.142023 0.108804 -0.057452
Cr1   Cr    Cr6+3 0.601770 0.606860 0.505860 0.979736
Cr2   Cr    Cr6+3 0.291380 0.601660 0.495070 1.018609
Cr3   Cr    Cr6+3 0.606880 0.291510 0.499120 1.013494
Cr4   Cr    Cr6+3 0.062440 0.063090 0.008210 0.979119
Cr5   Cr    Cr6+3 0.062880 0.375170 0.998920 1.021285
Cr6   Cr    Cr6+3 0.374700 0.061720 0.992470 1.053363
H1    H     H_    0.574011 0.159560 0.302430 0.140130
H2    H     H_    0.781416 0.894222 0.386524 0.106219
H3    H     H_    0.866193 0.650193 0.429960 0.122794
H4    H     H_    0.080449 0.447490 0.379592 0.094408
H5    H     H_    0.040217 0.269788 0.346791 0.093631
H6    H     H_    0.091784 0.256673 0.218650 0.124161
H7    H     H_    0.651085 0.413934 0.168657 0.104579
H8    H     H_    0.598478 0.434486 0.296578 0.127475
H9    H     H_    0.575749 0.720863 0.310113 0.145110
H10   H     H_    0.552966 0.770373 0.181857 0.126492
H11   H     H_    0.097193 0.009274 0.204948 0.150135
H12   H     H_    0.829880 0.754590 0.174187 0.125433
H13   H     H_    0.119935 0.963727 0.331545 0.127857
H14   H     H_    0.402494 0.056443 0.783295 0.142449
H15   H     H_    0.147326 0.509129 0.808388 0.136680
H16   H     H_    0.178903 0.543019 0.683851 0.137418
H17   H     H_    0.903667 0.484103 0.679924 0.132863
H18   H     H_    0.958201 0.457617 0.804999 0.146792
H19   H     H_    0.860644 0.122307 0.819142 0.129033
H20   H     H_    0.792302 0.156925 0.692743 0.133228
H21   H     H_    0.103190 0.879619 0.680113 0.132907
H22   H     H_    0.912224 0.934983 0.291146 0.115255
H23   H     H_    0.082813 0.902859 0.807805 0.134669
H24   H     H_    0.551009 0.730938 0.697469 0.172178
H25   H     H_    0.940430 0.804533 0.072106 0.115645
H26   H     H_    0.841644 0.051161 0.029192 0.151956
H27   H     H_    0.636104 0.249063 0.088968 0.103036
H28   H     H_    0.125456 0.733099 0.238750 0.118088
H29   H     H_    0.623098 0.949728 0.233989 0.108092
H30   H     H_    0.155761 0.521844 0.168373 0.133518
O1    O     O_R   0.748800 0.497470 0.428000 -0.537545
O2    O     O_R   0.300070 0.471040 0.567100 -0.509232
O3    O     O_R   0.491670 0.258900 0.574910 -0.504607
O4    O     O_R   0.718780 0.304180 0.577850 -0.500158
O5    O     O_3   0.500010 0.500010 0.500020 -0.239728
O6    O     O_R   0.186690 0.923650 0.086970 -0.530776
O7    O     O_R   0.957250 0.194250 0.084630 -0.517457
O8    O     O_R   0.934970 0.407490 0.085330 -0.505899
O9    O     O_R   0.203780 0.365190 0.067090 -0.505044
O10   O     O_R   0.417600 0.174890 0.067840 -0.497878
O11   O     O_R   0.375320 0.946260 0.070860 -0.483643
O12   O     O_R   0.476420 0.724060 0.429470 -0.525905
O13   O     O_R   0.160600 0.919630 0.926660 -0.538582
O14   O     O_R   0.933060 0.190520 0.936020 -0.516003
O15   O     O_R   0.908880 0.403460 0.925020 -0.484311
O16   O     O_R   0.179600 0.361450 0.918490 -0.519140
O17   O     O_R   0.391510 0.170860 0.907530 -0.491382
O18   O     O_R   0.351130 0.942530 0.922260 -0.488217
O19   O     O_3   0.166667 0.166667 0.999870 -0.295530
O20   O     O_R   0.264580 0.744340 0.416750 -0.502909
O21   O     O_R   0.309380 0.472470 0.418200 -0.493027
O22   O     O_R   0.501710 0.260430 0.414300 -0.536741
O23   O     O_R   0.728090 0.305600 0.428960 -0.503811
O24   O     O_R   0.738760 0.495930 0.588610 -0.530873
O25   O     O_R   0.467110 0.722640 0.578360 -0.503956
O26   O     O_R   0.254530 0.742800 0.577360 -0.524533
C61   C     C_R   0.487544 0.050411 0.650885 0.044161
C62   C     C_R   0.621607 0.961952 0.682165 -0.098416
C63   C     C_R   0.728029 0.848639 0.643921 -0.126730
C64   C     C_R   0.702860 0.824267 0.573708 -0.081309
C65   C     C_R   0.570522 0.911744 0.541946 -0.065564
C66   C     C_R   0.461652 0.021666 0.580989 -0.060601
H31   H     H_    0.644886 0.982515 0.735636 0.126606
H32   H     H_    0.830772 0.781095 0.668358 0.105131
H33   H     H_    0.786085 0.737507 0.544097 0.095694
H34   H     H_    0.551962 0.893770 0.487217 0.114319
H35   H     H_    0.359370 0.088133 0.555831 0.089163
I1    I     I_    0.628375 0.722594 0.852509 -0.384834

loop_
_geom_bond_atom_site_label_1
_geom_bond_atom_site_label_2
_ccdc_geom_bond_type
C33   C55   S    
Cr4   O7    S    
C64   C65   A    
Cr6   O17   S    
C55   O16   A    
C56   O24   A    
C41   C42   A    
C35   C36   A    
C49   H24   S    
Cr3   O5    S    
C35   H15   S    
C61   C62   A    
C46   H23   S    
Cr4   O6    S    
C26   C27   A    
Cr3   O4    S    
C18   C24   A    
C48   I1    S    
C28   C29   A    
C39   H18   S    
C18   C19   A    
C20   C51   S    
C45   O2    A    
C23   O23   A    
C38   C39   A    
C38   H17   S    
C2    C60   A    
C47   C57   S    
C51   O7    A    
C15   C16   A    
C21   H7    S    
C18   H5    S    
C54   O14   A    
Cr1   O25   S    
C9    C58   A    
Cr1   O12   S    
C65   H34   S    
Cr5   O15   S    
Cr2   O21   S    
Cr3   O3    S    
Cr2   O2    S    
C63   H32   S    
C57   O13   A    
C47   C48   A    
C36   H16   S    
C8    C9    A    
C6    H28   S    
C12   C17   S    
C54   O15   A    
C26   H10   S    
C23   C24   S    
C42   H20   S    
C1    O20   A    
C44   H21   S    
C58   H25   S    
Cr6   O11   S    
C9    H12   S    
Cr2   O5    S    
C60   H27   S    
C52   O10   A    
C59   C60   A    
C34   O26   A    
Cr4   O19   S    
C21   C22   A    
Cr1   O24   S    
Cr5   O19   S    
C19   H6    S    
C8    H29   S    
Cr6   O10   S    
Cr5   O9    S    
C44   C46   A    
Cr1   O1    S    
C34   C50   S    
Cr6   O19   S    
C45   O3    A    
C39   C40   A    
Cr3   O22   S    
C55   O17   A    
C51   O8    A    
C31   C37   A    
C25   H9    S    
Cr1   O5    S    
Cr5   O16   S    
Cr2   O20   S    
C29   C30   A    
C32   H14   S    
Cr3   O23   S    
C11   C16   S    
C53   O11   A    
Cr4   O14   S    
C7    H22   S    
C29   H13   S    
C10   H30   S    
C53   O6    A    
C28   H11   S    
C57   O18   A    
C12   O22   A    
C4    C17   A    
C40   C41   A    
C23   O1    A    
C52   O9    A    
C34   O25   A    
C40   C54   S    
C63   C64   A    
C14   H3    S    
C22   C24   A    
C58   C59   A    
C2    C5    S    
C42   C43   A    
C22   H8    S    
C37   C45   S    
C65   C66   A    
Cr2   O26   S    
C44   C50   A    
C25   C30   A    
C15   H4    S    
C46   C47   A    
C36   C37   A    
Cr6   O18   S    
C31   C32   A    
C2    C8    A    
C4    C5    A    
C3    C5    A    
C11   C17   A    
C4    H1    S    
C3    C52   S    
C27   C53   S    
C6    C7    A    
C41   H19   S    
C32   C33   A    
C19   C20   A    
C25   C26   A    
C31   C61   S    
C38   C43   A    
C3    C10   A    
C66   H35   S    
Cr4   O13   S    
C64   H33   S    
C48   C49   A    
C1    C30   S    
C33   C35   A    
C62   H31   S    
C59   H26   S    
C10   C11   A    
C1    O12   A    
C6    C16   A    
C12   O21   A    
C43   C56   S    
C7    C13   A    
C20   C21   A    
C49   C50   A    
C61   C66   A    
C27   C28   A    
C56   O4    A    
C14   C15   A    
Cr5   O8    S    
C13   C14   A    
C62   C63   A    
C13   H2    S    
