data_mof_unit_3526.cif
_audit_creation_date              2013-03-05T16:05:38-0500
_audit_creation_method            fapswitch 2.2
_symmetry_space_group_name_H-M    P1
_symmetry_Int_Tables_number       1
_space_group_crystal_system       triclinic
_cell_length_a                    15.916266
_cell_length_b                    10.795257
_cell_length_c                    9.596813
_cell_angle_alpha                 90.089687
_cell_angle_beta                  89.846494
_cell_angle_gamma                 91.663549
_cell_volume                      1648.22344419

loop_
_atom_site_label
_atom_site_type_symbol
_atom_site_description
_atom_site_fract_x
_atom_site_fract_y
_atom_site_fract_z
_atom_type_partial_charge
O1    O     O_R   0.500000 0.319660 0.618740 -0.522958
O2    O     O_R   0.500000 0.680340 0.381260 -0.523290
O3    O     O_R   0.499990 0.319630 0.381170 -0.559806
O4    O     O_R   0.500010 0.680370 0.618830 -0.559735
C1    C     C_R   0.501473 0.262558 0.500058 0.863907
C2    C     C_R   0.498528 0.737441 0.499942 0.863780
O5    O     O_R   0.379080 0.500000 0.618760 -0.554142
O6    O     O_R   0.620920 0.500000 0.381240 -0.553876
O7    O     O_R   0.379080 0.499970 0.381190 -0.527246
O8    O     O_R   0.620920 0.500030 0.618810 -0.527336
C3    C     C_R   0.340166 0.499759 0.500188 0.823404
C4    C     C_R   0.659833 0.500246 0.499811 0.823483
Cu1   Cu    Cu3+1 0.500000 0.500020 0.640660 1.116006
Cu2   Cu    Cu3+1 0.500000 0.499980 0.359340 1.115998
C5    C     C_3   0.970029 0.387961 0.533563 0.151606
C6    C     C_3   0.029964 0.612136 0.466396 0.151660
C7    C     C_3   0.027962 0.416454 0.407409 0.273511
C8    C     C_3   0.972030 0.583643 0.592548 0.273540
C9    C     C_1   0.250906 0.499896 0.500896 0.000181
C10   C     C_1   0.749091 0.500144 0.499099 0.000310
C11   C     C_3   0.026025 0.471042 0.626816 0.149904
C12   C     C_3   0.973965 0.529056 0.373143 0.149968
C13   C     C_3   0.084373 0.500521 0.501783 -0.243783
C14   C     C_3   0.915620 0.499576 0.498179 -0.243795
C15   C     C_1   0.175690 0.500162 0.501676 0.249526
C16   C     C_1   0.824306 0.499909 0.498304 0.249499
C17   C     C_R   0.452082 0.063983 0.403757 -0.183329
C18   C     C_R   0.547915 0.936014 0.596249 -0.183335
H1    H     H_    0.413527 0.113293 0.330948 0.239991
H2    H     H_    0.586469 0.886703 0.669061 0.240020
C19   C     C_R   0.449186 0.935582 0.402803 0.420329
C20   C     C_R   0.550810 0.064415 0.597206 0.420270
C21   C     C_R   0.497777 0.871322 0.499538 -0.182110
C22   C     C_R   0.502222 0.128677 0.500465 -0.181952
C23   C     C_R   0.446349 0.422793 0.073756 0.372995
C24   C     C_R   0.553651 0.577208 0.926245 0.373016
C25   C     C_R   0.446545 0.422504 0.925568 0.314869
C26   C     C_R   0.553374 0.577618 0.074432 0.315004
N1    N     N_R   0.500020 0.500030 0.852070 -0.299534
N2    N     N_R   0.499980 0.499970 0.147930 -0.299558
Cl1   Cl    Cl    0.063421 0.305687 0.284307 -0.300978
Cl2   Cl    Cl    0.936570 0.694412 0.715648 -0.301022
N3    N     N_R   0.939764 0.263984 0.572240 0.213234
O9    O     O_R   0.993264 0.178923 0.600783 -0.182647
O10   O     O_R   0.859623 0.237597 0.578708 -0.254728
N4    N     N_R   0.060233 0.736112 0.427719 0.213235
O11   O     O_R   0.006735 0.821176 0.399176 -0.182632
O12   O     O_R   0.140374 0.762492 0.421252 -0.254676
N5    N     N_R   0.948333 0.562323 0.232775 0.215452
O13   O     O_R   0.005013 0.587554 0.138385 -0.176915
O14   O     O_R   0.869167 0.565994 0.200633 -0.228064
N6    N     N_R   0.051640 0.437787 0.767194 0.215465
O15   O     O_R   0.994948 0.412519 0.861556 -0.176957
O16   O     O_R   0.130800 0.434237 0.799398 -0.227844
Cl3   Cl    Cl    0.380488 0.859867 0.284146 -0.433010
Cl4   Cl    Cl    0.619497 0.140130 0.715878 -0.433119
Cl5   Cl    Cl    0.374802 0.321678 0.159910 -0.430372
Cl6   Cl    Cl    0.625240 0.678261 0.840097 -0.430296
N7    N     N_R   0.390213 0.339502 0.853378 0.180952
O17   O     O_R   0.409871 0.223899 0.840193 -0.265609
O18   O     O_R   0.311843 0.368548 0.841110 -0.240774
N8    N     N_R   0.609244 0.661290 0.146610 0.181056
O19   O     O_R   0.687526 0.632424 0.160687 -0.241585
O20   O     O_R   0.589502 0.776979 0.157903 -0.265163

loop_
_geom_bond_atom_site_label_1
_geom_bond_atom_site_label_2
_geom_bond_distance
_ccdc_geom_bond_type
C23   Cl5   1.759961 S    
O5    Cu1   1.936591 S    
C6    C12   1.534612 S    
O7    Cu2   1.935423 S    
C19   C21   1.406495 A    
N8    O19   1.300503 A    
C17   H1    1.081940 S    
C8    C11   1.545228 S    
O7    C3    1.297665 A    
C24   Cl6   1.759969 S    
C7    C12   1.545248 S    
C2    C21   1.445682 S    
O6    C4    1.296956 A    
N3    O9    1.300284 A    
C1    C22   1.445693 S    
C4    C10   1.420688 S    
N5    O14   1.299762 A    
C24   C26   1.422121 A    
C23   N2    1.374627 A    
C5    N3    1.457465 S    
N7    O17   1.301267 A    
C25   N1    1.370991 A    
C7    C13   1.550634 S    
Cu1   Cu2   2.699775 S    
C26   N2    1.370995 A    
N3    O10   1.300212 A    
C14   C16   1.453498 S    
C3    C9    1.420731 S    
C17   C22   1.398402 A    
C25   N7    1.428798 S    
O3    Cu2   1.958486 S    
C10   C16   1.197217 T    
C12   N5    1.457056 S    
O1    C1    1.294710 A    
O8    C4    1.297654 A    
O4    C2    1.298108 A    
C5    C14   1.542879 S    
C23   C25   1.422122 A    
N6    O16   1.299748 A    
C18   C21   1.398402 A    
O5    C3    1.296969 A    
C6    C13   1.542896 S    
C12   C14   1.543229 S    
C8    Cl2   1.781918 S    
C11   C13   1.543240 S    
O2    Cu2   1.958035 S    
C8    C14   1.550604 S    
C5    C11   1.534593 S    
Cu1   N1    2.028863 S    
C7    Cl1   1.781917 S    
O1    Cu1   1.958036 S    
C9    C15   1.197242 T    
Cu2   N2    2.028863 S    
N4    O12   1.300213 A    
C11   N6    1.457038 S    
C18   C20   1.385567 A    
C13   C15   1.453543 S    
N6    O15   1.300289 A    
C6    C8    1.545735 S    
N5    O13   1.300287 A    
N7    O18   1.300647 A    
C6    N4    1.457460 S    
O4    Cu1   1.958484 S    
C5    C7    1.545730 S    
N4    O11   1.300283 A    
N8    O20   1.300919 A    
O6    Cu2   1.936590 S    
C19   Cl3   1.764142 S    
C17   C19   1.385563 A    
C20   Cl4   1.764133 S    
C24   N1    1.374628 A    
O2    C2    1.294709 A    
C26   N8    1.428694 S    
C18   H2    1.081945 S    
O3    C1    1.298111 A    
O8    Cu1   1.935423 S    
C20   C22   1.406502 A    
