data_mof_unit_192.cif
_audit_creation_date              2013-03-05T16:22:27-0500
_audit_creation_method            fapswitch 2.2
_symmetry_space_group_name_H-M    P1
_symmetry_Int_Tables_number       1
_space_group_crystal_system       triclinic
_cell_length_a                    15.72376
_cell_length_b                    10.524067
_cell_length_c                    9.76338
_cell_angle_alpha                 89.740646
_cell_angle_beta                  89.960253
_cell_angle_gamma                 89.960912
_cell_volume                      1615.60634248

loop_
_atom_site_label
_atom_site_type_symbol
_atom_site_description
_atom_site_fract_x
_atom_site_fract_y
_atom_site_fract_z
_atom_type_partial_charge
O1    O     O_R   0.500000 0.313960 0.616610 -0.630951
O2    O     O_R   0.500000 0.686040 0.383390 -0.630950
O3    O     O_R   0.500040 0.313950 0.383350 -0.606296
O4    O     O_R   0.499960 0.686050 0.616650 -0.606297
C1    C     C_R   0.500879 0.257774 0.500360 0.950130
C2    C     C_R   0.499121 0.742226 0.499640 0.950131
O5    O     O_R   0.376760 0.499990 0.616610 -0.592785
O6    O     O_R   0.623240 0.500010 0.383390 -0.592784
O7    O     O_R   0.376790 0.499980 0.383350 -0.633709
O8    O     O_R   0.623210 0.500020 0.616650 -0.633709
C3    C     C_R   0.338102 0.499785 0.500008 0.934878
C4    C     C_R   0.661898 0.500215 0.499992 0.934877
Zn1   Zn    Zn3+2 0.499980 0.500010 0.655740 0.976466
Zn2   Zn    Zn3+2 0.500020 0.499990 0.344260 0.976467
C5    C     C_3   0.971583 0.419315 0.598763 -0.237437
C6    C     C_3   0.028417 0.580687 0.401238 -0.237441
C7    C     C_3   0.028071 0.380307 0.474821 -0.198060
C8    C     C_3   0.971929 0.619695 0.525181 -0.198061
H1    H     H_    0.052504 0.283606 0.452464 0.162466
H2    H     H_    0.947496 0.716395 0.547538 0.162467
H3    H     H_    0.946978 0.355808 0.680770 0.159615
H4    H     H_    0.053022 0.644193 0.319231 0.159616
C9    C     C_1   0.249222 0.499594 0.500027 -0.128339
C10   C     C_1   0.750778 0.500407 0.499973 -0.128340
C11   C     C_3   0.027546 0.537315 0.619981 0.282404
C12   C     C_3   0.972455 0.462687 0.380020 0.282403
C13   C     C_3   0.083127 0.499300 0.499025 0.087271
C14   C     C_3   0.916873 0.500702 0.500977 0.087272
C15   C     C_1   0.173955 0.499431 0.499743 -0.031551
C16   C     C_1   0.826045 0.500570 0.500258 -0.031548
C17   C     C_3   0.496459 0.040645 0.631471 -0.250326
C18   C     C_3   0.503541 0.959355 0.368528 -0.250324
C19   C     C_3   0.567754 0.955159 0.570904 -0.293030
C20   C     C_3   0.432246 0.044841 0.429096 -0.293029
H5    H     H_    0.623446 0.915560 0.626470 0.173103
H6    H     H_    0.376554 0.084440 0.373529 0.173103
H7    H     H_    0.492306 0.076006 0.738254 0.178848
H8    H     H_    0.507694 0.923994 0.261746 0.178848
C21   C     C_3   0.498717 0.876832 0.498827 -0.122407
C22   C     C_3   0.501283 0.123167 0.501173 -0.122408
C23   C     C_3   0.429180 0.960859 0.557765 0.381983
C24   C     C_3   0.570820 0.039141 0.442234 0.381982
C25   C     C_3   0.503676 0.385437 0.049087 -0.063889
C26   C     C_3   0.496324 0.614563 0.950913 -0.063889
C27   C     C_3   0.568195 0.447401 0.951481 -0.064387
C28   C     C_3   0.431805 0.552599 0.048518 -0.064388
H9    H     H_    0.625584 0.402973 0.905797 0.137888
H10   H     H_    0.374416 0.597027 0.094202 0.137888
H11   H     H_    0.506827 0.288849 0.095017 0.146327
H12   H     H_    0.493173 0.711151 0.904983 0.146326
N1    N     N_3   0.499940 0.500030 0.863290 -0.081978
N2    N     N_3   0.500060 0.499970 0.136710 -0.081978
C29   C     C_3   0.435418 0.438073 0.951793 -0.077321
C30   C     C_3   0.564582 0.561927 0.048206 -0.077320
H13   H     H_    0.381069 0.385875 0.906311 0.137946
H14   H     H_    0.618931 0.614125 0.093689 0.137946
N3    N     N_2   0.938555 0.422809 0.249362 -0.282647
H15   H     H_    0.895331 0.486532 0.209178 0.229911
C31   C     C_3   0.001648 0.382585 0.150942 -0.768191
H16   H     H_    0.969477 0.349249 0.056517 0.243611
H17   H     H_    0.039865 0.302710 0.193031 0.252754
H18   H     H_    0.044362 0.462977 0.124014 0.228659
N4    N     N_2   0.061445 0.577193 0.750639 -0.282647
H19   H     H_    0.104675 0.513476 0.790818 0.229913
C32   C     C_3   0.998351 0.617403 0.849065 -0.768194
H20   H     H_    0.030522 0.650749 0.943487 0.243615
H21   H     H_    0.955646 0.537001 0.875997 0.228657
H22   H     H_    0.960124 0.697269 0.806978 0.252753
N5    N     N_R   0.350075 0.918910 0.621425 0.202398
O9    O     O_R   0.297302 0.002683 0.669734 -0.396987
O10   O     O_R   0.330463 0.799021 0.627097 -0.406369
N6    N     N_R   0.649924 0.081090 0.378574 0.202398
O11   O     O_R   0.702698 0.997317 0.330266 -0.396987
O12   O     O_R   0.669536 0.200979 0.372898 -0.406367

loop_
_geom_bond_atom_site_label_1
_geom_bond_atom_site_label_2
_geom_bond_distance
_ccdc_geom_bond_type
N4    C32   1.445176 S    
C13   C15   1.428177 S    
C5    C14   1.542038 S    
C21   C23   1.520197 S    
O5    C3    1.290926 A    
C20   C23   1.533486 S    
C19   C21   1.536429 S    
O1    C1    1.282215 A    
C7    C12   1.538155 S    
C9    C15   1.183494 T    
C25   N2    1.482279 S    
N3    C31   1.445175 S    
C27   N1    1.481942 S    
C28   N2    1.481943 S    
C17   C22   1.538936 S    
C11   N4    1.446945 S    
C27   H9    1.110211 S    
O4    Zn1   1.993051 S    
N5    O10   1.299988 A    
C7    H1    1.110076 S    
Zn1   N1    2.026390 S    
C25   C29   1.535236 S    
Zn2   N2    2.026389 S    
C26   C28   1.535086 S    
C32   H21   1.111087 S    
C6    H4    1.110185 S    
C17   C19   1.555083 S    
C18   H8    1.110438 S    
C20   H6    1.110371 S    
C6    C13   1.542039 S    
C22   C24   1.520197 S    
C31   H16   1.110275 S    
O2    C2    1.282216 A    
C8    C11   1.538155 S    
N2    C30   1.481783 S    
C28   H10   1.110211 S    
C29   H13   1.110231 S    
C6    C12   1.537349 S    
C30   H14   1.110231 S    
C31   H17   1.110461 S    
C7    C13   1.542053 S    
C8    C14   1.542053 S    
N6    O12   1.299988 A    
C25   H11   1.110253 S    
C17   H7    1.110439 S    
N1    C29   1.481783 S    
C18   C20   1.555083 S    
O7    Zn2   1.974608 S    
C25   C27   1.535087 S    
C5    H3    1.110185 S    
O6    C4    1.290926 A    
C32   H22   1.110460 S    
C24   N6    1.457904 S    
O7    C3    1.290875 A    
O3    Zn2   1.993053 S    
O8    C4    1.290875 A    
C26   N1    1.482279 S    
O4    C2    1.284015 A    
C27   C30   1.535542 S    
C20   C22   1.536430 S    
O1    Zn1   1.996623 S    
C19   C24   1.533486 S    
C23   N5    1.457903 S    
C26   H12   1.110253 S    
C5    C7    1.557016 S    
C31   H18   1.111085 S    
O6    Zn2   1.975049 S    
C17   C23   1.532893 S    
N6    O11   1.300205 A    
O3    C1    1.284015 A    
O8    Zn1   1.974609 S    
C11   C13   1.523435 S    
C4    C10   1.397524 S    
C12   C14   1.523435 S    
C14   C16   1.428177 S    
N3    H15   1.030993 S    
C28   C29   1.535541 S    
C3    C9    1.397523 S    
C19   H5    1.110371 S    
C8    H2    1.110076 S    
N5    O9    1.300204 A    
O2    Zn2   1.996622 S    
C12   N3    1.446945 S    
C10   C16   1.183493 T    
C5    C11   1.537350 S    
N4    H19   1.030993 S    
C26   C30   1.535236 S    
O5    Zn1   1.975048 S    
C6    C8    1.557015 S    
C32   H20   1.110275 S    
C1    C22   1.416606 S    
C18   C21   1.538936 S    
C18   C24   1.532895 S    
C2    C21   1.416606 S    
