data_mof_unit_3910.cif
_audit_creation_date              2013-03-05T16:05:41-0500
_audit_creation_method            fapswitch 2.2
_symmetry_space_group_name_H-M    P1
_symmetry_Int_Tables_number       1
_space_group_crystal_system       triclinic
_cell_length_a                    26.157345
_cell_length_b                    7.205192
_cell_length_c                    23.902866
_cell_angle_alpha                 90.024629
_cell_angle_beta                  101.419346
_cell_angle_gamma                 89.972902
_cell_volume                      4415.76303817

loop_
_atom_site_label
_atom_site_type_symbol
_atom_site_description
_atom_site_fract_x
_atom_site_fract_y
_atom_site_fract_z
_atom_type_partial_charge
O1    O     O_R   0.547620 0.505720 0.453310 -0.590863
O2    O     O_R   0.452380 0.005720 0.546690 -0.590923
O3    O     O_R   0.442260 0.172470 0.436770 -0.581472
O4    O     O_R   0.557740 0.672470 0.563230 -0.583166
C1    C     C_R   0.076061 0.467833 0.078646 0.997617
C2    C     C_R   0.923924 0.967852 0.921381 0.988254
C3    C     C_R   0.424063 0.344688 0.421783 0.951339
C4    C     C_R   0.575914 0.844687 0.578251 0.941407
O5    O     O_R   0.546600 0.175780 0.446490 -0.590581
O6    O     O_R   0.453400 0.675780 0.553510 -0.590178
O7    O     O_R   0.557460 0.008970 0.556480 -0.579046
O8    O     O_R   0.442540 0.508970 0.443520 -0.575355
C5    C     C_R   0.562336 0.344609 0.434386 0.910375
C6    C     C_R   0.437311 0.844703 0.565144 0.911711
O9    O     O_R   0.047630 0.803580 0.953300 -0.587146
O10   O     O_R   0.952370 0.303580 0.046700 -0.586133
O11   O     O_3   0.503440 0.340340 0.536080 -0.282844
O12   O     O_3   0.496560 0.840340 0.463920 -0.279832
V1    V     V_3+5 0.499360 0.064140 0.493310 1.161050
V2    V     V_3+5 0.500640 0.564140 0.506690 1.160591
O13   O     O_R   0.057730 0.636870 0.063240 -0.577287
O14   O     O_R   0.942270 0.136870 0.936760 -0.577343
O15   O     O_3   0.996540 0.468950 0.963950 -0.280973
O16   O     O_3   0.003460 0.968950 0.036050 -0.278460
C7    C     C_R   0.131813 0.801804 0.895557 -0.075260
C8    C     C_R   0.861928 0.317331 0.095919 -0.127652
H1    H     H_    0.131923 0.694730 0.927379 0.122856
H2    H     H_    0.858804 0.224762 0.059670 0.114909
C9    C     C_R   0.167292 0.786745 0.859056 -0.086054
C10   C     C_R   0.825558 0.300121 0.131286 -0.089184
H3    H     H_    0.193391 0.668579 0.863100 0.090473
H4    H     H_    0.795837 0.193682 0.122180 0.103993
C11   C     C_R   0.169445 0.923357 0.817935 0.133017
C12   C     C_R   0.827878 0.417083 0.178479 0.145724
C13   C     C_R   0.135557 0.075797 0.813919 -0.158547
C14   C     C_R   0.866658 0.554426 0.189145 -0.146062
H5    H     H_    0.136548 0.179747 0.781387 0.172190
H6    H     H_    0.868584 0.644180 0.225922 0.142899
C15   C     C_R   0.098559 0.090460 0.849266 -0.097893
C16   C     C_R   0.904187 0.571961 0.154421 -0.089054
C17   C     C_R   0.097147 0.953248 0.891769 -0.208864
C18   C     C_R   0.901546 0.452565 0.106503 -0.193236
C19   C     C_R   0.245124 0.046588 0.781084 -0.108532
C20   C     C_R   0.736619 0.418749 0.194167 -0.168407
H7    H     H_    0.246071 0.163282 0.809878 0.116771
H8    H     H_    0.723594 0.446987 0.149081 0.115736
C21   C     C_R   0.282472 0.036338 0.746698 -0.096026
C22   C     C_R   0.699661 0.411521 0.229132 -0.085369
H9    H     H_    0.311253 0.145658 0.749241 0.091493
H10   H     H_    0.658842 0.432126 0.210401 0.106947
C23   C     C_R   0.282457 0.887433 0.708886 0.131134
C24   C     C_R   0.715239 0.381775 0.287999 0.138507
C25   C     C_R   0.245249 0.746294 0.707165 -0.187984
C26   C     C_R   0.768242 0.351878 0.310994 -0.178572
H11   H     H_    0.244900 0.632427 0.677424 0.162659
H12   H     H_    0.780006 0.324252 0.356293 0.153755
C27   C     C_R   0.206947 0.755371 0.741103 -0.088281
C28   C     C_R   0.806001 0.356087 0.276233 -0.084251
C29   C     C_R   0.207138 0.907518 0.779011 0.012530
C30   C     C_R   0.790001 0.394639 0.217025 0.019616
C31   C     C_R   0.352724 0.721913 0.672169 -0.093607
C32   C     C_R   0.670505 0.216718 0.356098 -0.120591
H13   H     H_    0.348734 0.607820 0.700508 0.118148
H14   H     H_    0.695150 0.097905 0.353093 0.135945
C33   C     C_R   0.390367 0.709446 0.638111 -0.093771
C34   C     C_R   0.633012 0.203683 0.390277 -0.091241
H15   H     H_    0.414160 0.585528 0.640616 0.132224
H16   H     H_    0.629991 0.075559 0.413081 0.127304
C35   C     C_R   0.397735 0.856268 0.602008 -0.151508
C36   C     C_R   0.600670 0.355120 0.395930 -0.144235
C37   C     C_R   0.365862 0.014461 0.599976 -0.207554
C38   C     C_R   0.606444 0.519595 0.366042 -0.213583
H17   H     H_    0.370090 0.126192 0.570891 0.166963
H18   H     H_    0.582030 0.638037 0.370552 0.169733
C39   C     C_R   0.326697 0.026983 0.632676 -0.061043
C40   C     C_R   0.643829 0.534697 0.331023 -0.048534
C41   C     C_R   0.320778 0.879782 0.670400 0.010433
C42   C     C_R   0.676156 0.379780 0.325648 0.010164
C43   C     C_3   0.752260 0.793883 0.811052 -0.521616
C44   C     C_3   0.247553 0.293582 0.189221 -0.521782
C45   C     C_3   0.764949 0.113758 0.776121 0.108059
C46   C     C_3   0.234870 0.613655 0.224116 0.106825
C47   C     C_3   0.718366 0.094639 0.724201 -0.505670
C48   C     C_3   0.281493 0.594564 0.275993 -0.504704
H19   H     H_    0.742506 0.851401 0.850596 0.182111
H20   H     H_    0.257326 0.350977 0.149688 0.181717
H21   H     H_    0.746893 0.150721 0.813138 0.085343
H22   H     H_    0.252889 0.650457 0.187072 0.085292
H23   H     H_    0.682868 0.162037 0.733368 0.159597
H24   H     H_    0.316984 0.661681 0.266761 0.161104
H25   H     H_    0.726712 0.172923 0.686904 0.169835
H26   H     H_    0.273205 0.673143 0.313288 0.170906
C49   C     C_1   0.621732 0.856539 0.623779 -0.287398
C50   C     C_1   0.378186 0.356543 0.376344 -0.280164
C51   C     C_3   0.792839 0.921835 0.791038 0.328343
C52   C     C_3   0.206979 0.421766 0.209228 0.328664
C53   C     C_3   0.702972 0.769125 0.762238 0.102721
C54   C     C_3   0.296825 0.268709 0.238039 0.096364
C55   C     C_3   0.708031 0.887004 0.707596 0.249045
C56   C     C_3   0.291806 0.386978 0.292650 0.248780
C57   C     C_3   0.758410 0.822403 0.686105 0.008556
C58   C     C_3   0.241433 0.322826 0.314199 0.009506
C59   C     C_3   0.806374 0.826114 0.737183 -0.489453
C60   C     C_3   0.193462 0.326306 0.263113 -0.486905
C61   C     C_1   0.660457 0.870304 0.661335 -0.036333
C62   C     C_1   0.339411 0.370302 0.338860 -0.034808
C63   C     C_1   0.840134 0.940406 0.837447 -0.045226
C64   C     C_1   0.159705 0.440337 0.162778 -0.045443
C65   C     C_1   0.878435 0.955552 0.875454 -0.271428
C66   C     C_1   0.121467 0.455495 0.124684 -0.271305
H27   H     H_    0.820005 0.683381 0.749477 0.169170
H28   H     H_    0.179880 0.183503 0.250863 0.169521
H29   H     H_    0.839968 0.891982 0.723350 0.181313
H30   H     H_    0.159846 0.392246 0.276922 0.181339
H31   H     H_    0.769913 0.655723 0.823544 0.148611
H32   H     H_    0.229890 0.155472 0.176713 0.148932
H33   H     H_    0.703783 0.621794 0.748849 0.062921
H34   H     H_    0.295960 0.121479 0.251475 0.065593
H35   H     H_    0.767011 0.928179 0.655242 0.159019
H36   H     H_    0.232836 0.428926 0.345001 0.160299
V3    V     V_3+5 0.000640 0.745210 0.006690 1.179996
V4    V     V_3+5 0.999360 0.245210 0.993310 1.180638
O17   O     O_R   0.057440 0.306950 0.056520 -0.590750
O18   O     O_R   0.942560 0.806950 0.943480 -0.591365
O19   O     O_R   0.953390 0.633680 0.053510 -0.583366
O20   O     O_R   0.046610 0.133680 0.946490 -0.584259
C67   C     C_R   0.938543 0.464612 0.066525 0.955133
C68   C     C_R   0.061158 0.964577 0.933054 0.940970
C69   C     C_2   0.291103 0.190241 0.623789 0.961119
O21   O     O_2   0.306455 0.338311 0.608300 -0.668058
O22   O     O_R   0.239503 0.173964 0.630916 -0.765009
H37   H     H_    0.219364 0.294559 0.623176 0.347652
C70   C     C_2   0.649152 0.715548 0.302565 0.949027
O23   O     O_2   0.611792 0.820740 0.291448 -0.652777
O24   O     O_R   0.696905 0.768523 0.289575 -0.801019
H38   H     H_    0.695050 0.892815 0.269395 0.320880
C71   C     C_3   0.649979 0.782501 0.782840 -0.307261
C72   C     C_3   0.642890 0.943449 0.822651 -0.908340
H39   H     H_    0.664614 0.917635 0.866713 0.245146
H40   H     H_    0.654759 0.078321 0.807750 0.252022
H41   H     H_    0.601008 0.953847 0.825004 0.245407
H42   H     H_    0.617055 0.785064 0.745621 0.182184
H43   H     H_    0.644881 0.652250 0.806115 0.174844
C73   C     C_3   0.349819 0.281456 0.217423 -0.304959
C74   C     C_3   0.356970 0.442134 0.177592 -0.894769
H44   H     H_    0.335270 0.416188 0.133524 0.242298
H45   H     H_    0.345100 0.577159 0.192443 0.251069
H46   H     H_    0.398863 0.452273 0.175277 0.250971
H47   H     H_    0.382755 0.283875 0.254632 0.187188
H48   H     H_    0.354852 0.151036 0.194161 0.177557
C75   C     C_3   0.800544 0.283039 0.771447 -0.390671
C76   C     C_3   0.839545 0.259737 0.732097 -0.862384
H49   H     H_    0.871894 0.166899 0.751886 0.269634
H50   H     H_    0.820123 0.207348 0.689555 0.250564
H51   H     H_    0.857608 0.395751 0.726273 0.240067
H52   H     H_    0.775138 0.403269 0.756485 0.180844
H53   H     H_    0.822683 0.320006 0.814670 0.193668
C77   C     C_3   0.199280 0.783059 0.228835 -0.388760
C78   C     C_3   0.160322 0.760001 0.268235 -0.867054
H54   H     H_    0.127956 0.667249 0.248470 0.267058
H55   H     H_    0.179776 0.707642 0.310761 0.252482
H56   H     H_    0.142281 0.896108 0.274094 0.240816
H57   H     H_    0.224692 0.903244 0.243787 0.181318
H58   H     H_    0.177107 0.819995 0.185630 0.193094
C79   C     C_3   0.753311 0.633299 0.653581 -0.363356
C80   C     C_3   0.739974 0.656374 0.588641 -0.895098
H59   H     H_    0.702823 0.732356 0.574836 0.261039
H60   H     H_    0.771613 0.732916 0.573711 0.261607
H61   H     H_    0.736038 0.517493 0.568061 0.255632
H62   H     H_    0.790835 0.557126 0.662862 0.217200
H63   H     H_    0.723521 0.542542 0.666598 0.190998
C81   C     C_3   0.246536 0.134031 0.346860 -0.378327
C82   C     C_3   0.259977 0.157676 0.411801 -0.865104
H64   H     H_    0.297165 0.233434 0.425512 0.261045
H65   H     H_    0.228403 0.234671 0.426755 0.263134
H66   H     H_    0.263900 0.018996 0.432482 0.255014
H67   H     H_    0.208988 0.058061 0.337674 0.218477
H68   H     H_    0.276272 0.042905 0.333834 0.192573
C83   C     C_2   0.060130 0.243744 0.837877 1.025761
O25   O     O_2   0.074610 0.400715 0.829350 -0.651359
O26   O     O_R   0.007132 0.207760 0.835072 -0.794028
H69   H     H_    0.984779 0.323319 0.826711 0.326614
C84   C     C_2   0.947091 0.707609 0.171795 1.021467
O27   O     O_2   0.938295 0.856368 0.192710 -0.618061
O28   O     O_R   0.997953 0.662943 0.166496 -0.807490
H70   H     H_    0.023721 0.766153 0.180274 0.324713
C85   C     C_2   0.165864 0.610078 0.733305 0.994723
O29   O     O_2   0.175702 0.453339 0.718800 -0.661857
O30   O     O_R   0.115372 0.653378 0.740182 -0.756217
H71   H     H_    0.090575 0.544488 0.731258 0.351659
C86   C     C_2   0.861145 0.313284 0.302644 0.995267
O31   O     O_2   0.877266 0.343527 0.353438 -0.625683
O32   O     O_R   0.894384 0.233344 0.270177 -0.767029
H72   H     H_    0.930739 0.210216 0.293208 0.344625

loop_
_geom_bond_atom_site_label_1
_geom_bond_atom_site_label_2
_geom_bond_distance
_ccdc_geom_bond_type
C81   H67   1.107907 S    
C79   H63   1.108273 S    
C34   H16   1.083120 S    
C71   H42   1.109117 S    
C79   C80   1.531218 S    
C43   H31   1.112902 S    
C25   H11   1.084203 S    
C2    O18   1.326170 A    
C38   C40   1.411784 A    
C86   O32   1.398670 S    
C74   H44   1.108987 S    
O24   H38   1.013954 S    
C21   H9    1.083190 S    
C82   H64   1.107094 S    
V3    O19   1.993782 S    
O7    V1    1.959294 S    
C75   H53   1.112056 S    
C59   H29   1.105574 S    
C40   C42   1.421070 A    
C69   O21   1.223175 D    
O3    C3    1.351640 A    
C84   O28   1.398540 S    
C45   C51   1.571005 S    
C33   C35   1.402768 A    
C27   C29   1.421323 A    
C1    C66   1.453269 S    
C28   C30   1.421584 A    
C2    O14   1.333717 A    
C9    C11   1.400337 A    
O11   V2    1.754877 S    
O5    C5    1.334474 A    
C7    C9    1.398097 A    
C59   H27   1.108854 S    
O12   V1    1.754387 S    
O4    C4    1.351743 A    
C35   C37   1.407024 A    
O10   V4    1.984046 S    
V3    O18   1.969709 S    
C73   H48   1.112638 S    
C49   C61   1.217262 T    
O5    V1    1.993912 S    
C50   C62   1.217151 T    
C44   H32   1.112906 S    
O6    V2    1.993053 S    
C51   C59   1.561285 S    
C32   H14   1.082281 S    
C75   C76   1.527491 S    
C78   H55   1.108985 S    
O14   V4    1.966564 S    
C44   C52   1.551692 S    
C19   C29   1.405405 A    
C16   C84   1.484367 S    
C44   C54   1.568218 S    
C16   C18   1.422889 A    
C52   C64   1.495328 S    
C11   C29   1.487905 S    
C53   H33   1.110013 S    
C47   C55   1.557611 S    
C12   C30   1.489416 S    
C63   C65   1.216795 T    
C17   C68   1.494775 S    
C80   H59   1.107088 S    
C48   H24   1.107247 S    
C24   C42   1.489792 S    
C53   C71   1.563126 S    
C45   C47   1.563675 S    
C24   C26   1.403101 A    
C54   H34   1.110031 S    
O15   V4    1.754179 S    
C82   H65   1.110835 S    
C58   C81   1.561150 S    
C3    O8    1.343585 A    
C55   C61   1.496976 S    
C26   H12   1.083928 S    
C37   C39   1.409065 A    
C46   C52   1.571051 S    
C10   C12   1.399459 A    
C86   O31   1.223319 D    
C57   H35   1.114464 S    
C14   C16   1.411154 A    
C80   H60   1.110838 S    
C38   H18   1.083687 S    
C53   C55   1.585650 S    
C7    C17   1.409874 A    
C60   H28   1.108837 S    
C25   C27   1.409912 A    
C21   C23   1.402499 A    
C20   H8    1.083340 S    
C33   H15   1.082990 S    
O26   H69   1.014148 S    
C31   C41   1.406789 A    
C23   C25   1.402905 A    
C48   C56   1.557563 S    
C77   C78   1.527484 S    
V4    O20   1.992925 S    
C13   C15   1.408980 A    
C84   O27   1.223333 D    
C23   C41   1.489657 S    
C43   C51   1.551718 S    
C73   H47   1.109108 S    
C19   H7    1.083523 S    
C78   H54   1.108352 S    
C76   H51   1.108894 S    
C22   C24   1.401801 A    
O3    V1    1.966476 S    
O8    V2    1.959327 S    
C31   H13   1.083539 S    
C78   H56   1.108897 S    
C46   C77   1.552293 S    
C75   H52   1.107072 S    
C58   C60   1.568287 S    
C39   C41   1.420646 A    
C45   H21   1.114482 S    
C51   C63   1.495176 S    
C77   H57   1.107098 S    
C60   H30   1.105564 S    
C18   C67   1.491151 S    
C55   C57   1.576181 S    
C76   H50   1.109009 S    
C8    C10   1.397748 A    
C46   C48   1.563655 S    
O9    C68   1.331818 A    
C52   C60   1.561522 S    
O6    C6    1.334691 A    
C70   O23   1.223412 D    
C6    C35   1.488662 S    
O1    C5    1.329813 A    
O22   H37   1.013837 S    
C43   H19   1.106950 S    
C74   H46   1.110530 S    
C58   H36   1.114429 S    
C81   C82   1.531630 S    
C8    C18   1.408654 A    
C37   H17   1.083827 S    
C56   C58   1.576277 S    
C26   C28   1.411325 A    
C82   H66   1.110655 S    
C81   H68   1.108291 S    
C79   H62   1.107798 S    
C3    C50   1.452890 S    
C47   H23   1.107256 S    
O1    V2    1.983746 S    
O20   C68   1.334209 A    
O9    V3    1.984525 S    
C54   C73   1.563154 S    
O2    V1    1.984222 S    
C8    H2    1.083416 S    
C32   C42   1.405520 A    
C4    C49   1.453093 S    
C73   C74   1.534087 S    
C72   H41   1.110524 S    
C15   C83   1.481603 S    
C40   C70   1.489465 S    
C43   C53   1.568353 S    
C72   H40   1.100899 S    
O4    V2    1.966572 S    
C77   H58   1.112055 S    
C56   C62   1.496791 S    
C7    H1    1.083253 S    
C47   H25   1.112741 S    
C71   C72   1.534091 S    
C1    O17   1.326149 A    
C44   H20   1.106970 S    
C14   H6    1.084206 S    
C13   H5    1.083897 S    
C9    H3    1.083364 S    
C20   C22   1.398467 A    
C45   C75   1.552232 S    
C57   C79   1.561042 S    
C10   H4    1.083225 S    
C11   C13   1.402428 A    
O28   H70   1.013969 S    
C34   C36   1.403139 A    
C20   C30   1.405791 A    
C4    O7    1.343675 A    
C46   H22   1.114500 S    
C74   H45   1.100895 S    
C22   H10   1.083105 S    
O16   V3    1.753688 S    
C2    C65   1.453111 S    
C64   C66   1.216886 T    
C12   C14   1.404131 A    
O13   V3    1.966468 S    
O30   H71   1.013575 S    
O2    C6    1.328768 A    
C54   C56   1.585602 S    
C85   O30   1.397937 S    
C32   C34   1.398376 A    
C72   H39   1.108974 S    
C83   O25   1.222843 D    
O10   C67   1.329878 A    
C31   C33   1.399145 A    
C85   O29   1.223324 D    
C27   C85   1.485613 S    
C1    O13   1.333722 A    
C76   H49   1.108342 S    
C15   C17   1.423618 A    
C80   H61   1.110643 S    
C57   C59   1.568071 S    
O32   H72   1.013799 S    
C5    C36   1.490362 S    
C28   C86   1.487744 S    
O19   C67   1.334226 A    
C70   O24   1.398735 S    
C36   C38   1.407556 A    
C48   H26   1.112748 S    
C83   O26   1.398940 S    
V4    O17   1.969742 S    
C19   C21   1.397575 A    
C71   H43   1.112641 S    
C39   C69   1.488807 S    
C69   O22   1.398460 S    
