data_mof_unit_1381.cif
_audit_creation_date              2012-12-10T17:50:15-0500
_audit_creation_method            fapswitch 2.2
_symmetry_space_group_name_H-M    P1
_symmetry_Int_Tables_number       1
_space_group_crystal_system       triclinic
_cell_length_a                    10.620079
_cell_length_b                    14.710722
_cell_length_c                    14.806016
_cell_angle_alpha                 64.886401
_cell_angle_beta                  103.525577
_cell_angle_gamma                 102.800494
_cell_volume                      2016.63200947

loop_
_atom_site_label
_atom_site_type_symbol
_atom_type_description
_atom_site_fract_x
_atom_site_fract_y
_atom_site_fract_z
_atom_type_partial_charge
C1    C     C_R   0.478170 0.119730 0.312565 0.791060
C2    C     C_R   0.514540 0.533050 0.949208 0.045356
C3    C     C_R   0.483772 0.488298 0.876339 -0.000318
C4    C     C_R   0.550883 0.513446 0.126685 -0.008430
C5    C     C_R   0.424505 0.387997 0.902996 -0.317911
C6    C     C_R   0.604933 0.615489 0.097613 -0.207269
C7    C     C_R   0.739247 0.295799 0.648671 -0.313465
C8    C     C_R   0.261886 0.705239 0.349651 -0.314154
C9    C     C_R   0.696332 0.209498 0.627455 0.077726
C10   C     C_R   0.304415 0.791112 0.371677 0.077830
C11   C     C_R   0.511756 0.281720 0.515224 0.037750
C12   C     C_R   0.523209 0.880313 0.687471 0.798147
C13   C     C_R   0.487663 0.717911 0.485121 0.003885
C14   C     C_R   0.548990 0.371417 0.534744 0.009313
C15   C     C_R   0.451121 0.628867 0.464414 -0.028551
C16   C     C_R   0.259544 0.000448 0.499979 0.779349
C17   C     C_R   0.740455 0.999542 0.500035 0.788712
C18   C     C_R   0.667131 0.377484 0.601570 0.150618
C19   C     C_R   0.333791 0.623425 0.396650 0.168031
C20   C     C_R   0.475704 0.455403 0.489199 0.121329
C21   C     C_R   0.524675 0.545124 0.509328 0.053609
C22   C     C_R   0.646091 0.548506 0.572740 -0.204991
C23   C     C_R   0.512021 0.290102 0.178542 -0.266858
C24   C     C_R   0.355873 0.453098 0.423618 -0.197799
C25   C     C_R   0.714179 0.465646 0.619357 -0.177302
C26   C     C_R   0.287891 0.536060 0.377195 -0.194192
C27   C     C_3   0.015610 0.010603 0.408430 -0.174357
C28   C     C_3   0.984374 0.989371 0.591599 -0.165893
C29   C     C_3   0.961617 0.087605 0.429879 -0.166522
C30   C     C_3   0.038369 0.912370 0.570150 -0.158188
C31   C     C_3   0.877196 0.998972 0.499835 0.021720
C32   C     C_3   0.122794 0.001004 0.500193 0.019472
C33   C     C_3   0.928885 0.921908 0.478376 -0.130269
C34   C     C_R   0.505502 0.709078 0.822928 -0.160297
C35   C     C_3   0.071100 0.078066 0.521654 -0.140510
C36   C     C_R   0.461380 0.187674 0.205461 -0.055186
C37   C     C_R   0.546015 0.813064 0.794614 -0.062179
C38   C     C_R   0.376651 0.220540 0.029955 -0.188492
C39   C     C_R   0.636559 0.784032 0.968694 -0.187199
C40   C     C_R   0.392011 0.153026 0.130740 -0.198479
C41   C     C_R   0.613361 0.850415 0.867924 -0.196302
C42   C     C_2   0.528877 0.536224 0.776775 0.320557
C43   C     C_2   0.515365 0.462734 0.229651 0.333375
C44   C     C_R   0.482029 0.361631 0.079968 0.079930
C45   C     C_R   0.541925 0.639875 0.921637 0.111994
C46   C     C_R   0.423673 0.324092 0.003964 0.176975
C47   C     C_R   0.598365 0.679317 0.996198 0.098095
C48   C     C_R   0.515996 0.468342 0.053674 -0.062006
Cu1   Cu    Cu3+1 0.465750 0.918270 0.475680 0.940945
Cu2   Cu    Cu3+1 0.534250 0.081730 0.524320 0.936609
H1    H     H_    0.926956 0.159184 0.372460 0.133738
H2    H     H_    0.311822 0.388098 0.405906 0.117414
H3    H     H_    0.031681 0.019395 0.333536 0.126532
H4    H     H_    0.968291 0.980574 0.666492 0.128580
H5    H     H_    0.868029 0.857884 0.460752 0.139926
H6    H     H_    0.131952 0.142087 0.539284 0.134752
H7    H     H_    0.392751 0.356407 0.845769 0.133643
H8    H     H_    0.638008 0.648299 0.153815 0.181625
H9    H     H_    0.442580 0.683127 0.767368 0.146201
H10   H     H_    0.579171 0.312135 0.235048 0.167405
H11   H     H_    0.645791 0.930758 0.847803 0.151424
H12   H     H_    0.073011 0.840786 0.627571 0.133586
H13   H     H_    0.352512 0.073813 0.149834 0.150019
H14   H     H_    0.329546 0.191700 0.972221 0.131434
H15   H     H_    0.682371 0.814645 0.025306 0.134104
H16   H     H_    0.805994 0.471310 0.668804 0.150837
H17   H     H_    0.197240 0.531225 0.326298 0.141120
H18   H     H_    0.474431 0.515590 0.714838 0.070967
H19   H     H_    0.430458 0.405032 0.244732 0.068478
H20   H     H_    0.572047 0.726780 0.538931 0.148363
H21   H     H_    0.426363 0.271976 0.462604 0.116515
H22   H     H_    0.248326 0.853928 0.336204 0.122527
H23   H     H_    0.752795 0.146904 0.662724 0.122411
H24   H     H_    0.829292 0.299230 0.700532 0.136663
H25   H     H_    0.172521 0.702370 0.296980 0.140090
H26   H     H_    0.691892 0.614760 0.587741 0.166836
N1    N     N_R   0.585750 0.204560 0.560800 -0.182144
N2    N     N_R   0.414250 0.795440 0.439200 -0.180911
O1    O     O_R   0.454850 0.022100 0.338110 -0.586390
O2    O     O_2   0.580432 0.485475 0.298651 -0.550238
O3    O     O_R   0.545150 0.977900 0.661890 -0.590560
O4    O     O_R   0.512700 0.160150 0.379180 -0.582879
O5    O     O_R   0.487300 0.839850 0.620820 -0.575726
O6    O     O_R   0.287930 0.931000 0.479440 -0.588694
O7    O     O_R   0.712070 0.069000 0.520560 -0.586411
O8    O     O_R   0.345780 0.069050 0.520520 -0.593360
O9    O     O_R   0.654220 0.930950 0.479480 -0.586860
O10   O     O_2   0.630891 0.594629 0.764750 -0.556286

loop_
_geom_bond_atom_site_label_1
_geom_bond_atom_site_label_2
_ccdc_geom_bond_type
C24   H2    S    
C42   H18   S    
C3    C42   S    
C33   H5    S    
C27   C29   S    
C34   C37   A    
Cu1   O9    S    
C41   H11   S    
C10   N2    A    
C39   C41   A    
C27   C33   S    
C15   C19   A    
C40   H13   S    
C17   O7    A    
C26   H17   S    
Cu1   O6    S    
C38   C40   A    
C24   C26   A    
C29   H1    S    
C11   C14   A    
C11   H21   S    
C13   H20   S    
C16   O6    A    
Cu1   N2    S    
C12   C37   S    
C19   C26   A    
C6    H8    S    
C11   N1    A    
Cu2   O7    S    
C20   C24   A    
C28   C35   S    
C22   C25   A    
C31   C33   S    
C22   H26   S    
C35   H6    S    
C43   H19   S    
C21   C22   A    
C16   O8    A    
C39   H15   S    
C18   C25   A    
C9    H23   S    
C44   C46   A    
C7    H24   S    
C38   H14   S    
C45   C47   A    
C2    C45   A    
C23   H10   S    
C8    C19   A    
C6    C47   A    
C32   C35   S    
C14   C20   A    
C36   C40   A    
C4    C6    A    
C28   H4    S    
C2    C48   A    
C1    O4    A    
C8    H25   S    
C23   C44   A    
Cu1   O1    S    
C12   O5    A    
C7    C18   A    
C34   C45   A    
C9    N1    A    
C23   C36   A    
C13   C15   A    
C34   H9    S    
C17   C31   S    
C42   O10   D    
Cu2   N1    S    
Cu2   O4    S    
C39   C47   A    
C4    C48   A    
C7    C9    A    
C13   N2    A    
C30   C33   S    
C27   C32   S    
C17   O9    A    
C14   C18   A    
C28   C31   S    
C25   H16   S    
C3    C5    A    
C27   H3    S    
C4    C43   S    
C16   C32   S    
C5    C46   A    
C29   C35   S    
C5    H7    S    
Cu1   O5    S    
C30   H12   S    
C2    C3    A    
C43   O2    D    
C29   C31   S    
C30   C32   S    
C1    O1    A    
C28   C30   S    
C12   O3    A    
C37   C41   A    
C38   C46   A    
Cu2   O8    S    
C15   C21   A    
C20   C21   A    
C1    C36   S    
C8    C10   A    
Cu1   Cu2   S    
C44   C48   A    
Cu2   O3    S    
C10   H22   S    
