data_mof_unit_3672.cif
_audit_creation_date              2012-10-26T18:32:22-0400
_audit_creation_method            fapswitch 2.2
_symmetry_space_group_name_H-M    P1
_symmetry_Int_Tables_number       1
_space_group_crystal_system       triclinic
_cell_length_a                    12.41105
_cell_length_b                    13.158349
_cell_length_c                    15.862815
_cell_angle_alpha                 76.099488
_cell_angle_beta                  101.128942
_cell_angle_gamma                 117.29937
_cell_volume                      2224.26764769

loop_
_atom_site_label
_atom_site_type_symbol
_atom_type_description
_atom_site_fract_x
_atom_site_fract_y
_atom_site_fract_z
_atom_type_partial_charge
C1    C     C_R   0.855119 0.286299 0.507109 0.538167
C2    C     C_R   0.228160 0.836380 0.464024 0.008523
C3    C     C_R   0.810212 0.081193 0.568417 -0.140866
C4    C     C_R   0.000676 0.500743 0.659389 0.558131
C5    C     C_R   0.728753 0.964794 0.585671 -0.156195
C6    C     C_R   0.607470 0.928521 0.551784 -0.076537
C7    C     C_R   0.565782 0.008417 0.497879 0.040402
C8    C     C_R   0.653133 0.122740 0.469590 0.004616
C9    C     C_R   0.440994 0.976743 0.467536 0.050609
C10   C     C_R   0.409434 0.050028 0.396150 0.010900
C11   C     C_R   0.499105 0.157094 0.361990 -0.140406
C12   C     C_3   0.065984 0.426431 0.074825 -0.263383
C13   C     C_R   0.618841 0.194019 0.399080 -0.117194
C14   C     C_R   0.345642 0.877207 0.507961 0.265559
C15   C     C_R   0.198916 0.906714 0.391185 -0.178177
C16   C     C_R   0.144991 0.713764 0.485872 0.553282
C17   C     C_R   0.773162 0.161715 0.511893 -0.017923
C18   C     C_R   0.370620 0.382284 0.664831 -0.145688
C19   C     C_R   0.760225 0.641545 0.378139 0.020731
C20   C     C_R   0.671812 0.682535 0.353413 -0.164442
C21   C     C_R   0.572884 0.639929 0.402192 -0.017780
C22   C     C_R   0.558639 0.549422 0.475630 -0.063835
C23   C     C_3   0.000189 0.498711 0.083460 0.059726
C24   C     C_R   0.655988 0.513845 0.502142 0.173596
C25   C     C_R   0.454761 0.494530 0.526133 -0.025414
C26   C     C_R   0.466549 0.435543 0.611782 -0.010979
C27   C     C_R   0.570210 0.420369 0.642191 -0.157283
C28   C     C_R   0.000053 0.500170 0.340557 0.533953
C29   C     C_R   0.647673 0.433253 0.583179 0.297274
C30   C     C_R   0.338411 0.491738 0.495985 0.068051
C31   C     C_R   0.260092 0.383620 0.631757 0.057687
C32   C     C_3   0.065422 0.423903 0.977123 -0.096916
C33   C     C_3   0.870415 0.450651 0.940796 -0.185155
C34   C     C_3   0.069184 0.624854 0.035678 -0.199357
C35   C     C_3   0.867603 0.444257 0.039458 0.181723
C36   C     C_1   0.999684 0.499304 0.251053 -0.032081
C37   C     C_3   0.003486 0.499935 0.917793 0.018290
C38   C     C_3   0.308922 0.842721 0.651398 0.017299
C39   C     C_3   0.372201 0.969856 0.665038 -0.284718
C40   C     C_3   0.316261 0.988260 0.734370 -0.480157
C41   C     C_1   0.005977 0.303107 0.960875 0.163601
C42   C     C_1   0.499956 0.703940 0.381561 0.169267
C43   C     C_3   0.657725 0.256709 0.655968 -0.000221
C44   C     C_3   0.724716 0.254076 0.747715 -0.268848
C45   C     C_3   0.072782 0.626316 0.937911 -0.101255
C46   C     C_3   0.661833 0.138294 0.807162 -0.475510
C47   C     C_3   0.704505 0.435278 0.100774 0.009170
C48   C     C_3   0.591601 0.362439 0.045414 -0.273353
C49   C     C_3   0.484758 0.286566 0.100311 -0.482240
C50   C     C_1   0.200117 0.683344 0.915595 0.157846
C51   C     C_1   0.999803 0.498645 0.175649 -0.048401
C52   C     C_1   0.002581 0.500934 0.824882 -0.066588
C53   C     C_1   0.001734 0.501399 0.749088 -0.033515
C54   C     C_R   0.288314 0.015124 0.359466 -0.146700
Cu1   Cu    Cu3+1 0.098280 0.475420 0.519630 0.966115
Cu2   Cu    Cu3+1 0.901720 0.524580 0.480370 0.969331
H1    H     H_    0.021771 0.337109 0.112883 0.119058
H2    H     H_    0.758976 0.902710 0.627439 0.124216
H3    H     H_    0.684975 0.276945 0.369218 0.138364
H4    H     H_    0.186013 0.344296 0.672754 0.127881
H5    H     H_    0.578621 0.378299 0.709110 0.103286
H6    H     H_    0.380043 0.337120 0.730674 0.087397
H7    H     H_    0.318226 0.529385 0.430404 0.141467
H8    H     H_    0.837596 0.678164 0.340509 0.133460
H9    H     H_    0.683423 0.751538 0.297431 0.113475
H10   H     H_    0.826666 0.506165 0.900677 0.148233
H11   H     H_    0.815373 0.362405 0.923984 0.086391
H12   H     H_    0.161340 0.460193 0.961940 0.133246
H13   H     H_    0.824804 0.350020 0.069028 0.094199
H14   H     H_    0.026813 0.679558 0.897253 0.109987
H15   H     H_    0.162682 0.664855 0.069230 0.121168
H16   H     H_    0.315326 0.786571 0.714907 0.189483
H17   H     H_    0.209944 0.815941 0.631559 0.118698
H18   H     H_    0.470517 0.994558 0.684864 0.168848
H19   H     H_    0.363240 0.027901 0.603193 0.154679
H20   H     H_    0.216693 0.959216 0.717241 0.151108
H21   H     H_    0.358560 0.082006 0.738506 0.134774
H22   H     H_    0.332603 0.939313 0.799040 0.181430
H23   H     H_    0.161928 0.465574 0.104276 0.121237
H24   H     H_    0.666090 0.193779 0.625594 0.153415
H25   H     H_    0.557812 0.223491 0.657433 0.106977
H26   H     H_    0.819047 0.268557 0.743078 0.177822
H27   H     H_    0.730270 0.324828 0.777272 0.154810
H28   H     H_    0.567802 0.122208 0.814121 0.144274
H29   H     H_    0.713000 0.140360 0.872834 0.178358
H30   H     H_    0.659276 0.066486 0.780443 0.160039
H31   H     H_    0.682544 0.493915 0.127024 0.160628
H32   H     H_    0.728742 0.379566 0.158657 0.118092
H33   H     H_    0.565422 0.421193 0.991744 0.175686
H34   H     H_    0.023079 0.678323 0.040355 0.155180
H35   H     H_    0.612170 0.305585 0.015858 0.149795
H36   H     H_    0.507561 0.223791 0.151960 0.149968
H37   H     H_    0.403736 0.237246 0.058071 0.154639
H38   H     H_    0.462108 0.340973 0.131056 0.145000
H39   H     H_    0.108111 0.876438 0.357403 0.127716
H40   H     H_    0.476206 0.213576 0.307319 0.104699
H41   H     H_    0.263914 0.069475 0.303809 0.119973
H42   H     H_    0.901866 0.108548 0.600656 0.133634
H43   H     H_    0.549094 0.836610 0.565255 0.189022
N1    N     N_R   0.246300 0.438200 0.549400 -0.240132
N2    N     N_R   0.754300 0.561180 0.451130 -0.227237
N3    N     N_1   0.959635 0.208563 0.948122 -0.327123
N4    N     N_1   0.442384 0.756074 0.364903 -0.308171
N5    N     N_1   0.299925 0.727397 0.898553 -0.335873
O1    O     O_R   0.972520 0.318130 0.524690 -0.509261
O2    O     O_3   0.714906 0.369260 0.605156 -0.509206
O3    O     O_3   0.802729 0.505669 0.048985 -0.576428
O4    O     O_R   0.806530 0.359650 0.491530 -0.445563
O5    O     O_R   0.083030 0.479240 0.637150 -0.505861
O6    O     O_R   0.917040 0.520750 0.603990 -0.437275
O7    O     O_R   0.193470 0.640350 0.508470 -0.445984
O8    O     O_R   0.027480 0.681870 0.475310 -0.526079
O9    O     O_R   0.082960 0.479250 0.396010 -0.503732
O10   O     O_R   0.916970 0.520760 0.362850 -0.521570
O11   O     O_3   0.366120 0.822745 0.591862 -0.585047

loop_
_geom_bond_atom_site_label_1
_geom_bond_atom_site_label_2
_ccdc_geom_bond_type
C11   H40   S    
C4    O5    A    
C50   N5    T    
C8    C13   A    
C4    C53   S    
C27   C29   A    
C11   C13   A    
C19   C20   A    
C18   C26   A    
Cu1   Cu2   S    
C44   H27   S    
C42   N4    T    
C7    C8    A    
C12   C23   S    
C33   H11   S    
C26   C27   A    
C5    H2    S    
Cu1   O1    S    
Cu2   N2    S    
C44   H26   S    
C15   H39   S    
C38   C39   S    
C14   O11   S    
C12   H23   S    
C30   N1    A    
C41   N3    T    
C24   N2    A    
C39   H18   S    
C24   C29   A    
Cu2   O4    S    
C27   H5    S    
C22   C25   A    
Cu1   N1    S    
C32   C41   S    
C54   H41   S    
C39   H19   S    
C49   H38   S    
C2    C16   S    
C9    C10   A    
C32   H12   S    
C46   H29   S    
C21   C22   A    
Cu1   O5    S    
C2    C14   A    
Cu2   O6    S    
C44   C46   S    
C33   H10   S    
C38   H16   S    
C15   C54   A    
C20   H9    S    
C47   O3    S    
C28   O9    A    
C39   C40   S    
C37   C52   S    
C18   H6    S    
Cu1   O9    S    
C25   C26   A    
C32   C37   S    
C48   H35   S    
C33   C37   S    
C40   H20   S    
C43   O2    S    
C47   H31   S    
C31   H4    S    
C9    C14   A    
C34   H34   S    
C23   C51   S    
C47   C48   S    
C19   H8    S    
C23   C34   S    
C34   C45   S    
C31   N1    A    
C2    C15   A    
C28   C36   S    
C36   C51   T    
C28   O10   A    
C46   H28   S    
C12   H1    S    
C48   C49   S    
C23   C35   S    
C48   H33   S    
C43   C44   S    
C43   H25   S    
C40   H22   S    
C29   O2    S    
C49   H36   S    
C37   C45   S    
C52   C53   T    
C16   O8    A    
C25   C30   A    
C7    C9    A    
C4    O6    A    
Cu1   O7    S    
C45   H14   S    
C3    C5    A    
C6    C7    A    
C13   H3    S    
C1    C17   S    
C8    C17   A    
C47   H32   S    
C43   H24   S    
C6    H43   S    
C38   O11   S    
C19   N2    A    
C3    H42   S    
C5    C6    A    
C45   C50   S    
C33   C35   S    
C3    C17   A    
C22   C24   A    
C10   C54   A    
C35   O3    S    
C10   C11   A    
C1    O4    A    
C21   C42   S    
C20   C21   A    
C35   H13   S    
Cu2   O10   S    
C40   H21   S    
C18   C31   A    
C49   H37   S    
C30   H7    S    
C34   H15   S    
Cu2   O8    S    
C12   C32   S    
C16   O7    A    
C1    O1    A    
C46   H30   S    
C38   H17   S    
