data_mof_unit_2410.cif
_audit_creation_date              2012-10-26T21:02:35-0400
_audit_creation_method            fapswitch 2.2
_symmetry_space_group_name_H-M    P1
_symmetry_Int_Tables_number       1
_space_group_crystal_system       triclinic
_cell_length_a                    12.309591
_cell_length_b                    13.111233
_cell_length_c                    15.056244
_cell_angle_alpha                 77.228468
_cell_angle_beta                  101.216706
_cell_angle_gamma                 116.530069
_cell_volume                      2107.50763506

loop_
_atom_site_label
_atom_site_type_symbol
_atom_type_description
_atom_site_fract_x
_atom_site_fract_y
_atom_site_fract_z
_atom_type_partial_charge
Br1   Br    Br    0.028153 0.892853 0.357476 -0.596093
C1    C     C_R   0.855172 0.286168 0.508480 0.522460
C2    C     C_R   0.045714 0.429192 0.833579 -0.136631
C3    C     C_R   0.996250 0.495445 0.767882 -0.012062
C4    C     C_R   0.998923 0.498893 0.671105 0.543756
C5    C     C_R   0.944248 0.557867 0.794769 -0.139351
C6    C     C_R   0.282869 0.025828 0.369155 -0.115827
C7    C     C_R   0.229092 0.837299 0.461968 0.010062
C8    C     C_R   0.814098 0.083563 0.572360 -0.141868
C9    C     C_R   0.734947 0.967693 0.588739 -0.135668
C10   C     C_R   0.613380 0.929881 0.551381 -0.112402
C11   C     C_R   0.569374 0.007599 0.493271 0.037633
C12   C     C_R   0.944637 0.553862 0.074012 0.009291
C13   C     C_R   0.654567 0.122173 0.467297 0.010261
C14   C     C_R   0.443875 0.975854 0.460658 0.009017
C15   C     C_R   0.407931 0.054204 0.394626 0.006220
C16   C     C_R   0.145303 0.714460 0.484468 0.570218
C17   C     C_R   0.497681 0.159955 0.356752 -0.022567
C18   C     C_R   0.619203 0.192859 0.394249 -0.122083
C19   C     C_R   0.352620 0.869364 0.494106 -0.164983
C20   C     C_R   0.193857 0.918952 0.401675 0.139831
C21   C     C_R   0.774411 0.162293 0.513566 -0.008883
C22   C     C_R   0.346515 0.327358 0.646678 -0.153239
C23   C     C_R   0.087687 0.352433 0.085001 -0.134800
C24   C     C_R   0.755236 0.639857 0.371538 0.076396
C25   C     C_R   0.658612 0.671713 0.344374 -0.155177
C26   C     C_R   0.557731 0.620512 0.393766 -0.149914
C27   C     C_R   0.551855 0.535457 0.470953 -0.014745
C28   C     C_R   0.998004 0.496010 0.329316 0.547234
C29   C     C_R   0.654121 0.506686 0.496863 0.167333
C30   C     C_R   0.447891 0.476411 0.522196 -0.019036
C31   C     C_R   0.447465 0.388527 0.596585 0.031857
C32   C     C_R   0.547494 0.361652 0.620506 -0.174644
C33   C     C_R   0.648533 0.419670 0.572121 -0.099541
C34   C     C_R   0.090162 0.356711 0.992214 -0.142488
C35   C     C_R   0.342863 0.499347 0.502652 0.044247
C36   C     C_R   0.246133 0.353573 0.623566 0.041647
C37   C     C_R   0.946522 0.554277 0.166371 -0.144550
C38   C     C_R   0.994416 0.488069 0.233274 -0.020297
C39   C     C_R   0.038658 0.416602 0.207957 -0.034730
C40   C     C_R   0.040681 0.418410 0.114194 0.006216
C41   C     C_R   0.993242 0.487372 0.047541 0.048490
C42   C     C_R   0.468446 0.237494 0.277239 0.014438
C43   C     C_R   0.508104 0.354896 0.281832 -0.103394
C44   C     C_R   0.479924 0.427537 0.207415 -0.119040
C45   C     C_R   0.043512 0.424851 0.926491 0.013087
C46   C     C_R   0.412856 0.383961 0.127534 -0.107529
C47   C     C_R   0.375107 0.267948 0.121513 -0.110829
C48   C     C_R   0.403586 0.195127 0.195629 -0.093595
C49   C     C_R   0.074925 0.335508 0.278984 0.043992
C50   C     C_R   0.985062 0.236944 0.323572 -0.065721
C51   C     C_R   0.018824 0.163339 0.393618 -0.062504
C52   C     C_R   0.142195 0.187836 0.419759 -0.077739
C53   C     C_R   0.231990 0.285261 0.375217 -0.105801
C54   C     C_R   0.198801 0.359301 0.305147 -0.080951
C55   C     C_R   0.993467 0.489464 0.953890 0.062803
C56   C     C_R   0.943673 0.556338 0.887521 0.012120
C57   C     C_R   0.894651 0.620907 0.914916 -0.132891
C58   C     C_R   0.895606 0.620058 0.007671 -0.127853
Cu1   Cu    Cu3+1 0.098270 0.475420 0.521130 0.933007
Cu2   Cu    Cu3+1 0.901730 0.524580 0.478870 0.942662
H1    H     H_    0.911850 0.607859 0.186363 0.132054
H2    H     H_    0.345279 0.259636 0.703350 0.091636
H3    H     H_    0.335386 0.564882 0.447643 0.120596
H4    H     H_    0.831020 0.677148 0.331013 0.175221
H5    H     H_    0.484954 0.647491 0.368982 0.100761
H6    H     H_    0.661188 0.735176 0.284049 0.118568
H7    H     H_    0.719575 0.391763 0.595641 0.185607
H8    H     H_    0.123782 0.297665 0.133270 0.137292
H9    H     H_    0.128207 0.306185 0.971851 0.104191
H10   H     H_    0.084432 0.379758 0.812309 0.116104
H11   H     H_    0.906313 0.609200 0.743564 0.130003
H12   H     H_    0.252702 0.086514 0.323305 0.157960
H13   H     H_    0.856256 0.672528 0.864637 0.108496
H14   H     H_    0.857933 0.671178 0.027584 0.112715
H15   H     H_    0.559115 0.389541 0.343502 0.125689
H16   H     H_    0.509386 0.517486 0.211784 0.109704
H17   H     H_    0.390423 0.440139 0.070212 0.112752
H18   H     H_    0.323829 0.234445 0.059357 0.103501
H19   H     H_    0.374501 0.105588 0.189668 0.117009
H20   H     H_    0.889207 0.218011 0.304731 0.096217
H21   H     H_    0.949370 0.087553 0.427896 0.139709
H22   H     H_    0.168260 0.131199 0.474413 0.129338
H23   H     H_    0.375220 0.808744 0.546019 0.125207
H24   H     H_    0.327318 0.303923 0.395874 0.118916
H25   H     H_    0.269156 0.435759 0.272222 0.105040
H26   H     H_    0.906114 0.111933 0.607073 0.122968
H27   H     H_    0.557218 0.838915 0.567682 0.106703
H28   H     H_    0.766951 0.907268 0.633176 0.120631
H29   H     H_    0.686966 0.272923 0.363014 0.143851
H30   H     H_    0.167781 0.306619 0.661845 0.113231
H31   H     H_    0.547718 0.294519 0.677393 0.113334
N1    N     N_R   0.246280 0.438190 0.553160 -0.228125
N2    N     N_R   0.754320 0.561190 0.447410 -0.239894
O1    O     O_R   0.972510 0.318130 0.526570 -0.502620
O2    O     O_R   0.806530 0.359650 0.490890 -0.531905
O3    O     O_R   0.082980 0.479210 0.647590 -0.503756
O4    O     O_R   0.917000 0.520730 0.611900 -0.521041
O5    O     O_R   0.193470 0.640350 0.509110 -0.518195
O6    O     O_R   0.027490 0.681870 0.473430 -0.443163
O7    O     O_R   0.083000 0.479270 0.388100 -0.492195
O8    O     O_R   0.917020 0.520790 0.352410 -0.518961

loop_
_geom_bond_atom_site_label_1
_geom_bond_atom_site_label_2
_ccdc_geom_bond_type
Br1   C20   S    
C40   C41   A    
Cu2   O4    S    
Cu1   O5    S    
Cu2   O2    S    
C6    H12   S    
C52   C53   A    
C43   C44   A    
C5    H11   S    
C25   C26   A    
C7    C19   A    
C25   H6    S    
C47   H18   S    
C1    O1    A    
C37   C38   A    
C8    C21   A    
C14   C15   A    
C55   C56   A    
C17   C18   A    
C43   H15   S    
C41   C55   A    
C35   N1    A    
C46   C47   A    
C9    H28   S    
C1    C21   S    
C8    C9    A    
C50   H20   S    
Cu1   N1    S    
C22   H2    S    
C24   N2    A    
C23   C40   A    
C5    C56   A    
C12   C41   A    
C23   H8    S    
C32   C33   A    
C44   C46   A    
C14   C19   A    
C23   C34   A    
C36   H30   S    
C28   O7    A    
C50   C51   A    
C24   H4    S    
C34   H9    S    
C3    C5    A    
Cu1   O3    S    
C32   H31   S    
C33   H7    S    
C38   C39   A    
C29   C33   A    
Cu2   N2    S    
C42   C48   A    
C49   C50   A    
C57   C58   A    
C6    C20   A    
Cu1   Cu2   S    
C2    H10   S    
C42   C43   A    
C30   C31   A    
C11   C14   A    
C10   H27   S    
C28   C38   S    
C7    C20   A    
C36   N1    A    
C51   H21   S    
C16   O5    A    
C12   C37   A    
C47   C48   A    
C11   C13   A    
C19   H23   S    
Cu2   O6    S    
Cu1   O7    S    
C58   H14   S    
C51   C52   A    
C57   H13   S    
C53   C54   A    
C6    C15   A    
C13   C18   A    
C27   C30   A    
C7    C16   S    
C4    O3    A    
C3    C4    S    
C53   H24   S    
C44   H16   S    
C10   C11   A    
C12   C58   A    
C2    C45   A    
C49   C54   A    
C48   H19   S    
C52   H22   S    
C31   C32   A    
C13   C21   A    
C54   H25   S    
C27   C29   A    
Cu2   O8    S    
C24   C25   A    
C29   N2    A    
C18   H29   S    
C22   C36   A    
C17   C42   S    
C22   C31   A    
C56   C57   A    
C39   C49   S    
C1    O2    A    
C28   O8    A    
C16   O6    A    
C9    C10   A    
Cu1   O1    S    
C4    O4    A    
C15   C17   A    
C45   C55   A    
C26   C27   A    
C26   H5    S    
C30   C35   A    
C39   C40   A    
C46   H17   S    
C35   H3    S    
C34   C45   A    
C8    H26   S    
C2    C3    A    
C37   H1    S    
