data_mof_unit_4231.cif
_audit_creation_date              2012-12-11T15:34:53-0500
_audit_creation_method            fapswitch 2.2
_symmetry_space_group_name_H-M    P1
_symmetry_Int_Tables_number       1
_space_group_crystal_system       triclinic
_cell_length_a                    30.891845
_cell_length_b                    7.275606
_cell_length_c                    25.36501
_cell_angle_alpha                 90.000029
_cell_angle_beta                  111.985353
_cell_angle_gamma                 90.0
_cell_volume                      5286.38461413

loop_
_atom_site_label
_atom_site_type_symbol
_atom_type_description
_atom_site_fract_x
_atom_site_fract_y
_atom_site_fract_z
_atom_type_partial_charge
O1    O     O_R   0.295360 0.592990 0.320420 -0.523753
O2    O     O_R   0.704640 0.407010 0.679580 -0.510488
O3    O     O_R   0.204640 0.092990 0.179580 -0.523753
O4    O     O_R   0.795360 0.907010 0.820420 -0.510488
O5    O     O_R   0.294060 0.265620 0.213230 -0.505860
O6    O     O_R   0.705940 0.734380 0.786770 -0.517493
O7    O     O_R   0.205940 0.765620 0.286770 -0.505860
O8    O     O_R   0.794060 0.234380 0.713230 -0.517493
C1    C     C_R   0.304557 0.433079 0.199778 0.805599
C2    C     C_R   0.695564 0.568598 0.800445 0.825122
C3    C     C_R   0.195443 0.933079 0.300222 0.805599
C4    C     C_R   0.804436 0.068598 0.699555 0.825124
O9    O     O_R   0.300850 0.263360 0.322080 -0.519756
O10   O     O_R   0.699150 0.736640 0.677920 -0.534930
O11   O     O_R   0.199150 0.763360 0.177920 -0.519756
O12   O     O_R   0.800850 0.236640 0.822080 -0.534930
O13   O     O_R   0.211480 0.091820 0.289210 -0.524086
O14   O     O_R   0.788520 0.908180 0.710790 -0.516730
O15   O     O_R   0.288520 0.591820 0.210790 -0.524086
O16   O     O_R   0.711480 0.408180 0.789210 -0.516730
C5    C     C_R   0.313181 0.431589 0.344432 0.769409
C6    C     C_R   0.686985 0.567525 0.655401 0.746357
C7    C     C_R   0.186818 0.931589 0.155567 0.769409
C8    C     C_R   0.813015 0.067525 0.844599 0.746358
O17   O     O_3   0.220670 0.426670 0.239090 -0.376124
O18   O     O_3   0.779330 0.573330 0.760910 -0.378215
O19   O     O_3   0.279330 0.926670 0.260910 -0.376124
O20   O     O_3   0.720670 0.073330 0.739090 -0.378216
V1    V     V_3+5 0.255440 0.152290 0.252020 1.651916
V2    V     V_3+5 0.744560 0.847710 0.747980 1.659580
V3    V     V_3+5 0.244560 0.652290 0.247980 1.651916
V4    V     V_3+5 0.755440 0.347710 0.752020 1.659580
C9    C     C_R   0.851277 0.056270 0.902628 -0.197068
C10   C     C_R   0.148571 0.941547 0.097613 -0.188018
C11   C     C_R   0.648723 0.556270 0.597372 -0.197068
C12   C     C_R   0.351429 0.441548 0.402387 -0.188018
C13   C     C_R   0.877696 0.028488 0.005589 -0.174225
C14   C     C_R   0.120875 0.922527 0.994323 -0.177280
C15   C     C_R   0.622304 0.528487 0.494411 -0.174225
C16   C     C_R   0.379125 0.422529 0.505677 -0.177280
C17   C     C_R   0.843096 0.000341 0.951860 0.412334
C18   C     C_R   0.154954 0.882823 0.047610 0.404660
C19   C     C_R   0.656904 0.500341 0.548139 0.412335
C20   C     C_R   0.345046 0.382824 0.452390 0.404660
C21   C     C_R   0.897912 0.099023 0.909429 -0.261686
C22   C     C_R   0.104452 0.015487 0.091650 -0.260433
C23   C     C_R   0.602088 0.599023 0.590571 -0.261685
C24   C     C_R   0.395548 0.515487 0.408349 -0.260434
C25   C     C_R   0.935425 0.088966 0.963859 0.100352
C26   C     C_R   0.067160 0.031826 0.037229 0.102545
C27   C     C_R   0.564575 0.588966 0.536141 0.100353
C28   C     C_R   0.432839 0.531826 0.462770 0.102545
C29   C     C_R   0.923437 0.070812 0.012098 0.053905
C30   C     C_R   0.077710 0.996620 0.988627 0.055084
C31   C     C_R   0.576563 0.570811 0.487902 0.053905
C32   C     C_R   0.422289 0.496621 0.511373 0.055084
C33   C     C_R   0.984141 0.082706 0.972299 0.068525
C34   C     C_R   0.019340 0.070541 0.028972 0.068691
C35   C     C_R   0.515859 0.582706 0.527701 0.068525
C36   C     C_R   0.480660 0.570541 0.471028 0.068691
C37   C     C_R   0.004804 0.080130 0.075267 -0.175586
C38   C     C_R   0.998473 0.068767 0.925952 -0.175593
C39   C     C_R   0.495196 0.580129 0.424733 -0.175586
C40   C     C_R   0.501527 0.568767 0.574048 -0.175593
C41   C     C_R   0.957749 0.077429 0.066840 -0.140435
C42   C     C_R   0.044198 0.023968 0.934081 -0.137720
C43   C     C_R   0.542251 0.577428 0.433159 -0.140436
C44   C     C_R   0.455801 0.523969 0.565919 -0.137721
H1    H     H_    0.948185 0.069977 0.103788 0.148809
H2    H     H_    0.052927 0.002215 0.896933 0.149065
H3    H     H_    0.551815 0.569976 0.396212 0.148809
H4    H     H_    0.447073 0.502216 0.603067 0.149065
H5    H     H_    0.099941 0.055613 0.130210 0.111816
H6    H     H_    0.904195 0.133117 0.871504 0.112137
H7    H     H_    0.400059 0.555612 0.369789 0.111816
H8    H     H_    0.595805 0.633118 0.628496 0.112136
H9    H     H_    0.870109 0.996431 0.043022 0.181509
H10   H     H_    0.126970 0.883893 0.956373 0.182950
H11   H     H_    0.629891 0.496430 0.456977 0.181509
H12   H     H_    0.373030 0.383895 0.543627 0.182950
H13   H     H_    0.029012 0.075956 0.118796 0.127876
H14   H     H_    0.974320 0.078791 0.882482 0.127495
H15   H     H_    0.470988 0.575955 0.381204 0.127876
H16   H     H_    0.525680 0.578792 0.617518 0.127494
C45   C     C_R   0.091559 0.092360 0.474799 0.733526
C46   C     C_R   0.911315 0.147812 0.524138 0.713725
C47   C     C_R   0.408441 0.592359 0.025201 0.733525
C48   C     C_R   0.588685 0.647812 0.975862 0.713725
N1    N     N_R   0.069976 0.066539 0.417211 -0.517467
N2    N     N_R   0.932140 0.122577 0.581818 -0.519930
N3    N     N_R   0.430024 0.566539 0.082789 -0.517467
N4    N     N_R   0.567860 0.622577 0.918182 -0.519929
C49   C     C_R   0.022504 0.081443 0.391016 0.667364
C50   C     C_R   0.979737 0.117141 0.608030 0.661385
C51   C     C_R   0.477496 0.581443 0.108984 0.667363
C52   C     C_R   0.520263 0.617141 0.891970 0.661384
C53   C     C_R   0.994620 0.111033 0.423253 -0.019195
C54   C     C_R   0.008174 0.124096 0.575718 -0.022914
C55   C     C_R   0.505380 0.611032 0.076747 -0.019195
C56   C     C_R   0.491825 0.624096 0.924282 -0.022914
C57   C     C_R   0.015686 0.117690 0.483001 0.007604
C58   C     C_R   0.987286 0.129182 0.515936 0.003750
C59   C     C_R   0.484314 0.617690 0.016999 0.007603
C60   C     C_R   0.512714 0.629181 0.984064 0.003751
C61   C     C_R   0.064970 0.109954 0.509743 -0.088361
C62   C     C_R   0.938088 0.142860 0.489171 -0.085925
C63   C     C_R   0.435030 0.609953 0.990257 -0.088360
C64   C     C_R   0.561912 0.642860 0.010828 -0.085925
C65   C     C_R   0.946017 0.128036 0.396855 -0.150688
C66   C     C_R   0.056966 0.120001 0.602082 -0.151653
C67   C     C_R   0.553983 0.628036 0.103145 -0.150688
C68   C     C_R   0.443034 0.620001 0.897918 -0.151653
C69   C     C_R   0.917806 0.146130 0.428740 -0.082267
C70   C     C_R   0.085375 0.115395 0.570157 -0.089954
C71   C     C_R   0.582194 0.646131 0.071260 -0.082267
C72   C     C_R   0.414625 0.615395 0.929843 -0.089953
O21   O     O_2   0.138576 0.098716 0.497836 -0.457634
O22   O     O_2   0.864794 0.175272 0.501039 -0.472374
O23   O     O_2   0.361424 0.598716 0.002164 -0.457634
O24   O     O_2   0.635206 0.675273 0.998961 -0.472374
O25   O     O_2   0.002174 0.062851 0.334065 -0.517074
O26   O     O_2   0.999501 0.100177 0.665073 -0.515870
O27   O     O_2   0.497826 0.562850 0.165935 -0.517074
O28   O     O_2   0.500498 0.600177 0.834927 -0.515870
H17   H     H_    0.929602 0.125621 0.350836 0.173531
H18   H     H_    0.073322 0.118699 0.648111 0.174522
H19   H     H_    0.570398 0.625621 0.149164 0.173531
H20   H     H_    0.426678 0.618699 0.851889 0.174522
C73   C     C_R   0.902903 0.224159 0.655075 -0.053070
C74   C     C_R   0.100665 0.136681 0.342779 -0.041194
C75   C     C_R   0.597096 0.724159 0.844925 -0.053070
C76   C     C_R   0.399335 0.636681 0.157221 -0.041194
H21   H     H_    0.926789 0.339413 0.664548 0.192129
H22   H     H_    0.079308 0.259345 0.332106 0.197832
H23   H     H_    0.573211 0.839413 0.835452 0.192129
H24   H     H_    0.420692 0.759345 0.167894 0.197832
C77   C     C_R   0.872158 0.208164 0.683427 -0.218764
C78   C     C_R   0.130752 0.101214 0.314624 -0.245910
C79   C     C_R   0.627842 0.708164 0.816573 -0.218763
C80   C     C_R   0.369248 0.601213 0.185376 -0.245910
H25   H     H_    0.874110 0.310116 0.715362 0.163521
H26   H     H_    0.131152 0.196979 0.282098 0.175282
H27   H     H_    0.625890 0.810116 0.784638 0.163521
H28   H     H_    0.368848 0.696980 0.217902 0.175282
C81   C     C_R   0.838253 0.068139 0.669710 -0.216031
C82   C     C_R   0.161260 0.949843 0.329256 -0.267565
C83   C     C_R   0.661747 0.568139 0.830290 -0.216031
C84   C     C_R   0.338740 0.449843 0.170744 -0.267565
C85   C     C_R   0.836733 0.939426 0.626860 0.310675
C86   C     C_R   0.159533 0.827549 0.372319 0.309225
C87   C     C_R   0.663267 0.439426 0.873140 0.310675
C88   C     C_R   0.340467 0.327548 0.127681 0.309225
C89   C     C_R   0.872512 0.941138 0.603951 0.367233
C90   C     C_R   0.124432 0.851998 0.395827 0.373362
C91   C     C_R   0.627488 0.441139 0.896049 0.367232
C92   C     C_R   0.375567 0.351997 0.104173 0.373363
C93   C     C_R   0.902957 0.094076 0.614560 0.197568
C94   C     C_R   0.097998 0.016720 0.384486 0.197995
C95   C     C_R   0.597043 0.594076 0.885440 0.197568
C96   C     C_R   0.402002 0.516720 0.115514 0.197995
S1    S     S_3+6 0.787853 0.792642 0.597677 0.137533
O29   O     O_2   0.779926 0.746118 0.537093 -0.228769
O30   O     O_2   0.797758 0.621309 0.633090 -0.291227
O31   O     O_3   0.739137 0.892985 0.598578 -0.472411
H29   H     H_    0.713071 0.822621 0.570939 0.367843
S2    S     S_3+6 0.202871 0.654851 0.398534 0.130876
O32   O     O_2   0.209089 0.595114 0.457642 -0.217407
O33   O     O_2   0.187334 0.494439 0.358698 -0.312813
O34   O     O_3   0.254636 0.732530 0.399993 -0.488606
H30   H     H_    0.278388 0.678759 0.434599 0.379313
S3    S     S_3+6 0.712147 0.292643 0.902323 0.137533
O35   O     O_2   0.720073 0.246119 0.962907 -0.228769
O36   O     O_2   0.702242 0.121309 0.866909 -0.291227
O37   O     O_3   0.760863 0.392986 0.901422 -0.472411
H31   H     H_    0.786929 0.322621 0.929061 0.367843
S4    S     S_3+6 0.297129 0.154850 0.101466 0.130875
O38   O     O_2   0.290911 0.095113 0.042358 -0.217408
O39   O     O_2   0.312666 0.994439 0.141302 -0.312813
O40   O     O_3   0.245364 0.232529 0.100007 -0.488605
H32   H     H_    0.221612 0.178758 0.065401 0.379313
S5    S     S_3+6 0.882566 0.749564 0.565844 0.076459
O41   O     O_2   0.933667 0.734402 0.576369 -0.356457
O42   O     O_2   0.867302 0.573560 0.584540 -0.282177
O43   O     O_3   0.852615 0.778507 0.495776 -0.441510
H33   H     H_    0.861608 0.672792 0.477457 0.376373
S6    S     S_3+6 0.109917 0.675253 0.435381 0.073918
O44   O     O_2   0.059458 0.688947 0.428171 -0.356413
O45   O     O_2   0.117823 0.488855 0.415271 -0.296114
O46   O     O_3   0.143291 0.697472 0.504766 -0.436701
H34   H     H_    0.132956 0.597577 0.523891 0.375397
S7    S     S_3+6 0.617433 0.249564 0.934156 0.076458
O47   O     O_2   0.566333 0.234402 0.923631 -0.356457
O48   O     O_2   0.632698 0.073560 0.915460 -0.282177
O49   O     O_3   0.647385 0.278508 0.004223 -0.441511
H35   H     H_    0.638392 0.172793 0.022543 0.376373
S8    S     S_3+6 0.390083 0.175252 0.064619 0.073918
O50   O     O_2   0.440542 0.188947 0.071828 -0.356412
O51   O     O_2   0.382177 0.988854 0.084729 -0.296115
O52   O     O_3   0.356709 0.197471 0.995234 -0.436702
H36   H     H_    0.367043 0.097574 0.976109 0.375398
S9    S     S_3+6 0.201378 0.743045 0.046470 0.069939
O53   O     O_2   0.183517 0.549605 0.033518 -0.315359
O54   O     O_2   0.216627 0.807988 0.999844 -0.266977
O55   O     O_3   0.247318 0.743488 0.107771 -0.463534
H37   H     H_    0.272174 0.681876 0.098538 0.396469
S10   S     S_3+6 0.796445 0.859569 0.952050 0.077941
O56   O     O_2   0.758185 0.840142 0.894945 -0.286663
O57   O     O_2   0.816376 0.672715 0.972458 -0.317899
O58   O     O_3   0.774683 0.943647 0.998690 -0.441360
H38   H     H_    0.749796 0.856161 0.997648 0.416031
S11   S     S_3+6 0.298622 0.243046 0.453530 0.069939
O59   O     O_2   0.316483 0.049606 0.466483 -0.315359
O60   O     O_2   0.283373 0.307990 0.500156 -0.266977
O61   O     O_3   0.252682 0.243488 0.392229 -0.463533
H39   H     H_    0.227826 0.181877 0.401462 0.396469
S12   S     S_3+6 0.703555 0.359568 0.547950 0.077941
O62   O     O_2   0.741815 0.340141 0.605055 -0.286663
O63   O     O_2   0.683624 0.172714 0.527542 -0.317899
O64   O     O_3   0.725317 0.443646 0.501310 -0.441359
H40   H     H_    0.750204 0.356160 0.502353 0.416031
C97   C     C_1   0.868095 0.160593 0.397210 0.448234
N5    N     N_1   0.828315 0.172109 0.371769 -0.240728
C98   C     C_1   0.135208 0.109492 0.601666 0.452950
N6    N     N_1   0.175085 0.104763 0.627093 -0.222798
C99   C     C_1   0.631905 0.660594 0.102790 0.448234
N7    N     N_1   0.671684 0.672109 0.128231 -0.240728
C100  C     C_1   0.364792 0.609491 0.898334 0.452950
N8    N     N_1   0.324915 0.604763 0.872907 -0.222799

loop_
_geom_bond_atom_site_label_1
_geom_bond_atom_site_label_2
_ccdc_geom_bond_type
O17   V3    S    
C55   C59   A    
S3    O35   D    
C25   C29   A    
O1    C5    A    
C57   C58   A    
C54   C66   A    
C47   N3    A    
O19   V1    S    
O13   V1    S    
O34   H30   S    
O3    C7    A    
C98   N6    T    
C10   C18   A    
S12   O64   S    
C56   C60   A    
C11   C23   A    
C80   C84   A    
C73   C93   A    
S1    O29   D    
C87   S3    S    
C33   C38   A    
C5    C12   S    
C46   C62   A    
S5    O41   D    
O7    C3    A    
C6    C11   S    
C90   S6    S    
C79   C83   A    
C35   C40   A    
C76   C96   A    
C36   C39   A    
C40   C44   A    
C64   C71   A    
C77   C81   A    
O31   H29   S    
C92   S8    S    
S12   O63   D    
C23   H8    S    
C14   C18   A    
C75   H23   S    
C13   C17   A    
O4    C8    A    
C51   C55   A    
C44   H4    S    
C50   C54   A    
C86   S2    S    
C60   C64   A    
O1    V3    S    
C9    C21   A    
O43   H33   S    
O2    V4    S    
S9    O53   D    
C17   S10   S    
O3    V1    S    
C100  N8    T    
C85   C89   A    
O37   H31   S    
C40   H16   S    
C28   C36   A    
C82   C86   A    
C79   H27   S    
O52   H36   S    
C1    O15   A    
S4    O40   S    
C15   C31   A    
C76   C80   A    
C88   C92   A    
C2    O16   A    
C16   C32   A    
O2    C6    A    
C16   H12   S    
C58   C62   A    
C10   C22   A    
C87   C91   A    
C70   C98   S    
C48   O24   S    
C11   C19   A    
C66   C70   A    
C43   H3    S    
C65   C69   A    
C2    C83   S    
C13   C29   A    
O11   C7    A    
C34   C37   A    
S4    O39   D    
O49   H35   S    
C38   H14   S    
O15   V3    S    
C35   C36   A    
O12   C8    A    
S2    O33   D    
S9    O54   D    
C24   H7    S    
C74   H22   S    
O10   V2    S    
S8    O52   S    
C45   C61   A    
C19   S12   S    
S1    O30   D    
C73   C77   A    
C78   C82   A    
N2    C50   A    
C27   C35   A    
O5    V1    S    
S5    O42   D    
N4    C52   A    
C57   C61   A    
S3    O37   S    
C39   C43   A    
O7    V3    S    
C38   C42   A    
C72   C100  S    
C91   C95   A    
S7    O47   D    
O8    V4    S    
C48   N4    A    
C61   C70   A    
C92   C96   A    
S12   O62   D    
S8    O51   D    
C46   N2    A    
O64   H40   S    
C45   N1    A    
O61   H39   S    
C15   C19   A    
C62   C69   A    
C32   C44   A    
C13   H9    S    
O11   V3    S    
O6    V2    S    
N1    C49   A    
O4    V2    S    
C39   H15   S    
C21   H6    S    
C26   C34   A    
C4    C81   S    
C75   C95   A    
S7    O48   D    
C47   O23   S    
C97   N5    T    
C37   C41   A    
C53   C65   A    
C31   C43   A    
S11   O59   D    
C14   C30   A    
C16   C20   A    
C76   H24   S    
C7    C10   S    
C55   C67   A    
C49   O25   S    
O58   H38   S    
O9    C5    A    
C46   O22   S    
C26   C30   A    
C45   O21   S    
C69   C97   S    
N3    C96   S    
C91   S7    S    
C66   H18   S    
C73   H21   S    
C50   O26   S    
C52   O28   S    
C65   H17   S    
S4    O38   D    
S11   O60   D    
C89   S5    S    
C56   C68   A    
N4    C95   S    
C78   H26   S    
S2    O32   D    
S9    O55   S    
C12   C20   A    
C85   S1    S    
O9    V1    S    
S6    O45   D    
C74   C78   A    
C49   C53   A    
C68   C72   A    
S1    O31   S    
C29   C41   A    
C59   C63   A    
O16   V4    S    
S5    O43   S    
C51   O27   S    
C77   H25   S    
C3    O13   A    
C99   N7    T    
S10   O56   D    
C84   C88   A    
O5    C1    A    
S8    O50   D    
O6    C2    A    
C25   C33   A    
C23   C27   A    
C3    C82   S    
C71   C99   S    
O18   V4    S    
O12   V4    S    
C14   H10   S    
C22   C26   A    
C1    C84   S    
C8    C9    S    
C74   C94   A    
C20   S11   S    
C9    C17   A    
O10   C6    A    
N2    C93   S    
C80   H28   S    
S7    O49   S    
C54   C58   A    
C67   H19   S    
S10   O58   S    
N1    C94   S    
C33   C34   A    
C42   H2    S    
C28   C32   A    
S6    O46   S    
C41   H1    S    
C83   C87   A    
C52   C56   A    
O20   V2    S    
C21   C25   A    
C12   C24   A    
C27   C31   A    
C89   C93   A    
O46   H34   S    
C81   C85   A    
C63   C72   A    
C68   H20   S    
C75   C79   A    
O14   V2    S    
N3    C51   A    
O40   H32   S    
C88   S4    S    
C48   C64   A    
S3    O36   D    
C24   C28   A    
S11   O61   S    
C47   C63   A    
O55   H37   S    
S2    O34   S    
C67   C71   A    
C86   C90   A    
C4    O14   A    
C59   C60   A    
C90   C94   A    
C18   S9    S    
C37   H13   S    
S6    O44   D    
C30   C42   A    
S10   O57   D    
C22   H5    S    
C53   C57   A    
O8    C4    A    
C15   H11   S    
