data_mof_unit_1196.cif
_audit_creation_date              2012-12-10T17:19:00-0500
_audit_creation_method            fapswitch 2.2
_symmetry_space_group_name_H-M    P1
_symmetry_Int_Tables_number       1
_space_group_crystal_system       triclinic
_cell_length_a                    10.21116
_cell_length_b                    10.82355
_cell_length_c                    13.650286
_cell_angle_alpha                 92.194712
_cell_angle_beta                  100.199708
_cell_angle_gamma                 96.065924
_cell_volume                      1473.98098797

loop_
_atom_site_label
_atom_site_type_symbol
_atom_type_description
_atom_site_fract_x
_atom_site_fract_y
_atom_site_fract_z
_atom_type_partial_charge
Br1   Br    Br    0.497718 0.242667 0.159459 -0.536127
Br2   Br    Br    0.502234 0.757370 0.840559 -0.534606
C1    C     C_R   0.052069 0.732093 0.490938 0.951191
C2    C     C_2   0.997952 0.063324 0.468889 -0.131771
C3    C     C_2   0.430844 0.511354 0.508364 -0.116614
C4    C     C_2   0.569158 0.488659 0.491619 -0.118733
C5    C     C_R   0.093183 0.512590 0.685437 0.883252
C6    C     C_R   0.906816 0.487409 0.314562 0.875148
C7    C     C_R   0.139500 0.509365 0.791974 -0.067088
C8    C     C_R   0.860511 0.490686 0.208040 -0.064553
C9    C     C_R   0.108567 0.428471 0.949229 -0.186200
C10   C     C_R   0.891428 0.571719 0.050831 -0.186506
C11   C     C_R   0.053916 0.463046 0.854799 -0.201627
C12   C     C_R   0.945537 0.267417 0.503740 0.948770
C13   C     C_R   0.946087 0.537111 0.145247 -0.202167
C14   C     C_R   0.276239 0.534248 0.827392 -0.168969
C15   C     C_R   0.723776 0.465772 0.172621 -0.169692
C16   C     C_R   0.331850 0.511263 0.924622 0.117830
C17   C     C_R   0.668153 0.488820 0.075408 0.117481
C18   C     C_R   0.247723 0.446375 0.982262 0.110440
C19   C     C_R   0.752275 0.553767 0.017788 0.110158
C20   C     C_R   0.471742 0.533235 0.959044 -0.038267
C21   C     C_R   0.528258 0.466846 0.040989 -0.037967
C22   C     C_R   0.442137 0.383339 0.086410 0.244320
C23   C     C_R   0.557853 0.616753 0.913630 0.244217
C24   C     C_R   0.304212 0.384849 0.063841 -0.246237
C25   C     C_R   0.695779 0.615293 0.936215 -0.245687
C26   C     C_2   0.077860 0.863259 0.477201 -0.356866
C27   C     C_2   0.910688 0.134372 0.497350 -0.352181
C28   C     C_2   0.975305 0.931127 0.471626 -0.135388
H1    H     H_    0.240417 0.324559 0.101905 0.181304
H2    H     H_    0.874422 0.890396 0.475614 0.195132
H3    H     H_    0.817059 0.094639 0.516887 0.161471
H4    H     H_    0.178502 0.904457 0.473293 0.162664
H5    H     H_    0.578301 0.415046 0.437830 0.179410
H6    H     H_    0.421704 0.584976 0.562145 0.179122
H7    H     H_    0.665033 0.622793 0.589637 0.180665
H8    H     H_    0.334960 0.377195 0.410369 0.179080
H9    H     H_    0.759566 0.675609 0.898165 0.181892
H10   H     H_    0.659494 0.441700 0.225358 0.185215
H11   H     H_    0.340533 0.558254 0.774653 0.185074
H12   H     H_    0.052740 0.558179 0.172400 0.166548
H13   H     H_    0.947256 0.442021 0.827662 0.166592
H14   H     H_    0.043350 0.379721 0.993208 0.163837
H15   H     H_    0.956637 0.620520 0.006869 0.164004
H16   H     H_    0.091871 0.102599 0.449375 0.193184
N1    N     N_2   0.322180 0.446120 0.460900 -0.192378
N2    N     N_2   0.677820 0.553880 0.539100 -0.192785
O1    O     O_R   0.935190 0.693030 0.507870 -0.608293
O2    O     O_R   0.064810 0.306970 0.492130 -0.608258
O3    O     O_R   0.142080 0.658430 0.482770 -0.604842
O4    O     O_R   0.857920 0.341570 0.517230 -0.604498
O5    O     O_R   0.969700 0.527180 0.651960 -0.608754
O6    O     O_R   0.030300 0.472820 0.348040 -0.612343
O7    O     O_R   0.176600 0.492580 0.626860 -0.608241
O8    O     O_R   0.823400 0.507420 0.373140 -0.611510
Zn1   Zn    Zn3+2 0.861850 0.523100 0.516760 0.960664
Zn2   Zn    Zn3+2 0.138150 0.476900 0.483240 0.960486

loop_
_geom_bond_atom_site_label_1
_geom_bond_atom_site_label_2
_ccdc_geom_bond_type
C17   C21   A    
C21   C22   A    
C23   C25   A    
C3    N1    D    
C2    C27   D    
C10   C13   A    
C5    O7    A    
C6    O8    A    
C11   H13   S    
C26   C28   D    
C19   C25   A    
C26   H4    S    
N2    Zn1   S    
C18   C24   A    
O3    Zn2   S    
C2    H16   S    
C4    H5    S    
H7    N2    S    
C28   H2    S    
C9    C11   A    
H8    N1    S    
C12   O2    A    
C4    N2    D    
C10   C19   A    
C6    C8    S    
C1    C26   S    
C17   C19   A    
C7    C14   A    
C22   C24   A    
Br2   C23   S    
C16   C18   A    
C8    C13   A    
C1    O1    A    
C3    C4    S    
C12   O4    A    
C9    C18   A    
O4    Zn1   S    
C5    O5    A    
C12   C27   S    
O2    Zn2   S    
C3    H6    S    
C27   H3    S    
C9    H14   S    
O1    Zn1   S    
O8    Zn1   S    
Br1   C22   S    
C14   C16   A    
O6    Zn2   S    
O7    Zn2   S    
C6    O6    A    
C5    C7    S    
C7    C11   A    
C20   C21   A    
C1    O3    A    
C8    C15   A    
C15   C17   A    
C16   C20   A    
C24   H1    S    
C14   H11   S    
C20   C23   A    
C2    C28   S    
C13   H12   S    
C25   H9    S    
C10   H15   S    
N1    Zn2   S    
C15   H10   S    
O5    Zn1   S    
