data_mof_unit_3773.cif
_audit_creation_date              2012-12-10T17:08:12-0500
_audit_creation_method            fapswitch 2.2
_symmetry_space_group_name_H-M    P1
_symmetry_Int_Tables_number       1
_space_group_crystal_system       triclinic
_cell_length_a                    23.636773
_cell_length_b                    10.960136
_cell_length_c                    9.903145
_cell_angle_alpha                 110.191102
_cell_angle_beta                  98.456451
_cell_angle_gamma                 91.69606
_cell_volume                      2372.75314629

loop_
_atom_site_label
_atom_site_type_symbol
_atom_type_description
_atom_site_fract_x
_atom_site_fract_y
_atom_site_fract_z
_atom_type_partial_charge
C1    C     C_R   0.495945 0.254328 0.442301 0.814007
C2    C     C_R   0.502314 0.746292 0.557482 0.883033
C3    C     C_R   0.235826 0.570275 0.421526 0.201935
C4    C     C_R   0.750140 0.451267 0.348912 0.109067
C5    C     C_R   0.295627 0.574417 0.428769 0.018205
C6    C     C_R   0.691249 0.446898 0.356522 0.118681
C7    C     C_R   0.328487 0.501095 0.499646 -0.140152
C8    C     C_R   0.672141 0.500375 0.493224 -0.158410
C9    C     C_R   0.300593 0.426623 0.565554 0.104566
C10   C     C_R   0.714078 0.556309 0.621503 0.033096
C11   C     C_R   0.241251 0.429461 0.566108 0.096443
C12   C     C_R   0.772767 0.553595 0.612883 0.190697
C13   C     C_R   0.208575 0.498830 0.490813 0.252592
C14   C     C_R   0.790809 0.501644 0.477541 0.264525
C15   C     C_2   0.497071 0.115152 0.416349 -0.150015
C16   C     C_2   0.500143 0.886967 0.582474 -0.145366
C17   C     C_2   0.467615 0.062929 0.494051 0.065225
C18   C     C_2   0.468891 0.924802 0.478508 0.120041
C19   C     C_2   0.504708 0.516814 0.086431 0.348643
C20   C     C_2   0.491374 0.505217 0.928741 0.268112
C21   C     C_R   0.391154 0.499658 0.500344 0.844888
C22   C     C_R   0.609175 0.500299 0.498806 0.841596
C23   C     C_R   0.883058 0.615580 0.504394 0.563852
C24   C     C_R   0.113022 0.387215 0.414168 0.574764
C25   C     C_R   0.875744 0.384933 0.442560 0.543146
C26   C     C_R   0.125012 0.613367 0.556278 0.560602
C27   C     C_R   0.935094 0.380258 0.435673 -0.069979
C28   C     C_R   0.064754 0.620021 0.540676 -0.103792
C29   C     C_R   0.969461 0.500589 0.480377 -0.003996
C30   C     C_R   0.029433 0.500713 0.482745 -0.019470
C31   C     C_R   0.943745 0.620705 0.521760 -0.100436
C32   C     C_R   0.054462 0.381325 0.427469 -0.050887
C33   C     C_R   0.961007 0.260387 0.387351 -0.085242
C34   C     C_R   0.039320 0.740382 0.584903 -0.072594
C35   C     C_R   0.020575 0.261036 0.385221 -0.041390
C36   C     C_R   0.978968 0.740821 0.574859 -0.058430
Cu1   Cu    Cu3+1 0.509980 0.521810 0.644910 0.961012
Cu2   Cu    Cu3+1 0.490020 0.478190 0.355090 0.977307
N1    N     N_R   0.851321 0.500315 0.472064 -0.430974
N2    N     N_R   0.147450 0.499595 0.487427 -0.439438
N3    N     N_2   0.475010 0.445410 0.137370 -0.123287
N4    N     N_2   0.524990 0.554590 0.862630 -0.152023
O1    O     O_R   0.505330 0.332340 0.577400 -0.560441
O2    O     O_R   0.494670 0.667660 0.422600 -0.527578
O3    O     O_R   0.488470 0.295500 0.332650 -0.604991
O4    O     O_R   0.511530 0.704500 0.667350 -0.544015
O5    O     O_R   0.426310 0.518390 0.622390 -0.588686
O6    O     O_R   0.573690 0.481610 0.377610 -0.537739
O7    O     O_R   0.409450 0.481550 0.377650 -0.582305
O8    O     O_R   0.590550 0.518450 0.622350 -0.604625
O9    O     O_2   0.855220 0.723773 0.518158 -0.545195
O10   O     O_2   0.135428 0.283074 0.326819 -0.506398
O11   O     O_2   0.842152 0.276117 0.421186 -0.552583
O12   O     O_2   0.161250 0.718166 0.640563 -0.547452
C37   C     C_2   0.926874 0.132466 0.340246 0.459238
H1    H     H_    0.907754 0.103428 0.418822 0.162681
O13   O     O_2   0.919878 0.059462 0.213007 -0.536280
C38   C     C_2   0.075227 0.866731 0.634418 0.561666
H2    H     H_    0.105823 0.882165 0.568956 0.110402
O14   O     O_2   0.071693 0.952900 0.749741 -0.500006
N5    N     N_3   0.581686 0.588819 0.930920 -0.545454
H3    H     H_    0.604348 0.507561 0.889262 0.224661
H4    H     H_    0.597039 0.664030 0.900405 0.276612
N6    N     N_3   0.454814 0.320077 0.042699 -0.502377
H5    H     H_    0.419196 0.292344 0.079949 0.250924
H6    H     H_    0.486495 0.258214 0.054437 0.229234
C39   C     C_2   0.047340 0.135002 0.355268 0.499108
H7    H     H_    0.029974 0.050946 0.259576 0.111738
O15   O     O_2   0.087433 0.122923 0.441421 -0.530733
C40   C     C_2   0.953552 0.868119 0.624985 0.545270
H8    H     H_    0.926086 0.887129 0.707422 0.110497
O16   O     O_2   0.962538 0.951444 0.572895 -0.545525
N7    N     N_3   0.202023 0.639195 0.343809 -0.550741
H9    H     H_    0.209045 0.605293 0.235699 0.242832
H10   H     H_    0.216253 0.738326 0.390556 0.258205
N8    N     N_3   0.767877 0.406141 0.208609 -0.585944
H11   H     H_    0.794192 0.480832 0.200515 0.238812
H12   H     H_    0.791653 0.325833 0.199944 0.269125
N9    N     N_3   0.322228 0.658261 0.368428 -0.595658
H13   H     H_    0.354623 0.719134 0.449072 0.226349
H14   H     H_    0.340023 0.601633 0.279118 0.263988
N10   N     N_3   0.650912 0.385422 0.224382 -0.551733
H15   H     H_    0.655982 0.433726 0.151918 0.236638
H16   H     H_    0.660354 0.288755 0.177252 0.249755
N11   N     N_3   0.331958 0.342133 0.625322 -0.579040
H17   H     H_    0.314193 0.246538 0.566973 0.243147
H18   H     H_    0.325653 0.364847 0.733293 0.257731
N12   N     N_3   0.698943 0.618203 0.762601 -0.581598
H19   H     H_    0.670901 0.689274 0.758468 0.256698
H20   H     H_    0.680148 0.546931 0.793481 0.237700
N13   N     N_3   0.215140 0.363297 0.646611 -0.576895
H21   H     H_    0.191936 0.428709 0.717165 0.239524
H22   H     H_    0.186949 0.285667 0.574098 0.291417
N14   N     N_3   0.815107 0.603817 0.742768 -0.551313
H23   H     H_    0.808095 0.553128 0.811785 0.243607
H24   H     H_    0.809562 0.702222 0.795617 0.266576
N15   N     N_3   0.433535 0.832064 0.351653 -0.562871
H25   H     H_    0.448597 0.835613 0.258949 0.248858
H26   H     H_    0.391989 0.862216 0.346488 0.211167
N16   N     N_3   0.428496 0.137584 0.581288 -0.593329
H27   H     H_    0.387359 0.090124 0.538607 0.221911
H28   H     H_    0.439025 0.136404 0.687022 0.217140
C41   C     C_2   0.534851 0.984076 0.717002 0.319987
H29   H     H_    0.536137 0.087692 0.735774 0.096643
O17   O     O_2   0.563287 0.949123 0.808256 -0.527528
C42   C     C_2   0.536120 0.043682 0.316883 0.298871
H30   H     H_    0.548724 0.082395 0.237495 0.105777
O18   O     O_2   0.556968 0.946054 0.326931 -0.535707
N17   N     N_3   0.435028 0.449184 0.857237 -0.575461
H31   H     H_    0.437490 0.377447 0.757530 0.299636
H32   H     H_    0.409752 0.523573 0.848835 0.243628
N18   N     N_3   0.541471 0.625724 0.188861 -0.494068
H33   H     H_    0.584201 0.605464 0.185078 0.235406
H34   H     H_    0.534070 0.708035 0.160750 0.250957

loop_
_geom_bond_atom_site_label_1
_geom_bond_atom_site_label_2
_ccdc_geom_bond_type
C33   C37   S    
C22   O6    A    
C37   H1    S    
C24   O10   S    
C6    N10   S    
C27   C29   A    
N7    H9    S    
C19   C20   S    
C1    O3    A    
C21   O7    A    
N15   H25   S    
Cu2   O7    S    
C19   N18   S    
C27   C33   A    
C10   N12   S    
Cu1   Cu2   S    
N8    H12   S    
C15   C42   S    
C25   O11   S    
N17   H32   S    
C33   C35   A    
C42   H30   S    
C38   O14   D    
C7    C9    A    
Cu1   N4    S    
N5    H4    S    
Cu2   O3    S    
C9    N11   S    
C14   N1    S    
C1    O1    A    
C2    O2    A    
C13   N2    S    
C8    C22   S    
C40   H8    S    
C1    C15   S    
C18   N15   S    
Cu1   O5    S    
C2    C16   S    
Cu2   O6    S    
C3    C13   A    
C22   O8    A    
C28   C34   A    
N7    H10   S    
C12   N14   S    
N14   H23   S    
C26   O12   S    
N18   H34   S    
N18   H33   S    
N15   H26   S    
C36   C40   S    
N11   H18   S    
C39   H7    S    
C32   C35   A    
N8    H11   S    
Cu2   N3    S    
C4    C6    A    
N13   H21   S    
C5    C7    A    
C6    C8    A    
C38   H2    S    
N11   H17   S    
C2    O4    A    
C20   N17   S    
C39   O15   D    
N6    H6    S    
Cu1   O1    S    
C24   C32   A    
Cu2   O2    S    
C29   C30   A    
N13   H22   S    
C16   C41   S    
C23   O9    S    
C35   C39   S    
N16   H28   S    
C17   C18   S    
C41   O17   D    
N14   H24   S    
C9    C11   A    
N4    N5    S    
C10   C12   A    
C16   C18   D    
C12   C14   A    
N10   H16   S    
C37   O13   D    
C5    N9    S    
N9    H14   S    
C15   C17   D    
N12   H20   S    
C3    C5    A    
C20   N4    D    
C25   C27   A    
C26   C28   A    
N6    H5    S    
C28   C30   A    
C29   C31   A    
C7    C21   S    
N17   H31   S    
C25   N1    A    
C30   C32   A    
Cu1   O8    S    
C11   C13   A    
C26   N2    A    
C42   O18   D    
C23   N1    A    
N16   H27   S    
C24   N2    A    
C34   C36   A    
C4    C14   A    
N5    H3    S    
C3    N7    S    
C17   N16   S    
C4    N8    S    
N9    H13   S    
C11   N13   S    
N12   H19   S    
C8    C10   A    
N10   H15   S    
C41   H29   S    
C34   C38   S    
C31   C36   A    
C40   O16   D    
N3    N6    S    
Cu1   O4    S    
C19   N3    D    
C23   C31   A    
C21   O5    A    
