data_mof_unit_655.cif
_audit_creation_date              2012-10-26T21:05:36-0400
_audit_creation_method            fapswitch 2.2
_symmetry_space_group_name_H-M    P1
_symmetry_Int_Tables_number       1
_space_group_crystal_system       triclinic
_cell_length_a                    12.998705
_cell_length_b                    9.089788
_cell_length_c                    7.78333
_cell_angle_alpha                 89.976843
_cell_angle_beta                  96.07661
_cell_angle_gamma                 89.855089
_cell_volume                      914.472650025

loop_
_atom_site_label
_atom_site_type_symbol
_atom_type_description
_atom_site_fract_x
_atom_site_fract_y
_atom_site_fract_z
_atom_type_partial_charge
C1    C     C_R   0.499609 0.220030 0.499938 0.576929
C2    C     C_R   0.865656 0.389280 0.678369 0.029768
C3    C     C_R   0.134960 0.449342 0.570723 -0.105392
C4    C     C_R   0.865357 0.557875 0.434466 -0.122007
C5    C     C_R   0.027828 0.460900 0.568592 0.012662
C6    C     C_R   0.972625 0.547848 0.438152 -0.015121
C7    C     C_1   0.499717 0.065378 0.499958 -0.002838
C8    C     C_1   0.499890 0.934623 0.499949 0.001161
C9    C     C_2   0.807599 0.295595 0.791761 0.630853
C10   C     C_2   0.190735 0.696756 0.197648 0.623317
C11   C     C_2   0.968969 0.722334 0.183572 0.621409
C12   C     C_R   0.500077 0.779974 0.499995 0.574345
C13   C     C_2   0.032013 0.293342 0.829324 0.587285
C14   C     C_R   0.300306 0.507299 0.468158 0.556012
C15   C     C_R   0.699696 0.493221 0.531903 0.570505
C16   C     C_R   0.812144 0.479446 0.550558 -0.015212
C17   C     C_R   0.187940 0.523297 0.450613 -0.027692
C18   C     C_R   0.025725 0.624570 0.315302 -0.004500
C19   C     C_R   0.974730 0.383835 0.691361 0.056530
C20   C     C_R   0.134287 0.612851 0.322237 0.045832
Cu1   Cu    Cu3+1 0.500010 0.500000 0.669080 1.090981
Cu2   Cu    Cu3+1 0.499990 0.500000 0.330920 1.114688
H1    H     H_    0.821248 0.627248 0.340353 0.161537
H2    H     H_    0.179039 0.379853 0.664674 0.169031
H3    H     H_    0.695058 0.145352 0.807572 0.350612
H4    H     H_    0.204508 0.747540 0.948711 0.347235
H5    H     H_    0.896900 0.553645 0.054373 0.334184
H6    H     H_    0.057161 0.092486 0.936004 0.375920
N1    N     N_1   0.499980 0.500000 0.076820 -0.064254
N2    N     N_1   0.500020 0.500000 0.923180 -0.067098
O1    O     O_R   0.500000 0.288400 0.642760 -0.494711
O2    O     O_R   0.728632 0.204210 0.718007 -0.672828
O3    O     O_2   0.262568 0.777053 0.250321 -0.507000
O4    O     O_R   0.160508 0.685195 0.020325 -0.634929
O5    O     O_2   0.983638 0.854907 0.190266 -0.419119
O6    O     O_R   0.900119 0.664810 0.050674 -0.633104
O7    O     O_2   0.093556 0.351818 0.937871 -0.483987
O8    O     O_R   0.014181 0.141930 0.835853 -0.630090
O9    O     O_R   0.500000 0.711600 0.357240 -0.478367
O10   O     O_R   0.500000 0.288400 0.357240 -0.493610
O11   O     O_R   0.500000 0.711600 0.642760 -0.503362
O12   O     O_R   0.349000 0.500000 0.619590 -0.509675
O13   O     O_R   0.651000 0.500000 0.380410 -0.502750
O14   O     O_R   0.348990 0.500000 0.334020 -0.474937
O15   O     O_R   0.651010 0.500000 0.665980 -0.481402
O16   O     O_2   0.829457 0.296970 0.948463 -0.486806

loop_
_geom_bond_atom_site_label_1
_geom_bond_atom_site_label_2
_ccdc_geom_bond_type
C4    C16   A    
C11   C18   S    
N1    N2    T    
C5    C19   A    
Cu2   N1    S    
H5    O6    S    
C2    C16   A    
Cu1   N2    S    
C13   O7    D    
Cu2   O13   S    
C1    O10   A    
H6    O8    S    
C14   O12   A    
Cu2   O10   S    
H3    O2    S    
C11   O5    D    
C3    H2    S    
C15   O13   A    
C9    O16   D    
C10   O4    S    
Cu1   Cu2   S    
Cu1   O1    S    
C14   C17   S    
C13   O8    S    
C12   O11   A    
C12   O9    A    
Cu1   O11   S    
Cu2   O9    S    
C14   O14   A    
C11   O6    S    
C3    C17   A    
C10   O3    D    
Cu1   O15   S    
C5    C6    A    
C6    C18   A    
C8    C12   S    
C7    C8    T    
C13   C19   S    
C15   C16   S    
C1    O1    A    
C17   C20   A    
C18   C20   A    
C4    C6    A    
C4    H1    S    
C15   O15   A    
C9    O2    S    
C2    C19   A    
C1    C7    S    
C2    C9    S    
H4    O4    S    
Cu2   O14   S    
Cu1   O12   S    
C10   C20   S    
C3    C5    A    
