data_mof_unit_3395.cif
_audit_creation_date              2012-12-11T15:56:41-0500
_audit_creation_method            fapswitch 2.2
_symmetry_space_group_name_H-M    P1
_symmetry_Int_Tables_number       1
_space_group_crystal_system       triclinic
_cell_length_a                    14.678331
_cell_length_b                    7.159343
_cell_length_c                    13.593901
_cell_angle_alpha                 90.000011
_cell_angle_beta                  100.030062
_cell_angle_gamma                 90.0
_cell_volume                      1406.71192088

loop_
_atom_site_label
_atom_site_type_symbol
_atom_type_description
_atom_site_fract_x
_atom_site_fract_y
_atom_site_fract_z
_atom_type_partial_charge
O1    O     O_R   0.336930 0.638190 0.166330 -0.544849
O2    O     O_R   0.663070 0.361810 0.833670 -0.544848
O3    O     O_R   0.163070 0.138190 0.333670 -0.544848
O4    O     O_R   0.836930 0.861810 0.666330 -0.544850
O5    O     O_R   0.147900 0.305430 0.139630 -0.537427
O6    O     O_R   0.852100 0.694570 0.860370 -0.537427
O7    O     O_R   0.352100 0.805430 0.360370 -0.537427
O8    O     O_R   0.647900 0.194570 0.639630 -0.537427
C1    C     C_R   0.115093 0.477592 0.113088 0.707049
C2    C     C_R   0.884907 0.522408 0.886912 0.707051
C3    C     C_R   0.384907 0.977592 0.386912 0.707051
C4    C     C_R   0.615093 0.022408 0.613088 0.707048
O9    O     O_R   0.335280 0.308290 0.154310 -0.509904
O10   O     O_R   0.664720 0.691710 0.845690 -0.509902
O11   O     O_R   0.164720 0.808290 0.345690 -0.509902
O12   O     O_R   0.835280 0.191710 0.654310 -0.509905
O13   O     O_R   0.351790 0.140890 0.348460 -0.534496
O14   O     O_R   0.648210 0.859110 0.651540 -0.534496
O15   O     O_R   0.148210 0.640890 0.151540 -0.534496
O16   O     O_R   0.851790 0.359110 0.848460 -0.534495
C5    C     C_R   0.363366 0.476882 0.132106 0.722731
C6    C     C_R   0.636633 0.523118 0.867894 0.722738
C7    C     C_R   0.136633 0.976882 0.367894 0.722738
C8    C     C_R   0.863367 0.023117 0.632106 0.722728
O17   O     O_3   0.255200 0.472570 0.313680 -0.375492
O18   O     O_3   0.744800 0.527430 0.686320 -0.375493
O19   O     O_3   0.244800 0.972570 0.186320 -0.375493
O20   O     O_3   0.755200 0.027430 0.813680 -0.375492
V1    V     V_3+5 0.249040 0.196590 0.238190 1.442533
V2    V     V_3+5 0.750960 0.803410 0.761810 1.442532
V3    V     V_3+5 0.250960 0.696590 0.261810 1.442533
V4    V     V_3+5 0.749040 0.303410 0.738190 1.442532
C9    C     C_R   0.049397 0.832496 0.495712 0.436810
C10   C     C_R   0.950604 0.167504 0.504289 0.436808
C11   C     C_R   0.450603 0.332496 0.004288 0.436809
C12   C     C_R   0.549397 0.667504 0.995712 0.436811
C13   C     C_R   0.981407 0.846582 0.556407 -0.303255
C14   C     C_R   0.018592 0.153417 0.443593 -0.303252
C15   C     C_R   0.518592 0.346582 0.943593 -0.303255
C16   C     C_R   0.481408 0.653418 0.056407 -0.303257
H1    H     H_    0.968319 0.725332 0.599545 0.190109
H2    H     H_    0.031680 0.274667 0.400454 0.190111
H3    H     H_    0.531680 0.225333 0.900454 0.190109
H4    H     H_    0.468319 0.774667 0.099545 0.190108
C17   C     C_R   0.932279 0.013407 0.563207 -0.213162
C18   C     C_R   0.067720 0.986592 0.436792 -0.213163
C19   C     C_R   0.567720 0.513408 0.936792 -0.213162
C20   C     C_R   0.432279 0.486592 0.063207 -0.213161
C21   C     C_1   0.533927 0.008215 0.533119 -0.185060
C22   C     C_1   0.466073 0.991784 0.466880 -0.185060
C23   C     C_1   0.966073 0.508216 0.966880 -0.185060
C24   C     C_1   0.033927 0.491784 0.033120 -0.185060
O21   O     O_3   0.094797 0.664096 0.491908 -0.535626
C25   C     C_3   0.167403 0.653240 0.574893 0.127559
H5    H     H_    0.141740 0.673095 0.646703 0.097861
H6    H     H_    0.221137 0.760444 0.568703 0.096682
C26   C     C_3   0.211998 0.461062 0.577516 -0.690999
H7    H     H_    0.238740 0.435331 0.507250 0.237717
H8    H     H_    0.270390 0.452540 0.641407 0.153722
H9    H     H_    0.160474 0.351670 0.586583 0.217494
O22   O     O_3   0.905206 0.335906 0.508094 -0.535628
C27   C     C_3   0.832592 0.346757 0.425118 0.127571
H10   H     H_    0.778852 0.239575 0.431326 0.096690
H11   H     H_    0.858242 0.326863 0.353302 0.097847
C28   C     C_3   0.788013 0.538952 0.422483 -0.691000
H12   H     H_    0.839541 0.648320 0.413390 0.217488
H13   H     H_    0.729610 0.547466 0.358602 0.153723
H14   H     H_    0.761288 0.564729 0.492756 0.237719
O23   O     O_3   0.405205 0.164095 0.008093 -0.535628
C29   C     C_3   0.332594 0.153241 0.925114 0.127560
H15   H     H_    0.358248 0.173120 0.853301 0.097856
H16   H     H_    0.278856 0.260430 0.931316 0.096691
C30   C     C_3   0.288009 0.961053 0.922484 -0.691014
H17   H     H_    0.261278 0.935294 0.992754 0.237722
H18   H     H_    0.229610 0.952535 0.858599 0.153725
H19   H     H_    0.339534 0.851678 0.913400 0.217493
O24   O     O_3   0.594797 0.835903 0.991908 -0.535626
C31   C     C_3   0.667403 0.846760 0.074892 0.127559
H20   H     H_    0.721137 0.739556 0.068703 0.096683
H21   H     H_    0.641741 0.826905 0.146703 0.097861
C32   C     C_3   0.711998 0.038938 0.077516 -0.691001
H22   H     H_    0.660475 0.148329 0.086584 0.217493
H23   H     H_    0.770390 0.047459 0.141407 0.153722
H24   H     H_    0.738739 0.064670 0.007249 0.237718

loop_
_geom_bond_atom_site_label_1
_geom_bond_atom_site_label_2
_ccdc_geom_bond_type
O17   V3    S    
O1    C5    A    
O19   V1    S    
O13   V1    S    
C30   H17   S    
O3    C7    A    
O15   V3    S    
C4    C21   S    
O24   C31   S    
O7    C3    A    
C8    C17   S    
O9    V1    S    
C14   H2    S    
C12   O24   S    
O4    C8    A    
C31   H21   S    
C26   H8    S    
C11   C20   A    
O1    V3    S    
C12   C19   A    
O2    V4    S    
O3    V1    S    
C27   H11   S    
C1    O15   A    
C2    O16   A    
C28   H13   S    
O2    C6    A    
C29   H15   S    
O14   V2    S    
C5    C20   S    
O11   C7    A    
C6    C19   S    
O12   C8    A    
C7    C18   S    
C9    C18   A    
C30   H18   S    
O23   C29   S    
C1    C24   S    
O10   V2    S    
C2    C23   S    
C32   H23   S    
C32   H22   S    
O5    V1    S    
C9    O21   S    
C25   H6    S    
O7    V3    S    
C23   C24   T    
O8    V4    S    
C12   C16   A    
O18   V4    S    
C26   H9    S    
C15   H3    S    
O21   C25   S    
C10   O22   S    
C9    C13   A    
C11   C15   A    
O5    C1    A    
C27   H10   S    
O8    C4    A    
C28   H14   S    
C29   C30   S    
O9    C5    A    
C10   C17   A    
O6    V2    S    
C28   H12   S    
C30   H19   S    
C13   C17   A    
C32   H24   S    
C15   C19   A    
O16   V4    S    
C16   C20   A    
C25   H5    S    
C3    O13   A    
C27   C28   S    
C10   C14   A    
O6    C2    A    
O11   V3    S    
O12   V4    S    
O10   C6    A    
O20   V2    S    
C3    C22   S    
C31   H20   S    
C31   C32   S    
C26   H7    S    
C13   H1    S    
O22   C27   S    
C14   C18   A    
C16   H4    S    
C11   O23   S    
C21   C22   T    
C4    O14   A    
C29   H16   S    
O4    V2    S    
C25   C26   S    
