data_mof_unit_833.cif
_audit_creation_date              2012-12-10T17:23:43-0500
_audit_creation_method            fapswitch 2.2
_symmetry_space_group_name_H-M    P1
_symmetry_Int_Tables_number       1
_space_group_crystal_system       triclinic
_cell_length_a                    9.594841
_cell_length_b                    10.810607
_cell_length_c                    17.337718
_cell_angle_alpha                 93.623142
_cell_angle_beta                  85.967818
_cell_angle_gamma                 90.755582
_cell_volume                      1790.26701674

loop_
_atom_site_label
_atom_site_type_symbol
_atom_type_description
_atom_site_fract_x
_atom_site_fract_y
_atom_site_fract_z
_atom_type_partial_charge
C1    C     C_R   0.500457 0.737826 0.504558 0.787597
C2    C     C_R   0.342776 0.477699 0.775266 -0.202197
C3    C     C_R   0.411670 0.496245 0.146079 -0.138380
C4    C     C_R   0.404673 0.500102 0.226333 -0.166329
C5    C     C_R   0.657493 0.488885 0.223267 -0.198132
C6    C     C_R   0.664396 0.484794 0.142694 -0.167541
C7    C     C_R   0.541602 0.486711 0.103660 0.191919
C8    C     C_2   0.450100 0.438308 0.975990 -0.226413
C9    C     C_2   0.552524 0.483543 0.018797 -0.227217
C10   C     C_R   0.527363 0.496168 0.265552 -0.019019
C11   C     C_R   0.347307 0.890836 0.638515 0.145637
C12   C     C_R   0.481750 0.492520 0.649252 0.764952
C13   C     C_R   0.237570 0.956943 0.679234 -0.131249
C14   C     C_R   0.216536 0.080142 0.666430 -0.182544
C15   C     C_R   0.304584 0.139015 0.613113 -0.180070
C16   C     C_R   0.404400 0.071287 0.563863 0.074060
C17   C     C_R   0.417696 0.941995 0.572065 0.055613
C18   C     C_R   0.504081 0.872573 0.514931 -0.110867
C19   C     C_R   0.592103 0.932883 0.461481 -0.182893
C20   C     C_R   0.590474 0.060077 0.459824 -0.174820
C21   C     C_R   0.495283 0.129446 0.508653 -0.074088
C22   C     C_R   0.866955 0.335016 0.395657 -0.154279
C23   C     C_R   0.498518 0.262787 0.502507 0.785200
C24   C     C_R   0.944255 0.254074 0.344615 -0.327742
C25   C     C_R   0.088579 0.252713 0.344445 0.007421
C26   C     C_R   0.155017 0.333912 0.396351 -0.142873
C27   C     C_R   0.080051 0.418373 0.448947 0.158727
C28   C     C_R   0.930623 0.418702 0.448787 0.219400
C29   C     C_R   0.921051 0.577511 0.548735 -0.062784
C30   C     C_R   0.069009 0.577547 0.548674 -0.054574
C31   C     C_R   0.518222 0.499071 0.350152 0.795725
C32   C     C_R   0.472537 0.475980 0.732477 -0.019621
C33   C     C_R   0.594562 0.454085 0.769340 -0.208014
C34   C     C_R   0.587712 0.437697 0.848152 -0.155629
C35   C     C_R   0.458794 0.444854 0.891617 0.192522
C36   C     C_R   0.336105 0.461968 0.854531 -0.168906
Cu1   Cu    Cu3+1 0.359340 0.500010 0.500010 0.929793
Cu2   Cu    Cu3+1 0.640660 0.499990 0.499990 0.933114
H1    H     H_    0.695657 0.449144 0.737354 0.156183
H2    H     H_    0.765530 0.478959 0.110736 0.122164
H3    H     H_    0.660550 0.880686 0.419241 0.154850
H4    H     H_    0.175824 0.916249 0.726025 0.132904
H5    H     H_    0.137525 0.132552 0.701727 0.143408
H6    H     H_    0.291646 0.237605 0.611954 0.174189
H7    H     H_    0.660132 0.104292 0.417723 0.145874
H8    H     H_    0.861667 0.641052 0.588656 0.134811
H9    H     H_    0.757493 0.327776 0.390797 0.205062
H10   H     H_    0.890374 0.191847 0.304944 0.148101
H11   H     H_    0.302936 0.506916 0.257539 0.156095
H12   H     H_    0.265306 0.327604 0.393406 0.231589
H13   H     H_    0.120136 0.641193 0.588518 0.126880
H14   H     H_    0.753665 0.485939 0.252264 0.156984
H15   H     H_    0.647788 0.520695 0.991196 0.143087
H16   H     H_    0.235678 0.466341 0.887279 0.120023
H17   H     H_    0.315335 0.503236 0.117846 0.119941
H18   H     H_    0.246959 0.492662 0.747820 0.145540
H19   H     H_    0.354367 0.401592 0.003251 0.145479
H20   H     H_    0.683415 0.419230 0.874719 0.123546
N1    N     N_R   0.852190 0.498790 0.499250 -0.197485
N2    N     N_R   0.148060 0.498710 0.499220 -0.197437
O1    O     O_R   0.381190 0.680360 0.500010 -0.566407
O2    O     O_R   0.618760 0.680340 0.500000 -0.578467
O3    O     O_R   0.367440 0.500030 0.613600 -0.606281
O4    O     O_R   0.605010 0.500010 0.613590 -0.585783
O5    O     O_R   0.381240 0.319660 0.500000 -0.607429
O6    O     O_R   0.618810 0.319640 0.499990 -0.594882
O7    O     O_R   0.394990 0.499990 0.386410 -0.598294
O8    O     O_R   0.632560 0.499970 0.386400 -0.604034
C37   C     C_3   0.399565 0.780094 0.676853 -0.410197
C38   C     C_3   0.443723 0.815371 0.758649 -0.839040
H21   H     H_    0.519518 0.893946 0.757420 0.258768
H22   H     H_    0.352038 0.841324 0.798735 0.247682
H23   H     H_    0.494743 0.735286 0.781736 0.252090
H24   H     H_    0.315165 0.709222 0.680160 0.207133
H25   H     H_    0.493711 0.740180 0.645396 0.201821
C39   C     C_2   0.168881 0.165600 0.289415 0.356012
H26   H     H_    0.114397 0.103308 0.249911 0.069652
O9    O     O_2   0.296292 0.162197 0.287336 -0.559634

loop_
_geom_bond_atom_site_label_1
_geom_bond_atom_site_label_2
_ccdc_geom_bond_type
C30   H13   S    
C16   C21   A    
C19   C20   A    
C1    O2    A    
C31   O7    A    
C1    C18   S    
Cu1   Cu2   S    
C23   O6    A    
C39   O9    D    
C15   H6    S    
C34   C35   A    
C3    C7    A    
C27   N2    A    
C26   H12   S    
C5    C6    A    
C12   O4    A    
C15   C16   A    
C2    C32   A    
C18   C19   A    
C3    H17   S    
C10   C31   S    
C35   C36   A    
C16   C17   A    
C30   N2    A    
C5    H14   S    
C38   H21   S    
C20   H7    S    
C22   H9    S    
C22   C28   A    
C13   C14   A    
C12   C32   S    
C13   H4    S    
Cu1   O3    S    
C33   C34   A    
Cu2   O4    S    
C31   O8    A    
C24   H10   S    
C29   N1    A    
C24   C25   A    
C12   O3    A    
C8    C9    D    
C25   C26   A    
Cu1   O5    S    
C8    C35   S    
C29   C30   A    
C8    H19   S    
C38   H23   S    
C17   C18   A    
C26   C27   A    
C37   H24   S    
C33   H1    S    
C39   H26   S    
Cu2   O8    S    
C21   C23   S    
C6    H2    S    
C9    H15   S    
C4    C10   A    
C3    C4    A    
C28   N1    A    
C2    C36   A    
C7    C9    S    
Cu2   O6    S    
C11   C17   A    
C1    O1    A    
Cu1   O1    S    
C11   C37   S    
C6    C7    A    
C4    H11   S    
C29   H8    S    
C25   C39   S    
C32   C33   A    
C23   O5    A    
C5    C10   A    
C2    H18   S    
C11   C13   A    
Cu1   O7    S    
C37   H25   S    
C22   C24   A    
C37   C38   S    
Cu1   N2    S    
C36   H16   S    
Cu2   N1    S    
C20   C21   A    
C27   C28   A    
C34   H20   S    
C14   C15   A    
C38   H22   S    
C19   H3    S    
C14   H5    S    
Cu2   O2    S    
