data_mof_unit_812.cif
_audit_creation_date              2012-12-10T20:35:47-0500
_audit_creation_method            fapswitch 2.2
_symmetry_space_group_name_H-M    P1
_symmetry_Int_Tables_number       1
_space_group_crystal_system       triclinic
_cell_length_a                    15.737246
_cell_length_b                    10.62158
_cell_length_c                    9.904471
_cell_angle_alpha                 89.202374
_cell_angle_beta                  89.292136
_cell_angle_gamma                 90.661318
_cell_volume                      1655.17571223

loop_
_atom_site_label
_atom_site_type_symbol
_atom_type_description
_atom_site_fract_x
_atom_site_fract_y
_atom_site_fract_z
_atom_type_partial_charge
C1    C     C_R   0.497905 0.260679 0.500804 0.864683
C2    C     C_R   0.492494 0.128650 0.500770 -0.169334
C3    C     C_R   0.422059 0.065848 0.443826 -0.064516
C4    C     C_R   0.338468 0.500345 0.500775 0.875886
C5    C     C_R   0.421683 0.932976 0.444864 -0.065858
C6    C     C_R   0.494294 0.871118 0.494403 -0.168915
C7    C     C_R   0.566533 0.937018 0.531130 0.099141
C8    C     C_3   0.618079 0.926876 0.656590 -0.448953
C9    C     C_3   0.616561 0.069572 0.660918 -0.434285
C10   C     C_R   0.447453 0.420156 0.073414 0.105321
C11   C     C_R   0.557729 0.571127 0.068078 -0.001682
C12   C     C_3   0.948616 0.407466 0.601503 0.470979
C13   C     C_R   0.557146 0.569832 0.924260 -0.079939
C14   C     C_R   0.447565 0.420102 0.931196 0.148378
C15   C     C_3   0.352922 0.416653 0.927773 0.463693
C16   C     C_R   0.498354 0.739244 0.498969 0.850720
C17   C     C_3   0.352742 0.416644 0.081075 -0.475469
C18   C     C_R   0.661586 0.500257 0.499194 0.894272
C19   C     C_3   0.046600 0.407736 0.604073 -0.456699
C20   C     C_3   0.050651 0.474883 0.355800 -0.185705
C21   C     C_3   0.952143 0.471199 0.356511 -0.512306
C22   C     C_1   0.750419 0.502247 0.497525 -0.146348
C23   C     C_3   0.917314 0.507193 0.497776 0.139853
C24   C     C_3   0.082935 0.506152 0.500571 0.043465
C25   C     C_2   0.915705 0.746815 0.455296 0.419582
C26   C     C_2   0.350479 0.139781 0.387391 0.543737
C27   C     C_2   0.344507 0.858204 0.409507 0.503053
C28   C     C_2   0.620570 0.654646 0.133396 0.431080
C29   C     C_2   0.085983 0.353225 0.301832 0.466041
C30   C     C_2   0.085228 0.687568 0.669202 0.417079
C31   C     C_3   0.951458 0.639863 0.539319 -0.214765
C32   C     C_3   0.050724 0.640590 0.536687 -0.187445
C33   C     C_1   0.825705 0.504456 0.497037 -0.018254
C34   C     C_1   0.174582 0.504197 0.502012 -0.002557
C35   C     C_1   0.249775 0.502268 0.502138 -0.109417
C36   C     C_R   0.565355 0.064770 0.535116 0.108979
F1    F     F_    0.916622 0.431453 0.729672 -0.645369
F2    F     F_    0.322941 0.304227 0.876568 -0.602537
H1    H     H_    0.925538 0.312151 0.572667 0.093392
H2    H     H_    0.325732 0.503866 0.124115 0.184990
H3    H     H_    0.328087 0.327564 0.127784 0.274759
H4    H     H_    0.071979 0.552285 0.285602 0.212729
H5    H     H_    0.927593 0.375835 0.330461 0.168460
H6    H     H_    0.928072 0.536189 0.277209 0.259787
H7    H     H_    0.074938 0.706724 0.456265 0.226541
H8    H     H_    0.928316 0.656281 0.644368 0.158171
H9    H     H_    0.866987 0.806081 0.498556 0.067133
H10   H     H_    0.334212 0.229956 0.430092 0.030041
H11   H     H_    0.350529 0.767759 0.361245 0.055927
H12   H     H_    0.069199 0.428362 0.707414 0.228962
H13   H     H_    0.616284 0.676504 0.238547 0.135069
H14   H     H_    0.068957 0.263752 0.349568 0.087168
H15   H     H_    0.067173 0.641291 0.763760 0.109657
H16   H     H_    0.582816 0.880706 0.742165 0.227925
H17   H     H_    0.682428 0.888880 0.636130 0.200009
H18   H     H_    0.580161 0.106309 0.748626 0.231490
H19   H     H_    0.680030 0.114155 0.642985 0.206298
H20   H     H_    0.070006 0.312018 0.580661 0.161132
H21   H     H_    0.601190 0.628202 0.865660 0.192395
H22   H     H_    0.324584 0.501786 0.880761 0.096993
N1    N     N_R   0.499430 0.499140 0.142800 -0.148580
N2    N     N_R   0.499430 0.499180 0.857150 -0.164109
O1    O     O_R   0.500010 0.316790 0.614690 -0.586867
O2    O     O_2   0.311530 0.103445 0.289182 -0.511399
O3    O     O_2   0.273445 0.894176 0.439686 -0.489735
O4    O     O_2   0.679256 0.702461 0.068268 -0.572529
O5    O     O_2   0.133555 0.354540 0.203499 -0.524603
O6    O     O_2   0.133142 0.778733 0.671068 -0.499279
O7    O     O_R   0.500000 0.316760 0.385350 -0.612910
O8    O     O_R   0.377150 0.500020 0.614720 -0.600391
O9    O     O_R   0.377140 0.499990 0.385380 -0.628796
O10   O     O_R   0.500000 0.683240 0.614650 -0.610785
O11   O     O_R   0.499990 0.683210 0.385310 -0.667599
O12   O     O_R   0.622860 0.500010 0.614620 -0.601464
O13   O     O_R   0.622850 0.499980 0.385280 -0.636243
O14   O     O_2   0.939112 0.766115 0.338754 -0.537752
Zn1   Zn    Zn3+2 0.500010 0.500020 0.653130 0.985640
Zn2   Zn    Zn3+2 0.499990 0.499980 0.346870 0.942786

loop_
_geom_bond_atom_site_label_1
_geom_bond_atom_site_label_2
_ccdc_geom_bond_type
C25   C31   S    
C18   O13   A    
C7    C36   A    
N2    Zn1   S    
C16   O10   A    
C4    O8    A    
C7    C8    S    
C12   C23   S    
C34   C35   T    
C5    C6    A    
C28   H13   S    
C10   C17   S    
C14   N2    A    
C1    C2    S    
C32   H7    S    
C12   F1    S    
C26   O2    D    
C5    C27   S    
C13   N2    A    
C20   C24   S    
C8    C9    S    
C23   C33   S    
C31   H8    S    
C9    C36   S    
O11   Zn2   S    
C25   H9    S    
C26   H10   S    
C1    O7    A    
C4    C35   S    
C18   O12   A    
C29   O5    D    
O8    Zn1   S    
O7    Zn2   S    
C1    O1    A    
C8    H17   S    
C20   C29   S    
C19   H20   S    
C30   H15   S    
C16   O11   A    
C15   H22   S    
C10   C14   A    
C8    H16   S    
C3    C5    A    
O12   Zn1   S    
C24   C34   S    
C17   H2    S    
C23   C31   S    
C28   O4    D    
C24   C32   S    
C15   F2    S    
O10   Zn1   S    
C27   O3    D    
C21   H6    S    
C31   C32   S    
N1    Zn2   S    
C9    H18   S    
C21   C23   S    
C10   N1    A    
O1    Zn1   S    
C2    C36   A    
C15   C17   S    
C22   C33   T    
C18   C22   S    
C3    C26   S    
C11   N1    A    
C20   H4    S    
C6    C7    A    
C13   H21   S    
C25   O14   D    
C12   H1    S    
C2    C3    A    
C30   O6    D    
C30   C32   S    
C11   C13   A    
C19   H12   S    
C11   C28   S    
C12   C19   S    
C19   C24   S    
C9    H19   S    
C4    O9    A    
O13   Zn2   S    
C17   H3    S    
C6    C16   S    
C20   C21   S    
C14   C15   S    
O9    Zn2   S    
C21   H5    S    
C27   H11   S    
C29   H14   S    
