data_mof_unit_4875.cif
_audit_creation_date              2012-12-10T20:42:44-0500
_audit_creation_method            fapswitch 2.2
_symmetry_space_group_name_H-M    P1
_symmetry_Int_Tables_number       1
_space_group_crystal_system       triclinic
_cell_length_a                    8.908745
_cell_length_b                    10.672609
_cell_length_c                    9.884206
_cell_angle_alpha                 89.73987
_cell_angle_beta                  90.024608
_cell_angle_gamma                 89.972536
_cell_volume                      939.775997721

loop_
_atom_site_label
_atom_site_type_symbol
_atom_type_description
_atom_site_fract_x
_atom_site_fract_y
_atom_site_fract_z
_atom_type_partial_charge
C1    C     C_R   0.503989 0.260114 0.500448 0.889487
C2    C     C_R   0.592808 0.937650 0.388973 0.265868
C3    C     C_R   0.532788 0.871471 0.500862 -0.188312
C4    C     C_R   0.500530 0.935273 0.619936 0.104886
C5    C     C_3   0.368249 0.925479 0.712504 -0.439187
C6    C     C_3   0.366637 0.067531 0.714427 -0.477212
C7    C     C_R   0.368188 0.499089 0.071097 0.237559
C8    C     C_R   0.630127 0.511380 0.071795 -0.081580
C9    C     C_R   0.630133 0.511355 0.928148 -0.121676
C10   C     C_R   0.368160 0.499336 0.928746 0.223870
C11   C     C_3   0.249161 0.401360 0.923350 -0.508057
C12   C     C_R   0.218765 0.499979 0.499967 0.930418
C13   C     C_3   0.249563 0.400751 0.077034 -0.505496
C14   C     C_R   0.508133 0.739834 0.499536 0.911135
C15   C     C_R   0.781253 0.500019 0.500033 0.939005
C16   C     C_1   0.065421 0.499964 0.499970 -0.202738
C17   C     C_1   0.934605 0.499986 0.500029 -0.191789
C18   C     C_R   0.498707 0.062702 0.621414 0.146555
C19   C     C_R   0.527015 0.128879 0.502984 -0.160710
C20   C     C_R   0.587769 0.067613 0.390574 -0.253101
H1    H     H_    0.624890 0.119797 0.302442 0.197327
H2    H     H_    0.289785 0.312346 0.878457 0.212375
H3    H     H_    0.143348 0.436680 0.121356 0.211946
H4    H     H_    0.290876 0.311356 0.121782 0.219601
H5    H     H_    0.268079 0.884105 0.662517 0.199105
H6    H     H_    0.398462 0.883070 0.811800 0.224024
H7    H     H_    0.265375 0.109183 0.666050 0.198387
H8    H     H_    0.396599 0.106839 0.814794 0.210891
H9    H     H_    0.735547 0.518827 0.125295 0.165387
H10   H     H_    0.735571 0.518696 0.874671 0.158383
H11   H     H_    0.142869 0.437923 0.879348 0.210093
N1    N     N_R   0.499010 0.499140 0.142800 -0.108350
N2    N     N_R   0.499010 0.499180 0.857150 -0.112041
O1    O     O_R   0.500020 0.316790 0.614690 -0.615206
O2    O     O_R   0.500000 0.316760 0.385350 -0.626003
O3    O     O_R   0.285350 0.500020 0.614650 -0.620510
O4    O     O_R   0.285340 0.499980 0.385310 -0.614828
O5    O     O_R   0.500000 0.683240 0.614650 -0.618461
O6    O     O_R   0.499980 0.683210 0.385310 -0.568021
O7    O     O_R   0.714660 0.500020 0.614690 -0.629635
O8    O     O_R   0.714650 0.499980 0.385350 -0.616280
Zn1   Zn    Zn3+2 0.500010 0.500020 0.653130 0.949266
Zn2   Zn    Zn3+2 0.499990 0.499980 0.346870 0.977051
Br1   Br    Br    0.677022 0.860109 0.230793 -0.523429

loop_
_geom_bond_atom_site_label_1
_geom_bond_atom_site_label_2
_ccdc_geom_bond_type
O4    Zn2   S    
C7    C10   A    
C12   O3    A    
C11   C13   S    
C11   H2    S    
O3    Zn1   S    
C19   C20   A    
O1    Zn1   S    
C6    H7    S    
C4    C18   A    
O7    Zn1   S    
C2    C3    A    
C11   H11   S    
C9    N2    A    
C4    C5    S    
O8    Zn2   S    
C15   O8    A    
C3    C14   S    
C9    H10   S    
C5    H5    S    
N2    Zn1   S    
N1    Zn2   S    
C1    O1    A    
O5    Zn1   S    
C10   N2    A    
C5    C6    S    
C6    C18   S    
C15   O7    A    
C1    C19   S    
C14   O5    A    
C10   C11   S    
C8    H9    S    
C2    C20   A    
C5    H6    S    
C8    N1    A    
C7    C13   S    
O2    Zn2   S    
C20   H1    S    
C13   H3    S    
C18   C19   A    
C12   O4    A    
C15   C17   S    
C1    O2    A    
C16   C17   T    
O6    Zn2   S    
C7    N1    A    
C14   O6    A    
C6    H8    S    
C3    C4    A    
C12   C16   S    
C13   H4    S    
C2    Br1   S    
C8    C9    A    
