data_mof_unit_567.cif
_audit_creation_date              2012-12-11T15:54:05-0500
_audit_creation_method            fapswitch 2.2
_symmetry_space_group_name_H-M    P1
_symmetry_Int_Tables_number       1
_space_group_crystal_system       triclinic
_cell_length_a                    10.659104
_cell_length_b                    10.697928
_cell_length_c                    17.037856
_cell_angle_alpha                 80.702447
_cell_angle_beta                  99.340612
_cell_angle_gamma                 118.764453
_cell_volume                      1672.67486667

loop_
_atom_site_label
_atom_site_type_symbol
_atom_type_description
_atom_site_fract_x
_atom_site_fract_y
_atom_site_fract_z
_atom_type_partial_charge
Br1   Br    Br    0.808311 0.281665 0.181119 -0.595880
C1    C     C_R   0.384288 0.283745 0.632056 0.555342
C2    C     C_1   0.333226 0.185734 0.781442 -0.053077
C3    C     C_1   0.336072 0.663351 0.277642 -0.049965
C4    C     C_R   0.369591 0.654873 0.586148 0.538127
C5    C     C_1   0.323784 0.672745 0.206887 -0.051367
C6    C     C_R   0.820440 0.661568 0.155478 0.001552
C7    C     C_R   0.806759 0.539869 0.206347 0.071024
C8    C     C_R   0.798421 0.533932 0.285782 0.007693
C9    C     C_R   0.797431 0.761857 0.266376 -0.152353
C10   C     C_R   0.804918 0.768313 0.184716 -0.156566
C11   C     C_3   0.900312 0.466734 0.223281 0.039814
C12   C     C_R   0.394425 0.830266 0.674907 -0.135894
C13   C     C_3   0.886335 0.457667 0.311070 -0.241231
C14   C     C_R   0.804814 0.648240 0.318152 0.003373
C15   C     C_R   0.302997 0.126817 0.169812 0.014652
C16   C     C_R   0.781142 0.621068 0.626226 0.545322
C17   C     C_R   0.184819 0.111169 0.203182 0.011311
C18   C     C_R   0.191401 0.121741 0.282521 0.002404
C19   C     C_R   0.427991 0.136823 0.302482 -0.146702
C20   C     C_R   0.419334 0.124521 0.221239 -0.137070
C21   C     C_3   0.094084 0.184425 0.178087 -0.233482
C22   C     C_3   0.100888 0.197956 0.265737 -0.234229
C23   C     C_R   0.377500 0.852089 0.750548 -0.150598
C24   C     C_R   0.318835 0.149398 0.331682 0.011492
C25   C     C_R   0.947200 0.724706 0.851630 0.533668
C26   C     C_R   0.282004 0.750666 0.882782 0.543899
C27   C     C_R   0.286408 0.118152 0.858299 0.536321
C28   C     C_R   0.350009 0.223514 0.401160 0.558667
C29   C     C_R   0.885432 0.690263 0.082872 0.559074
C30   C     C_R   0.313240 0.700466 0.123769 0.555050
C31   C     C_R   0.282535 0.102188 0.087215 0.555206
C32   C     C_R   0.365234 0.654002 0.360711 0.547793
C33   C     C_R   0.770000 0.621512 0.398995 0.550173
C34   C     C_3   0.128111 0.458604 0.792581 -0.244878
C35   C     C_R   0.280583 0.737358 0.798588 -0.001644
C36   C     C_R   0.181303 0.613009 0.762555 0.008907
C37   C     C_R   0.198514 0.590914 0.688101 0.012497
C38   C     C_3   0.147370 0.434516 0.710913 -0.251279
C39   C     C_R   0.315193 0.693004 0.647143 0.014058
C40   C     C_1   0.850371 0.669249 0.702687 -0.032808
C41   C     C_1   0.897341 0.703468 0.769362 -0.036203
C42   C     C_1   0.364458 0.232411 0.714289 -0.054306
Cr1   Cr    Cr6+3 0.608440 0.389080 0.519680 1.018533
Cr2   Cr    Cr6+3 0.288640 0.400090 0.490760 1.009806
Cr3   Cr    Cr6+3 0.602940 0.710800 0.489510 1.025074
Cr4   Cr    Cr6+3 0.052530 0.947560 0.964210 1.026749
Cr5   Cr    Cr6+3 0.059970 0.626800 0.992920 1.045375
Cr6   Cr    Cr6+3 0.373320 0.938440 0.995370 1.048155
H1    H     H_    0.479982 0.916199 0.642559 0.148307
H2    H     H_    0.448255 0.954455 0.773815 0.143815
H3    H     H_    0.013655 0.406124 0.805099 0.154994
H4    H     H_    0.202429 0.440363 0.841281 0.161928
H5    H     H_    0.233181 0.403383 0.712685 0.148998
H6    H     H_    0.044161 0.367619 0.676465 0.151008
H7    H     H_    0.788856 0.846240 0.288902 0.150988
H8    H     H_    0.810277 0.861326 0.146154 0.147207
H9    H     H_    0.012487 0.537005 0.208146 0.151476
H10   H     H_    0.821878 0.347057 0.338665 0.173399
H11   H     H_    0.989789 0.522929 0.345993 0.115796
H12   H     H_    0.525354 0.150768 0.339945 0.148980
H13   H     H_    0.505076 0.118829 0.198429 0.197689
H14   H     H_    0.984678 0.111581 0.152079 0.172779
H15   H     H_    0.150543 0.289159 0.142346 0.158347
H16   H     H_    0.159375 0.311813 0.279102 0.175692
H17   H     H_    0.994972 0.133589 0.290314 0.163168
O1    O     O_R   0.754020 0.497590 0.609930 -0.514391
O2    O     O_R   0.406180 0.826930 0.920660 -0.499624
O3    O     O_R   0.358620 0.062870 0.901950 -0.512214
O4    O     O_R   0.481420 0.271390 0.600630 -0.491355
O5    O     O_R   0.163910 0.085460 0.050210 -0.517550
O6    O     O_R   0.935200 0.815170 0.045770 -0.501920
O7    O     O_R   0.916120 0.596690 0.069430 -0.479152
O8    O     O_R   0.192310 0.631200 0.086170 -0.499092
O9    O     O_R   0.406770 0.819480 0.096420 -0.492452
O10   O     O_R   0.359170 0.055960 0.064880 -0.488507
O11   O     O_3   0.161940 0.837600 0.984160 -0.302777
O12   O     O_R   0.295080 0.533620 0.397890 -0.509876
O13   O     O_R   0.263810 0.254550 0.589590 -0.508891
O14   O     O_R   0.300820 0.531200 0.560890 -0.514271
O15   O     O_R   0.491480 0.744020 0.564270 -0.518174
O16   O     O_R   0.726290 0.693800 0.583010 -0.493744
O17   O     O_R   0.747830 0.500190 0.434090 -0.516647
O18   O     O_R   0.475680 0.273800 0.437630 -0.500645
O19   O     O_R   0.257620 0.257160 0.413750 -0.519054
O20   O     O_R   0.485280 0.746620 0.388440 -0.504596
O21   O     O_R   0.720550 0.696220 0.420010 -0.503408
O22   O     O_3   0.500010 0.499990 0.499980 -0.264465
O23   O     O_R   0.163320 0.092900 0.874450 -0.512327
O24   O     O_R   0.934650 0.822080 0.882840 -0.480419
O25   O     O_R   0.915520 0.604140 0.893670 -0.501234
O26   O     O_R   0.191760 0.638110 0.923230 -0.509367

loop_
_geom_bond_atom_site_label_1
_geom_bond_atom_site_label_2
_ccdc_geom_bond_type
C15   C20   A    
Cr6   O2    S    
C34   H4    S    
C40   C41   T    
C34   C38   S    
C27   O3    A    
C32   O20   A    
Cr1   O17   S    
C6    C7    A    
C6    C10   A    
C13   H10   S    
C2    C42   T    
C23   C35   A    
C22   H17   S    
C35   C36   A    
C34   C36   S    
C17   C18   A    
C9    C14   A    
C37   C38   S    
C32   O12   A    
C38   H5    S    
C19   C24   A    
C16   O16   A    
C19   H12   S    
C12   C39   A    
C26   O2    A    
C21   H14   S    
Cr3   O16   S    
C38   H6    S    
C7    C8    A    
Cr5   O25   S    
Cr6   O9    S    
Cr1   O4    S    
C27   O23   A    
C1    O13   A    
C9    H7    S    
C14   C33   S    
C28   O19   A    
C11   H9    S    
C23   H2    S    
C5    C30   S    
C6    C29   S    
Cr6   O3    S    
Cr4   O23   S    
Br1   C11   S    
C31   O5    A    
Cr3   O22   S    
C24   C28   S    
C16   O1    A    
Cr5   O8    S    
Cr2   O22   S    
C28   O18   A    
C3    C5    T    
C29   O7    A    
C18   C22   S    
C30   O8    A    
C25   O25   A    
C12   C23   A    
Cr5   O11   S    
Cr2   O19   S    
C8    C13   S    
C36   C37   A    
Cr3   O15   S    
C4    O15   A    
C30   O9    A    
C1    C42   S    
C7    C11   S    
Cr6   O10   S    
C26   O26   A    
Cr2   O13   S    
C4    O14   A    
Cr4   O5    S    
C20   H13   S    
Cr2   O12   S    
C11   C13   S    
Cr4   O24   S    
C15   C31   S    
C33   O17   A    
Cr4   O11   S    
C25   C41   S    
Cr3   O21   S    
C3    C32   S    
C2    C27   S    
C17   C21   S    
Cr5   O7    S    
Cr1   O18   S    
C31   O10   A    
C29   O6    A    
C26   C35   S    
C25   O24   A    
C13   H11   S    
C22   H16   S    
C8    C14   A    
Cr1   O22   S    
C37   C39   A    
C1    O4    A    
Cr6   O11   S    
Cr2   O14   S    
C33   O21   A    
C18   C24   A    
C16   C40   S    
Cr4   O6    S    
C9    C10   A    
C21   H15   S    
C12   H1    S    
C19   C20   A    
C15   C17   A    
Cr5   O26   S    
C4    C39   S    
C34   H3    S    
C21   C22   S    
Cr1   O1    S    
C10   H8    S    
Cr3   O20   S    
