data_mof_unit_2708.cif
_audit_creation_date              2013-03-05T15:58:07-0500
_audit_creation_method            fapswitch 2.2
_symmetry_space_group_name_H-M    P1
_symmetry_Int_Tables_number       1
_space_group_crystal_system       triclinic
_cell_length_a                    12.616141
_cell_length_b                    13.077902
_cell_length_c                    15.005182
_cell_angle_alpha                 90.710468
_cell_angle_beta                  102.499803
_cell_angle_gamma                 82.72248
_cell_volume                      2397.30202638

loop_
_atom_site_label
_atom_site_type_symbol
_atom_site_description
_atom_site_fract_x
_atom_site_fract_y
_atom_site_fract_z
_atom_type_partial_charge
O1    O     O_R   0.366740 0.627160 0.477250 -0.597143
O2    O     O_R   0.544830 0.662520 0.507680 -0.583055
C1    C     C_R   0.438540 0.691538 0.489549 0.947574
O3    O     O_R   0.410940 0.482340 0.616930 -0.646559
O4    O     O_R   0.589030 0.517700 0.647360 -0.554033
C2    C     C_R   0.501101 0.498106 0.673197 0.985393
Zn1   Zn    Zn3+2 0.381090 0.476390 0.479680 0.956688
Zn2   Zn    Zn3+2 0.618910 0.523610 0.520320 1.032626
O5    O     O_R   0.455170 0.337480 0.492320 -0.621910
O6    O     O_R   0.633260 0.372840 0.522750 -0.574423
O7    O     O_R   0.410970 0.482300 0.352640 -0.635462
O8    O     O_R   0.589060 0.517660 0.383070 -0.656326
C3    C     C_R   0.560969 0.308486 0.512774 0.880512
C4    C     C_R   0.499657 0.499204 0.326926 0.853777
C5    C     C_R   0.598697 0.497808 0.203145 -0.250417
C6    C     C_R   0.499806 0.496546 0.230892 -0.060864
C7    C     C_R   0.401676 0.492650 0.167007 -0.256551
C8    C     C_R   0.401576 0.491082 0.074678 0.113795
C9    C     C_R   0.501104 0.493213 0.046624 0.072700
C10   C     C_R   0.600060 0.496293 0.111227 0.115869
C11   C     C_R   0.303677 0.488118 0.010081 -0.201402
C12   C     C_R   0.304169 0.487767 0.917543 -0.184436
C13   C     C_R   0.402572 0.490368 0.889308 0.122125
C14   C     C_R   0.501580 0.492928 0.953931 0.059604
C15   C     C_R   0.600933 0.495973 0.925870 0.084132
C16   C     C_R   0.698944 0.498363 0.990444 -0.165881
C17   C     C_R   0.698535 0.498405 0.082989 -0.208424
C18   C     C_R   0.403591 0.491158 0.797346 -0.243642
C19   C     C_R   0.502093 0.494886 0.769516 -0.038298
C20   C     C_R   0.600377 0.497171 0.833530 -0.092924
H1    H     H_    0.674813 0.499975 0.252892 0.164702
H2    H     H_    0.325305 0.491766 0.188907 0.163553
H3    H     H_    0.226962 0.486444 0.031118 0.152935
H4    H     H_    0.227807 0.485841 0.868139 0.154970
H5    H     H_    0.327246 0.490190 0.747609 0.156344
H6    H     H_    0.676404 0.500085 0.811776 0.210941
H7    H     H_    0.775560 0.500539 0.969363 0.164205
H8    H     H_    0.774865 0.500585 0.132380 0.151769
C21   C     C_R   0.644523 0.077638 0.661596 -0.218958
H9    H     H_    0.566567 0.928930 0.735384 0.193817
H10   H     H_    0.689065 0.055847 0.730258 0.194481
C22   C     C_R   0.595800 0.199555 0.535435 -0.168923
C23   C     C_R   0.338281 0.818272 0.374453 -0.184732
C24   C     C_R   0.328360 0.915642 0.335631 -0.129133
C25   C     C_R   0.383743 0.991503 0.383800 -0.144395
C26   C     C_R   0.442447 0.973087 0.475248 0.059335
C27   C     C_R   0.433830 0.880278 0.519343 -0.054751
C28   C     C_R   0.512282 0.041285 0.523769 0.092696
C29   C     C_R   0.565604 0.018201 0.615767 0.002532
C30   C     C_R   0.535987 0.938774 0.662277 -0.140139
C31   C     C_R   0.466115 0.872228 0.615702 0.448400
C32   C     C_R   0.530160 0.132234 0.484534 -0.275726
C33   C     C_R   0.663204 0.167044 0.620811 0.452738
C34   C     C_R   0.396380 0.798770 0.464589 -0.025630
H11   H     H_    0.485880 0.158444 0.417380 0.147315
H12   H     H_    0.306625 0.756433 0.332200 0.147034
H13   H     H_    0.379057 0.062929 0.347410 0.125457
H14   H     H_    0.284420 0.930122 0.265649 0.152178
C35   C     C_R   0.086627 0.347607 0.370719 -0.289075
H15   H     H_    0.253039 0.332620 0.355257 0.131064
H16   H     H_    0.878762 0.317157 0.348190 0.158230
H17   H     H_    0.063906 0.289425 0.320595 0.150959
N1    N     N_R   0.222190 0.444670 0.452360 -0.107477
C36   C     C_R   0.805019 0.626690 0.612006 0.462141
C37   C     C_R   0.912161 0.648609 0.637769 -0.255634
C38   C     C_R   0.991451 0.598836 0.596479 -0.253569
C39   C     C_R   0.964345 0.525875 0.528282 0.014818
C40   C     C_R   0.854442 0.503025 0.505843 0.151681
C41   C     C_R   0.042433 0.474604 0.482268 0.008714
C42   C     C_R   0.010645 0.399042 0.416632 0.179137
C43   C     C_R   0.903565 0.375466 0.397621 -0.260117
C44   C     C_R   0.826840 0.426668 0.441629 -0.127853
C45   C     C_R   0.151473 0.495896 0.498133 -0.036984
C46   C     C_R   0.193098 0.371816 0.389921 0.016606
N2    N     N_R   0.776970 0.554790 0.547140 -0.187432
H18   H     H_    0.183098 0.552630 0.545609 0.139733
H19   H     H_    0.072770 0.619380 0.619728 0.165711
H20   H     H_    0.933526 0.705889 0.689101 0.194753
H21   H     H_    0.746766 0.403781 0.424794 0.208378
S1    S     S_3+6 0.406838 0.795841 0.683260 0.017863
O9    O     O_2   0.494327 0.715499 0.732703 -0.294019
O10   O     O_2   0.364697 0.863781 0.752823 -0.277116
O11   O     O_3   0.302246 0.740101 0.621637 -0.582021
H22   H     H_    0.285111 0.690600 0.664299 0.366151
N3    N     N_R   0.724621 0.685835 0.650733 0.229024
O12   O     O_R   0.721960 0.666961 0.735012 -0.384194
O13   O     O_R   0.690351 0.778330 0.617839 -0.420139
S2    S     S_3+6 0.766880 0.237105 0.680366 0.027056
O14   O     O_2   0.715227 0.329746 0.722342 -0.351545
O15   O     O_2   0.842879 0.171002 0.754647 -0.281779
O16   O     O_3   0.839216 0.275105 0.607754 -0.536924
H23   H     H_    0.888423 0.321170 0.643729 0.377799

loop_
_geom_bond_atom_site_label_1
_geom_bond_atom_site_label_2
_geom_bond_distance
_ccdc_geom_bond_type
C8    C11   1.399824 A    
C9    C10   1.409905 A    
C21   H10   1.083774 S    
N3    O12   1.299830 A    
C40   N2    1.371763 A    
Zn1   O7    2.025832 S    
C25   H13   1.076508 S    
C16   C17   1.389764 A    
C18   C19   1.400574 A    
C44   H21   1.066884 S    
O3    Zn1   2.014195 S    
C22   C33   1.412598 A    
O4    C2    1.306598 A    
C1    C34   1.458642 S    
C11   H3    1.083807 S    
C17   H8    1.083939 S    
C5    C6    1.400155 A    
C8    C9    1.411594 A    
O5    C3    1.310321 A    
C31   S1    1.768465 S    
C18   H5    1.084702 S    
C24   H14   1.082698 S    
C6    C7    1.398307 A    
C13   C14   1.409663 A    
C41   C45   1.407227 A    
C42   C43   1.392116 A    
C32   H11   1.077645 S    
Zn2   O8    2.014195 S    
H16   C43   1.084210 S    
C38   C39   1.407672 A    
C11   C12   1.389850 A    
S1    O11   1.681186 S    
C3    C22   1.458395 S    
C30   C31   1.391203 A    
N3    O13   1.297584 A    
C5    C10   1.382934 A    
C12   H4    1.083909 S    
C26   C28   1.416724 A    
C39   C40   1.423234 A    
C14   C15   1.411210 A    
O3    C2    1.299467 A    
O16   H23   0.990620 S    
C27   C31   1.416169 A    
N1    C45   1.348681 A    
C15   C16   1.399731 A    
C25   C26   1.418637 A    
Zn2   N2    2.039424 S    
O1    C1    1.296324 A    
C23   C24   1.386708 A    
C19   C20   1.397912 A    
C23   C34   1.401299 A    
O11   H22   0.990587 S    
S2    O16   1.680986 S    
C40   C44   1.402078 A    
C7    C8    1.385045 A    
C13   C18   1.382924 A    
C35   C46   1.387640 A    
Zn1   N1    2.051758 S    
C27   C34   1.404413 A    
S1    O10   1.503067 D    
C28   C29   1.416415 A    
C10   C17   1.400233 A    
O8    C4    1.301075 A    
C29   C30   1.390985 A    
C45   H18   1.075195 S    
C4    C6    1.441408 S    
C36   N3    1.417753 S    
C24   C25   1.390727 A    
C15   C20   1.384344 A    
Zn1   O5    1.926483 S    
C38   H19   1.076562 S    
C26   C27   1.416783 A    
C35   H17   1.083769 S    
C37   H20   1.083551 S    
C21   C29   1.398166 A    
O1    Zn1   1.957144 S    
O2    Zn2   1.926484 S    
S2    O15   1.503410 D    
S1    O9    1.497919 D    
O6    C3    1.301826 A    
O4    Zn2   2.025833 S    
C16   H7    1.083844 S    
C5    H1    1.084541 S    
N1    C46   1.355692 A    
C20   H6    1.083115 S    
C36   C37   1.388515 A    
C9    C14   1.392150 A    
C43   C44   1.386702 A    
C21   C33   1.395421 A    
H9    C30   1.084682 S    
H15   C46   1.081951 S    
O7    C4    1.304337 A    
C36   N2    1.367210 A    
O2    C1    1.316028 A    
C33   S2    1.768133 S    
C41   C42   1.418679 A    
C35   C42   1.398945 A    
C23   H12   1.083984 S    
C28   C32   1.398214 A    
C2    C19   1.443718 S    
S2    O14   1.499320 D    
Zn2   O6    1.957145 S    
C37   C38   1.378971 A    
C7    H2    1.084636 S    
C12   C13   1.400211 A    
C39   C41   1.418620 A    
C22   C32   1.392303 A    
