data_mof_unit_749.cif
_audit_creation_date              2012-12-10T20:34:49-0500
_audit_creation_method            fapswitch 2.2
_symmetry_space_group_name_H-M    P1
_symmetry_Int_Tables_number       1
_space_group_crystal_system       triclinic
_cell_length_a                    10.63273
_cell_length_b                    10.668747
_cell_length_c                    9.860018
_cell_angle_alpha                 89.874194
_cell_angle_beta                  90.077108
_cell_angle_gamma                 90.348578
_cell_volume                      1118.47540931

loop_
_atom_site_label
_atom_site_type_symbol
_atom_type_description
_atom_site_fract_x
_atom_site_fract_y
_atom_site_fract_z
_atom_type_partial_charge
C1    C     C_R   0.504039 0.260015 0.500192 0.885584
C2    C     C_R   0.516924 0.935948 0.623261 0.108645
C3    C     C_3   0.422539 0.928261 0.735217 -0.470523
C4    C     C_R   0.257753 0.495528 0.499742 0.869963
C5    C     C_3   0.423455 0.070350 0.735477 -0.487260
C6    C     C_R   0.440637 0.406283 0.071431 0.231023
C7    C     C_R   0.568317 0.585679 0.071902 -0.120846
C8    C     C_R   0.568310 0.585691 0.927871 -0.118866
C9    C     C_R   0.440298 0.406551 0.928764 0.218536
C10   C     C_3   0.303372 0.376518 0.923565 -0.522372
C11   C     C_3   0.304048 0.375144 0.077273 -0.507802
C12   C     C_3   0.878787 0.494137 0.499051 0.033645
C13   C     C_R   0.502935 0.740097 0.499896 0.869085
C14   C     C_R   0.742268 0.496679 0.499835 0.876844
C15   C     C_3   0.071333 0.392824 0.599458 -0.420607
C16   C     C_3   0.927552 0.399632 0.606693 -0.351171
C17   C     C_3   0.073956 0.624261 0.540847 -0.437007
C18   C     C_3   0.071512 0.461787 0.354793 -0.438306
C19   C     C_3   0.121378 0.493345 0.498836 0.082951
C20   C     C_3   0.827328 0.791015 0.648867 0.120002
C21   C     C_3   0.928806 0.893454 0.655543 -0.385940
C22   C     C_3   0.870604 0.023799 0.655356 -0.923251
C23   C     C_3   0.929513 0.628190 0.532394 0.333838
C24   C     C_3   0.928261 0.454644 0.355911 -0.032332
C25   C     C_R   0.517989 0.063680 0.623614 0.140829
C26   C     C_R   0.523825 0.128790 0.501348 -0.103740
C27   C     C_R   0.552661 0.065427 0.380944 -0.194461
C28   C     C_R   0.551649 0.935810 0.380659 -0.236262
C29   C     C_R   0.521643 0.871714 0.500734 -0.119991
H1    H     H_    0.110152 0.407890 0.702709 0.185875
H2    H     H_    0.464061 0.111061 0.829673 0.205823
H3    H     H_    0.621489 0.656334 0.126199 0.138526
H4    H     H_    0.100384 0.297707 0.565991 0.177306
H5    H     H_    0.621403 0.656365 0.873436 0.147512
H6    H     H_    0.247359 0.454877 0.880943 0.217031
H7    H     H_    0.284072 0.283108 0.878319 0.198553
H8    H     H_    0.247623 0.451945 0.121643 0.216963
H9    H     H_    0.286367 0.280684 0.121320 0.206089
H10   H     H_    0.885895 0.305152 0.590424 0.184813
H11   H     H_    0.899485 0.429507 0.710372 0.221404
H12   H     H_    0.892934 0.520997 0.277413 0.146752
H13   H     H_    0.106089 0.645989 0.645844 0.205915
H14   H     H_    0.101170 0.536079 0.281808 0.166328
H15   H     H_    0.111982 0.371690 0.319514 0.211324
H16   H     H_    0.763075 0.802670 0.736584 0.159988
H17   H     H_    0.768254 0.801780 0.556443 0.115022
H18   H     H_    0.985406 0.881244 0.749454 0.230660
H19   H     H_    0.992576 0.885845 0.566876 0.215060
H20   H     H_    0.816943 0.039488 0.560109 0.284168
H21   H     H_    0.946542 0.095335 0.662443 0.262371
H22   H     H_    0.806656 0.034911 0.743463 0.262961
H23   H     H_    0.114671 0.697614 0.473062 0.118204
H24   H     H_    0.904204 0.690358 0.445124 0.032820
H25   H     H_    0.567273 0.114919 0.286151 0.189288
H26   H     H_    0.565969 0.886917 0.285793 0.168868
H27   H     H_    0.331263 0.886969 0.701985 0.200777
H28   H     H_    0.462925 0.886780 0.829081 0.200172
H29   H     H_    0.332739 0.111783 0.702119 0.194020
I1    I     I_    0.864936 0.270447 0.291092 -0.461390
N1    N     N_R   0.499150 0.499140 0.142800 -0.104011
N2    N     N_R   0.499150 0.499180 0.857150 -0.109426
O1    O     O_R   0.500020 0.316790 0.614690 -0.620355
O2    O     O_R   0.500000 0.316760 0.385350 -0.611113
O3    O     O_R   0.314800 0.500000 0.614670 -0.629715
O4    O     O_R   0.314790 0.499960 0.385330 -0.627434
O5    O     O_R   0.500000 0.683240 0.614650 -0.622126
O6    O     O_R   0.499980 0.683210 0.385310 -0.626000
O7    O     O_R   0.685210 0.500040 0.614670 -0.591379
O8    O     O_R   0.685200 0.500000 0.385330 -0.621752
O9    O     O_3   0.880988 0.670229 0.658855 -0.637603
Zn1   Zn    Zn3+2 0.500010 0.500020 0.653130 0.947696
Zn2   Zn    Zn3+2 0.499990 0.499980 0.346870 0.949802

loop_
_geom_bond_atom_site_label_1
_geom_bond_atom_site_label_2
_ccdc_geom_bond_type
C5    C25   S    
O8    Zn2   S    
O5    Zn1   S    
O7    Zn1   S    
C10   H6    S    
C7    H3    S    
C18   H15   S    
C11   H9    S    
O4    Zn2   S    
C9    C10   S    
C4    O3    A    
C20   H16   S    
C12   C23   S    
C8    N2    A    
C22   H21   S    
C21   H19   S    
C1    O1    A    
N2    Zn1   S    
C6    C9    A    
C2    C3    S    
C18   H14   S    
C27   H25   S    
C7    C8    A    
C8    H5    S    
C21   C22   S    
O2    Zn2   S    
C15   C19   S    
C24   H12   S    
C23   O9    S    
C20   O9    S    
C26   C27   A    
C17   C23   S    
C5    H29   S    
C16   H11   S    
C2    C29   A    
C18   C24   S    
C3    H28   S    
C17   H23   S    
C13   C29   S    
C28   C29   A    
C17   C19   S    
C28   H26   S    
C12   C14   S    
O1    Zn1   S    
C23   H24   S    
C2    C25   A    
C13   O5    A    
C24   I1    S    
C13   O6    A    
C1    C26   S    
C14   O8    A    
C9    N2    A    
C10   C11   S    
N1    Zn2   S    
C16   H10   S    
C15   C16   S    
C6    N1    A    
C7    N1    A    
C6    C11   S    
C18   C19   S    
C20   C21   S    
C15   H1    S    
O6    Zn2   S    
C3    H27   S    
O3    Zn1   S    
C22   H20   S    
C27   C28   A    
C11   H8    S    
C21   H18   S    
C14   O7    A    
C4    O4    A    
C1    O2    A    
C10   H7    S    
C12   C24   S    
C3    C5    S    
C25   C26   A    
C17   H13   S    
C4    C19   S    
C15   H4    S    
C20   H17   S    
C12   C16   S    
C22   H22   S    
C5    H2    S    
