data_mof_unit_3884.cif
_audit_creation_date              2012-12-10T17:50:11-0500
_audit_creation_method            fapswitch 2.2
_symmetry_space_group_name_H-M    P1
_symmetry_Int_Tables_number       1
_space_group_crystal_system       triclinic
_cell_length_a                    10.62958
_cell_length_b                    14.707738
_cell_length_c                    14.772359
_cell_angle_alpha                 65.035178
_cell_angle_beta                  103.646158
_cell_angle_gamma                 102.783134
_cell_volume                      2015.08256517

loop_
_atom_site_label
_atom_site_type_symbol
_atom_type_description
_atom_site_fract_x
_atom_site_fract_y
_atom_site_fract_z
_atom_type_partial_charge
C1    C     C_R   0.475970 0.119611 0.312464 0.908436
C2    C     C_R   0.522630 0.880112 0.687903 0.888296
C3    C     C_R   0.505120 0.287638 0.174033 0.528035
C4    C     C_R   0.488084 0.708935 0.824898 0.517823
C5    C     C_R   0.450586 0.362850 0.084386 -0.085910
C6    C     C_R   0.502938 0.641945 0.927585 -0.076278
C7    C     C_R   0.346199 0.330531 0.019559 -0.146946
C8    C     C_R   0.581828 0.678845 0.999962 -0.141058
C9    C     C_R   0.494505 0.468621 0.057398 0.001649
C10   C     C_R   0.447408 0.538134 0.959666 -0.004680
C11   C     C_R   0.340616 0.503109 0.899653 -0.170234
C12   C     C_R   0.575634 0.508273 0.126825 -0.198666
C13   C     C_R   0.291302 0.401333 0.928737 0.617619
C14   C     C_R   0.614756 0.611621 0.099559 0.615969
C15   C     C_R   0.730197 0.290104 0.659827 -0.053848
C16   C     C_R   0.264206 0.712414 0.340222 -0.026563
C17   C     C_R   0.694955 0.209066 0.628747 0.808523
C18   C     C_R   0.305179 0.793549 0.370341 0.851312
C19   C     C_R   0.510745 0.280588 0.517567 -0.029262
C20   C     C_R   0.483224 0.715691 0.485005 -0.007870
C21   C     C_R   0.546942 0.370428 0.537334 -0.060224
C22   C     C_R   0.440985 0.625722 0.465639 -0.052416
C23   C     C_R   0.259630 0.000599 0.499785 0.861497
C24   C     C_R   0.740365 0.999497 0.500069 0.869089
C25   C     C_R   0.651407 0.369653 0.618241 0.002363
C26   C     C_R   0.336121 0.628188 0.384729 -0.019301
C27   C     C_R   0.479391 0.458101 0.482995 0.044003
C28   C     C_R   0.503352 0.535965 0.521385 0.025487
C29   C     C_R   0.585137 0.519771 0.616421 0.115490
C30   C     C_R   0.391479 0.472204 0.390403 0.117826
C31   C     C_R   0.666378 0.443712 0.659318 0.145044
C32   C     C_R   0.311874 0.550094 0.348118 0.146768
C33   C     C_3   0.015044 0.010605 0.407480 -0.265956
C34   C     C_3   0.984991 0.989645 0.592194 -0.272032
C35   C     C_3   0.961570 0.086097 0.430877 0.691572
C36   C     C_3   0.038443 0.914149 0.568800 0.688142
C37   C     C_3   0.876825 0.998528 0.500227 -0.178457
C38   C     C_3   0.123186 0.001704 0.499461 -0.175958
C39   C     C_3   0.928653 0.921567 0.477941 -0.261709
C40   C     C_3   0.071374 0.078680 0.521732 -0.275146
C41   C     C_R   0.443864 0.187209 0.206147 -0.286030
C42   C     C_R   0.537687 0.812416 0.796174 -0.288010
C43   C     C_R   0.294860 0.227766 0.047724 -0.190646
C44   C     C_R   0.628561 0.782362 0.971420 -0.189333
C45   C     C_R   0.340788 0.156919 0.141391 0.534611
C46   C     C_R   0.604925 0.849023 0.870830 0.542686
Cu1   Cu    Cu3+1 0.465750 0.918270 0.475680 1.076827
Cu2   Cu    Cu3+1 0.534250 0.081730 0.524320 1.069456
H1    H     H_    0.573705 0.725561 0.533368 0.183750
H2    H     H_    0.419452 0.266378 0.472470 0.185933
H3    H     H_    0.030199 0.020550 0.331836 0.220208
H4    H     H_    0.969911 0.979727 0.667844 0.209819
H5    H     H_    0.868681 0.856604 0.461431 0.194125
H6    H     H_    0.131370 0.143655 0.538213 0.187804
H7    H     H_    0.214744 0.202486 0.999195 0.236924
H8    H     H_    0.685927 0.811877 0.026690 0.238152
H9    H     H_    0.287234 0.554065 0.832497 0.244046
H10   H     H_    0.603256 0.462210 0.205385 0.243263
N1    N     N_R   0.585750 0.204560 0.560800 -0.254110
N2    N     N_R   0.414250 0.795440 0.439200 -0.276721
O1    O     O_R   0.454850 0.022100 0.338110 -0.513866
O2    O     O_R   0.545150 0.977900 0.661890 -0.509306
O3    O     O_R   0.512700 0.160150 0.379180 -0.553025
O4    O     O_R   0.487300 0.839850 0.620820 -0.525815
O5    O     O_R   0.287930 0.931000 0.479440 -0.507066
O6    O     O_R   0.712070 0.069000 0.520560 -0.503054
O7    O     O_R   0.345780 0.069050 0.520520 -0.629514
O8    O     O_R   0.654220 0.930950 0.479480 -0.625158
F1    F     F_    0.918049 0.175052 0.359416 -0.617256
F2    F     F_    0.081993 0.825207 0.640266 -0.638202
F3    F     F_    0.236711 0.873200 0.327351 -0.575933
F4    F     F_    0.767829 0.131963 0.670545 -0.622022
N3    N     N_3   0.847048 0.290909 0.731763 -0.554563
H11   H     H_    0.837952 0.225162 0.797275 0.281083
H12   H     H_    0.925611 0.289272 0.701415 0.278009
N4    N     N_3   0.148762 0.719215 0.265506 -0.480282
H13   H     H_    0.172967 0.726979 0.197807 0.271016
H14   H     H_    0.079850 0.655474 0.292475 0.274286
N5    N     N_3   0.576544 0.573623 0.675862 -0.521472
H15   H     H_    0.545834 0.521267 0.743639 0.276151
H16   H     H_    0.669408 0.610454 0.693151 0.246496
N6    N     N_3   0.389748 0.413279 0.333450 -0.602953
H17   H     H_    0.295779 0.374593 0.323532 0.220028
H18   H     H_    0.413739 0.461924 0.262549 0.228585
F5    F     F_    0.187729 0.372371 0.868007 -0.657492
F6    F     F_    0.688564 0.645433 0.170696 -0.652191
F7    F     F_    0.436643 0.672480 0.751579 -0.651123
F8    F     F_    0.621706 0.308048 0.228566 -0.624645
F9    F     F_    0.654505 0.948258 0.846420 -0.599969
F10   F     F_    0.280556 0.059876 0.169942 -0.583890
N7    N     N_3   0.754399 0.439238 0.750832 -0.575820
H19   H     H_    0.850855 0.454271 0.738087 0.289873
H20   H     H_    0.735670 0.368495 0.808836 0.262018
N8    N     N_3   0.211290 0.552213 0.263379 -0.611049
H21   H     H_    0.252884 0.560601 0.202423 0.230719
H22   H     H_    0.146903 0.484554 0.284034 0.252223

loop_
_geom_bond_atom_site_label_1
_geom_bond_atom_site_label_2
_ccdc_geom_bond_type
C25   C31   A    
C32   N8    S    
C26   C32   A    
C34   C37   S    
N3    H11   S    
C46   F9    S    
C33   C39   S    
C34   C40   S    
C28   C29   A    
C35   C37   S    
N4    H14   S    
C15   C25   A    
C42   C46   A    
C23   O7    A    
Cu1   N2    S    
C2    O4    A    
C7    C43   A    
C20   N2    A    
C9    C10   A    
C24   O6    A    
C12   H10   S    
C21   C27   A    
C38   C40   S    
C22   C28   A    
C27   C30   A    
N3    H12   S    
C1    O3    A    
C36   F2    S    
C16   C26   A    
C37   C39   S    
Cu1   O1    S    
N4    H13   S    
C14   F6    S    
C4    C6    A    
Cu1   O4    S    
C5    C7    A    
Cu2   O3    S    
C6    C8    A    
C44   C46   A    
C19   N1    A    
C4    F7    S    
C30   N6    S    
C5    C9    A    
C20   H1    S    
N7    H20   S    
C44   H8    S    
Cu2   O2    S    
Cu1   Cu2   S    
C29   N5    S    
C24   C37   S    
N8    H22   S    
C45   F10   S    
C43   C45   A    
C17   N1    A    
C18   N2    A    
C15   N3    S    
C20   C22   A    
N6    H18   S    
Cu1   O8    S    
N7    H19   S    
Cu2   N1    S    
N5    H16   S    
C43   H7    S    
C18   F3    S    
C15   C17   A    
C21   C25   A    
C3    C41   A    
C8    C14   A    
C19   C21   A    
C3    F8    S    
C16   N4    S    
C34   H4    S    
C36   C39   S    
C8    C44   A    
C31   N7    S    
C12   C14   A    
C3    C5    A    
C1    O1    A    
C6    C10   A    
C1    C41   S    
C33   H3    S    
C23   C38   S    
C40   H6    S    
C33   C38   S    
C23   O5    A    
C36   C38   S    
C35   C40   S    
C29   C31   A    
C30   C32   A    
C11   C13   A    
C19   H2    S    
C39   H5    S    
C4    C42   A    
C2    C42   S    
C33   C35   S    
C34   C36   S    
Cu2   O7    S    
N8    H21   S    
C9    C12   A    
C10   C11   A    
C24   O8    A    
N5    H15   S    
C7    C13   A    
C35   F1    S    
C17   F4    S    
C16   C18   A    
N6    H17   S    
C22   C26   A    
C13   F5    S    
C27   C28   A    
C41   C45   A    
Cu2   O6    S    
C11   H9    S    
Cu1   O5    S    
C2    O2    A    
