data_mof_unit_1697.cif
_audit_creation_date              2012-12-10T19:04:48-0500
_audit_creation_method            fapswitch 2.2
_symmetry_space_group_name_H-M    P1
_symmetry_Int_Tables_number       1
_space_group_crystal_system       triclinic
_cell_length_a                    15.85619
_cell_length_b                    10.826987
_cell_length_c                    9.544836
_cell_angle_alpha                 89.32288
_cell_angle_beta                  89.898126
_cell_angle_gamma                 89.409574
_cell_volume                      1638.40378864

loop_
_atom_site_label
_atom_site_type_symbol
_atom_type_description
_atom_site_fract_x
_atom_site_fract_y
_atom_site_fract_z
_atom_type_partial_charge
C1    C     C_R   0.506957 0.262832 0.500668 0.867069
C2    C     C_3   0.082788 0.498315 0.500033 0.048530
C3    C     C_3   0.971074 0.587062 0.587119 -0.198355
C4    C     C_3   0.917074 0.499927 0.499312 0.087482
C5    C     C_3   0.027018 0.608152 0.457266 0.488594
C6    C     C_3   0.971779 0.523096 0.368630 -0.191272
C7    C     C_1   0.174518 0.497865 0.500231 0.049385
C8    C     C_1   0.825422 0.500622 0.499423 0.010647
C9    C     C_R   0.494779 0.062960 0.619419 0.001603
C10   C     C_R   0.522556 0.130178 0.503778 -0.188330
C11   C     C_R   0.566210 0.066118 0.395813 0.316353
C12   C     C_R   0.339840 0.498709 0.500049 0.858193
C13   C     C_R   0.558398 0.935441 0.389494 0.157919
C14   C     C_R   0.514354 0.871327 0.498038 -0.145621
C15   C     C_R   0.489618 0.937246 0.615972 -0.027333
C16   C     C_3   0.412023 0.937007 0.706740 0.305063
C17   C     C_3   0.419278 0.077238 0.711285 -0.455473
C18   C     C_R   0.560556 0.562203 0.072702 0.313605
C19   C     C_R   0.437188 0.445551 0.075257 -0.009103
C20   C     C_R   0.437238 0.445402 0.926528 -0.043791
C21   C     C_R   0.560372 0.562677 0.925160 0.254194
C22   C     C_3   0.653057 0.537948 0.919375 -0.491384
C23   C     C_R   0.503030 0.737921 0.498945 0.902539
C24   C     C_3   0.653184 0.536564 0.077836 -0.437237
C25   C     C_R   0.660152 0.501239 0.499939 0.857018
C26   C     C_3   0.971992 0.388140 0.542793 -0.105002
C27   C     C_3   0.028410 0.411410 0.412408 -0.209438
C28   C     C_1   0.250095 0.497999 0.500182 -0.086336
C29   C     C_1   0.749857 0.501113 0.499679 -0.115628
C30   C     C_3   0.027696 0.475229 0.630321 -0.203616
Cu1   Cu    Cu3+1 0.500000 0.499980 0.640670 0.989003
Cu2   Cu    Cu3+1 0.500000 0.500020 0.359330 1.043697
H1    H     H_    0.053068 0.339166 0.341173 0.176204
H2    H     H_    0.422465 0.891135 0.810173 0.103353
H3    H     H_    0.367370 0.129731 0.658668 0.223091
H4    H     H_    0.436369 0.111547 0.816714 0.175032
H5    H     H_    0.387460 0.398633 0.131577 0.142477
H6    H     H_    0.387575 0.398337 0.871730 0.142080
H7    H     H_    0.668997 0.446298 0.874462 0.236111
H8    H     H_    0.688120 0.616980 0.873164 0.211848
H9    H     H_    0.668652 0.444006 0.123135 0.266048
H10   H     H_    0.689104 0.614036 0.123071 0.231211
H11   H     H_    0.947783 0.297091 0.578128 0.173344
H12   H     H_    0.947921 0.543934 0.261564 0.177454
H13   H     H_    0.946655 0.659957 0.657738 0.180464
H14   H     H_    0.051759 0.455288 0.737453 0.175960
N1    N     N_R   0.500530 0.500930 0.147930 -0.181521
N2    N     N_R   0.500530 0.500890 0.852020 -0.192897
O1    O     O_R   0.500000 0.319640 0.618810 -0.591725
O2    O     O_R   0.500010 0.319680 0.381230 -0.527668
O3    O     O_R   0.379070 0.499970 0.618770 -0.563901
O4    O     O_R   0.379080 0.500010 0.381190 -0.592435
O5    O     O_R   0.499990 0.680320 0.618770 -0.581679
O6    O     O_R   0.500000 0.680360 0.381190 -0.543646
O7    O     O_R   0.620920 0.499990 0.618810 -0.603060
O8    O     O_R   0.620930 0.500030 0.381230 -0.548274
S1    S     S_3+6 0.063850 0.755249 0.400565 0.019206
O9    O     O_2   0.108661 0.815901 0.519556 -0.230744
O10   O     O_2   0.123526 0.739073 0.279531 -0.290739
O11   O     O_3   0.981113 0.843231 0.350203 -0.510570
H15   H     H_    0.005709 0.923662 0.322569 0.385114
S2    S     S_3+6 0.632451 0.147661 0.275226 0.047163
O12   O     O_2   0.669959 0.256938 0.346282 -0.298878
O13   O     O_2   0.704354 0.069043 0.223394 -0.208972
O14   O     O_3   0.574844 0.197451 0.137602 -0.516707
H16   H     H_    0.550861 0.121741 0.097032 0.352022
Br1   Br    Br    0.603735 0.847772 0.230354 -0.474343
S3    S     S_3+6 0.317862 0.889572 0.619741 0.036097
O15   O     O_2   0.309371 0.752189 0.635117 -0.287334
O16   O     O_2   0.242969 0.951602 0.686528 -0.226729
O17   O     O_3   0.321853 0.928984 0.448855 -0.534208
H17   H     H_    0.273546 0.886466 0.405736 0.408777

loop_
_geom_bond_atom_site_label_1
_geom_bond_atom_site_label_2
_ccdc_geom_bond_type
C18   C21   A    
C24   H10   S    
C2    C7    S    
C25   O8    A    
C4    C8    S    
C11   S2    S    
C18   N1    A    
C27   H1    S    
C26   C27   S    
C12   C28   S    
C18   C24   S    
C8    C29   T    
C13   Br1   S    
C5    C6    S    
C19   N1    A    
S1    O10   D    
C15   C16   S    
Cu2   O4    S    
S2    O13   D    
C19   H5    S    
C16   H2    S    
Cu1   Cu2   S    
C16   C17   S    
C2    C27   S    
C16   S3    S    
C17   H4    S    
C1    O2    A    
C21   N2    A    
C6    H12   S    
C13   C14   A    
C24   H9    S    
Cu1   O1    S    
Cu2   O6    S    
C12   O4    A    
C26   H11   S    
C23   O5    A    
C25   C29   S    
C4    C6    S    
S3    O15   D    
S1    O11   S    
C3    H13   S    
C7    C28   T    
O11   H15   S    
C14   C23   S    
C3    C30   S    
S2    O12   D    
C20   H6    S    
C6    C27   S    
C22   H8    S    
Cu1   O5    S    
Cu2   O2    S    
C20   N2    A    
C9    C17   S    
C26   C30   S    
Cu1   N2    S    
Cu2   N1    S    
C22   C24   S    
C2    C5    S    
C3    C4    S    
C12   O3    A    
C23   O6    A    
C9    C10   A    
S2    O14   S    
C30   H14   S    
C1    C10   S    
C25   O7    A    
Cu1   O3    S    
C3    C5    S    
C4    C26   S    
C5    S1    S    
C2    C30   S    
C19   C20   A    
C9    C15   A    
O17   H17   S    
C11   C13   A    
S1    O9    D    
S3    O17   S    
C22   H7    S    
C10   C11   A    
S3    O16   D    
O14   H16   S    
C14   C15   A    
C17   H3    S    
Cu1   O7    S    
C21   C22   S    
C1    O1    A    
Cu2   O8    S    
