data_mof_unit_4692.cif
_audit_creation_date              2012-12-10T16:38:34-0500
_audit_creation_method            fapswitch 2.2
_symmetry_space_group_name_H-M    P1
_symmetry_Int_Tables_number       1
_space_group_crystal_system       triclinic
_cell_length_a                    10.882896
_cell_length_b                    10.817245
_cell_length_c                    17.941687
_cell_angle_alpha                 98.056346
_cell_angle_beta                  72.87795
_cell_angle_gamma                 98.415595
_cell_volume                      1986.25157604

loop_
_atom_site_label
_atom_site_type_symbol
_atom_type_description
_atom_site_fract_x
_atom_site_fract_y
_atom_site_fract_z
_atom_type_partial_charge
C1    C     C_R   0.158176 0.480180 0.517724 0.885457
C2    C     C_R   0.623277 0.427965 0.918867 -0.273223
C3    C     C_R   0.676715 0.357669 0.957882 0.474295
C4    C     C_R   0.843042 0.520623 0.482680 0.790153
C5    C     C_R   0.635803 0.365948 0.040587 -0.078880
C6    C     C_R   0.565545 0.467982 0.082062 0.010565
C7    C     C_R   0.663785 0.277561 0.083355 0.064226
C8    C     C_R   0.633949 0.298797 0.165247 0.062353
C9    C     C_R   0.561402 0.500173 0.161921 0.002038
C10   C     C_2   0.981184 0.525739 0.475410 0.280617
C11   C     C_2   0.021927 0.473938 0.527096 -0.150314
C12   C     C_R   0.359069 0.703064 0.834500 -0.268908
C13   C     C_2   0.541821 0.966406 0.475846 -0.338029
C14   C     C_2   0.454886 0.036476 0.524559 -0.314146
C15   C     C_R   0.467684 0.168578 0.517945 0.856667
C16   C     C_R   0.530317 0.832954 0.482601 0.887102
C17   C     C_R   0.564239 0.436364 0.288338 0.843924
C18   C     C_R   0.435624 0.562314 0.712352 0.808173
C19   C     C_R   0.414688 0.593500 0.797508 -0.087245
C20   C     C_R   0.588862 0.412105 0.203578 -0.073531
C21   C     C_R   0.340125 0.736181 0.915061 0.096051
C22   C     C_3   0.093017 0.707326 0.428502 0.074201
C23   C     C_R   0.453502 0.516662 0.841966 0.024824
C24   C     C_3   0.221509 0.755630 0.372782 -0.331085
C25   C     C_3   0.250015 0.897944 0.387172 -0.918344
C26   C     C_3   0.894608 0.345425 0.907106 0.069479
C27   C     C_3   0.942345 0.417374 0.834196 -0.368537
C28   C     C_3   0.084774 0.468670 0.819693 -0.942531
C29   C     C_R   0.458932 0.562410 0.918806 0.080272
C30   C     C_R   0.389143 0.664761 0.957648 0.113478
C31   C     C_R   0.526897 0.505660 0.959348 0.001471
C32   C     C_R   0.503849 0.533409 0.041578 0.093098
C33   C     C_R   0.413412 0.619228 0.080526 -0.175204
C34   C     C_R   0.364421 0.689530 0.038981 -0.236595
H1    H     H_    0.301680 0.759471 0.071630 0.172822
H2    H     H_    0.013568 0.752778 0.419859 0.163865
H3    H     H_    0.300929 0.710456 0.381611 0.208305
H4    H     H_    0.218369 0.730073 0.311097 0.226797
H5    H     H_    0.174466 0.945361 0.375722 0.264328
H6    H     H_    0.345379 0.929468 0.347268 0.268296
H7    H     H_    0.252967 0.925571 0.448654 0.269143
H8    H     H_    0.956092 0.474390 0.645147 0.177290
H9    H     H_    0.953989 0.330439 0.594642 0.181487
H10   H     H_    0.624703 0.666345 0.214008 0.216391
H11   H     H_    0.463945 0.620660 0.249601 0.165681
H12   H     H_    0.621842 0.008021 0.430963 0.149627
H13   H     H_    0.753421 0.193211 0.189893 0.194874
H14   H     H_    0.600406 0.123389 0.199370 0.208332
H15   H     H_    0.960859 0.273235 0.900801 0.165025
H16   H     H_    0.901257 0.409623 0.960599 0.129437
H17   H     H_    0.929584 0.353844 0.782034 0.230758
H18   H     H_    0.885103 0.497555 0.842068 0.212619
H19   H     H_    0.099725 0.532898 0.871056 0.277616
H20   H     H_    0.115739 0.521807 0.767380 0.269637
H21   H     H_    0.145650 0.390524 0.808882 0.251403
H22   H     H_    0.236385 0.880262 0.914848 0.185424
H23   H     H_    0.373955 0.997303 0.569794 0.155126
H24   H     H_    0.343291 0.913465 0.967682 0.186552
H25   H     H_    0.547044 0.374558 0.769159 0.223240
H26   H     H_    0.382605 0.346071 0.797903 0.183493
H27   H     H_    0.327365 0.761580 0.801002 0.174118
H28   H     H_    0.375825 0.632480 0.143288 0.173880
H29   H     H_    0.660998 0.422336 0.855956 0.173400
H30   H     H_    0.809239 0.177444 0.015850 0.209933
H31   H     H_    0.657515 0.117499 0.008866 0.226861
H32   H     H_    0.099103 0.734345 0.489847 0.130673
N1    N     N_3   0.711856 0.160800 0.046593 -0.461442
N2    N     N_3   0.935131 0.422803 0.595695 -0.443163
N3    N     N_3   0.541277 0.625271 0.198655 -0.469401
N4    N     N_3   0.655753 0.208021 0.209847 -0.456380
N5    N     N_3   0.274276 0.843746 0.953298 -0.466495
N6    N     N_3   0.464171 0.385544 0.815887 -0.455029
O1    O     O_3   0.500000 0.500000 0.500000 -0.489004
O2    O     O_R   0.470800 0.371790 0.332500 -0.621698
O3    O     O_R   0.380610 0.619380 0.674980 -0.651369
O4    O     O_R   0.632640 0.524780 0.317540 -0.654301
O5    O     O_R   0.515950 0.484050 0.674980 -0.652873
O6    O     O_3   0.070867 0.575813 0.411367 -0.644135
O7    O     O_3   0.769104 0.281389 0.913326 -0.659204
O8    O     O_R   0.535460 0.243030 0.556410 -0.633267
O9    O     O_R   0.437420 0.784080 0.535340 -0.641795
O10   O     O_R   0.223560 0.397520 0.472140 -0.625605
O11   O     O_R   0.803560 0.575360 0.436110 -0.634460
O12   O     O_R   0.209690 0.568800 0.556400 -0.668376
O13   O     O_R   0.763190 0.458310 0.535350 -0.625287
O14   O     O_R   0.414000 0.207090 0.472140 -0.636391
O15   O     O_R   0.613120 0.765800 0.436110 -0.652189
Zn1   Zn    Zn3+2 0.577310 0.422690 0.565550 0.961603
Zn2   Zn    Zn3+2 0.403760 0.371330 0.445150 0.982750
Zn3   Zn    Zn3+2 0.634990 0.589920 0.423760 0.965848
Zn4   Zn    Zn3+2 0.383940 0.616050 0.565540 0.943357

loop_
_geom_bond_atom_site_label_1
_geom_bond_atom_site_label_2
_ccdc_geom_bond_type
C6    C32   A    
C18   O3    A    
C1    C11   S    
C3    O7    S    
C6    C9    A    
C10   O6    S    
C7    C8    A    
H13   N4    S    
C27   H18   S    
C1    O12   A    
C26   C27   S    
C8    C20   A    
O10   Zn2   S    
C21   N5    S    
C23   C29   A    
O2    Zn2   S    
C9    N3    S    
O1    Zn3   S    
C34   H1    S    
C26   H16   S    
C25   H6    S    
C13   H12   S    
H24   N5    S    
H26   N6    S    
C17   C20   S    
C18   C19   S    
O11   Zn3   S    
C22   H32   S    
C31   C32   A    
O5    Zn1   S    
H9    N2    S    
H31   N1    S    
C17   O4    A    
C24   H4    S    
O12   Zn4   S    
O3    Zn4   S    
H25   N6    S    
C13   C14   D    
H8    N2    S    
C28   H21   S    
C27   H17   S    
C33   C34   A    
C30   C34   A    
H11   N3    S    
H30   N1    S    
C24   C25   S    
O1    Zn4   S    
C26   H15   S    
C25   H7    S    
C5    C7    A    
C28   H20   S    
C11   N2    S    
C33   H28   S    
C4    O13   A    
C1    O10   A    
C12   C21   A    
C2    C31   A    
C19   C23   A    
O1    Zn1   S    
C29   C30   A    
C16   O15   A    
C9    C20   A    
C15   O8    A    
H22   N5    S    
C24   H3    S    
H10   N3    S    
C22   O6    S    
C15   O14   A    
C17   O2    A    
C22   C24   S    
O15   Zn3   S    
C4    C10   S    
C2    H29   S    
O13   Zn1   S    
C14   H23   S    
C23   N6    S    
H14   N4    S    
C3    C5    A    
O14   Zn2   S    
C28   H19   S    
C22   H2    S    
C21   C30   A    
C8    N4    S    
C26   O7    S    
C32   C33   A    
C2    C3    A    
O1    Zn2   S    
C29   C31   A    
C25   H5    S    
C12   H27   S    
C5    C6    A    
C4    O11   A    
C18   O5    A    
C12   C19   A    
C16   O9    A    
C10   C11   D    
C7    N1    S    
O9    Zn4   S    
O8    Zn1   S    
C13   C16   S    
C27   C28   S    
C14   C15   S    
O4    Zn3   S    
