data_mof_unit_3375.cif
_audit_creation_date              2013-03-05T16:48:40-0500
_audit_creation_method            fapswitch 2.2
_symmetry_space_group_name_H-M    P1
_symmetry_Int_Tables_number       1
_space_group_crystal_system       triclinic
_cell_length_a                    10.864748
_cell_length_b                    10.869469
_cell_length_c                    10.434963
_cell_angle_alpha                 90.800564
_cell_angle_beta                  90.755484
_cell_angle_gamma                 89.732908
_cell_volume                      1232.06719641

loop_
_atom_site_label
_atom_site_type_symbol
_atom_site_description
_atom_site_fract_x
_atom_site_fract_y
_atom_site_fract_z
_atom_type_partial_charge
O1    O     O_R   0.499990 0.319650 0.605810 -0.592720
O2    O     O_R   0.500010 0.680350 0.394190 -0.592552
O3    O     O_R   0.499990 0.319640 0.394190 -0.572835
O4    O     O_R   0.500010 0.680360 0.605810 -0.572629
C1    C     C_R   0.496986 0.261534 0.498910 0.824362
C2    C     C_R   0.502888 0.738478 0.501093 0.824205
O5    O     O_R   0.319640 0.500010 0.605810 -0.583884
O6    O     O_R   0.680360 0.499990 0.394190 -0.583778
O7    O     O_R   0.319650 0.500010 0.394190 -0.570118
O8    O     O_R   0.680350 0.499990 0.605810 -0.570176
C3    C     C_R   0.261519 0.503469 0.499091 0.827453
C4    C     C_R   0.738481 0.496529 0.500903 0.827636
Cu1   Cu    Cu3+1 0.500000 0.500000 0.625300 1.003340
Cu2   Cu    Cu3+1 0.500000 0.500000 0.374700 1.003439
H1    H     H_    0.261129 0.703170 0.956951 0.176336
H2    H     H_    0.739632 0.294536 0.042411 0.176453
C5    C     C_R   0.226403 0.742298 0.156434 -0.089840
C6    C     C_R   0.774237 0.256352 0.842723 -0.090494
H3    H     H_    0.271281 0.830890 0.156397 0.157678
H4    H     H_    0.729738 0.167555 0.842430 0.156961
C7    C     C_R   0.174394 0.699617 0.269174 -0.091926
C8    C     C_R   0.825945 0.299692 0.730113 -0.091181
H5    H     H_    0.180223 0.755458 0.355838 0.160527
H6    H     H_    0.820226 0.244168 0.643227 0.161491
C9    C     C_R   0.114977 0.585178 0.269615 0.107910
C10   C     C_R   0.885058 0.414300 0.730124 0.107479
C11   C     C_R   0.107263 0.514794 0.156007 -0.135625
C12   C     C_R   0.892710 0.484232 0.844028 -0.136131
H7    H     H_    0.060346 0.427150 0.154729 0.156744
H8    H     H_    0.939488 0.571949 0.845673 0.155128
C13   C     C_R   0.160811 0.557024 0.043920 -0.175181
C14   C     C_R   0.839360 0.441395 0.955966 -0.173819
H9    H     H_    0.156091 0.501732 0.956923 0.137527
H10   H     H_    0.844020 0.496338 0.043199 0.137368
C15   C     C_R   0.220146 0.670761 0.044047 -0.077134
C16   C     C_R   0.780373 0.327460 0.955406 -0.077582
C17   C     C_R   0.931646 0.532734 0.391577 -0.155815
C18   C     C_R   0.068352 0.467305 0.608398 -0.156638
H11   H     H_    0.878868 0.560698 0.307840 0.149341
H12   H     H_    0.121128 0.439295 0.692118 0.149488
C19   C     C_R   0.872074 0.494674 0.502221 -0.044223
C20   C     C_R   0.127926 0.505351 0.497753 -0.044160
C21   C     C_R   0.941141 0.460420 0.611784 0.027016
C22   C     C_R   0.058862 0.539539 0.388157 0.027928
H13   H     H_    0.328152 0.254844 0.934712 0.172646
H14   H     H_    0.674878 0.743344 0.063150 0.172464
C23   C     C_R   0.272627 0.210916 0.125391 -0.134461
C24   C     C_R   0.729122 0.789199 0.872637 -0.134696
H15   H     H_    0.179837 0.244085 0.108861 0.172039
H16   H     H_    0.822218 0.756594 0.888293 0.172084
C25   C     C_R   0.306445 0.159758 0.243691 0.317959
C26   C     C_R   0.694310 0.840973 0.755013 0.316865
C27   C     C_R   0.428832 0.115507 0.261824 -0.135539
C28   C     C_R   0.571624 0.884509 0.737872 -0.136085
C29   C     C_R   0.514205 0.122626 0.160080 0.319052
C30   C     C_R   0.486886 0.876263 0.840016 0.319749
C31   C     C_R   0.475467 0.171665 0.042401 -0.187092
C32   C     C_R   0.526508 0.826512 0.957044 -0.186972
H17   H     H_    0.538360 0.177070 0.963275 0.151154
H18   H     H_    0.464041 0.819992 0.036407 0.151265
C33   C     C_R   0.356213 0.216383 0.025771 -0.162686
C34   C     C_R   0.646105 0.782388 0.972629 -0.162301
C35   C     C_R   0.472736 0.931911 0.389029 -0.141918
C36   C     C_R   0.526612 0.068102 0.611086 -0.141127
H19   H     H_    0.450166 0.879624 0.302712 0.132377
H20   H     H_    0.549243 0.120369 0.697402 0.132196
C37   C     C_R   0.504119 0.872016 0.502750 -0.039859
C38   C     C_R   0.495425 0.128011 0.497301 -0.038950
C39   C     C_R   0.532533 0.940891 0.615051 0.134193
C40   C     C_R   0.466999 0.059139 0.384995 0.134324
N1    N     N_1   0.500010 0.499990 0.186410 -0.145648
N2    N     N_1   0.499990 0.500010 0.813590 -0.145654
C41   C     C_1   0.500036 0.500006 0.071970 0.069361
C42   C     C_1   0.499975 0.499969 0.928030 0.069172
N3    N     N_R   0.640195 0.082369 0.174965 0.111112
O9    O     O_R   0.698471 0.096438 0.283895 -0.320509
O10   O     O_R   0.702218 0.046073 0.075434 -0.384034
N4    N     N_R   0.360698 0.916095 0.826179 0.110862
O11   O     O_R   0.301819 0.902438 0.717563 -0.321323
O12   O     O_R   0.299257 0.951889 0.926260 -0.385130
N5    N     N_R   0.215628 0.153604 0.343020 0.119315
O13   O     O_R   0.215675 0.063328 0.423671 -0.322511
O14   O     O_R   0.123901 0.231123 0.344360 -0.363550
N6    N     N_R   0.784424 0.848549 0.655232 0.119475
O15   O     O_R   0.784533 0.940628 0.576897 -0.322270
O16   O     O_R   0.875468 0.770404 0.651334 -0.362717

loop_
_geom_bond_atom_site_label_1
_geom_bond_atom_site_label_2
_geom_bond_distance
_ccdc_geom_bond_type
C32   C34   1.391292 A    
C35   H19   1.084248 S    
C11   H7    1.082383 S    
Cu2   N1    1.964799 S    
O7    Cu2   1.972649 S    
N5    O13   1.301610 A    
C23   H15   1.081594 S    
O5    C3    1.273852 A    
H14   C34   1.082698 S    
O1    C1    1.274349 A    
C36   C38   1.399126 A    
N6    O16   1.301478 A    
C18   C20   1.399477 A    
N4    O12   1.300862 A    
C31   H17   1.081063 S    
C32   H18   1.080912 S    
C30   N4    1.441854 S    
C3    C20   1.451388 S    
C41   C42   1.501992 S    
O4    Cu1   1.973763 S    
C26   N6    1.442052 S    
C13   H9    1.082480 S    
C25   N5    1.442881 S    
C29   N3    1.442234 S    
C24   H16   1.081320 S    
Cu1   Cu2   2.615002 S    
C19   C21   1.412614 A    
O2    C2    1.274417 A    
C20   C22   1.412697 A    
C1    C38   1.451360 S    
C27   C40   1.484884 S    
C9    C22   1.479108 S    
H1    C15   1.081396 S    
N5    O14   1.302144 A    
C26   C28   1.422279 A    
C10   C21   1.479022 S    
C35   C37   1.398976 A    
C27   C29   1.422145 A    
C7    H5    1.083397 S    
C28   C30   1.421631 A    
C11   C13   1.397356 A    
C12   C14   1.397388 A    
N6    O15   1.301064 A    
N2    C42   1.194186 T    
N1    C41   1.194184 T    
N4    O11   1.301123 A    
C23   C25   1.404771 A    
C5    C7    1.397763 A    
C37   C39   1.413194 A    
C36   H20   1.084275 S    
N3    O9    1.301301 A    
C4    C19   1.451388 S    
O7    C3    1.270977 A    
C24   C34   1.391159 A    
C35   C40   1.385219 A    
O5    Cu1   1.967423 S    
O6    C4    1.273802 A    
C36   C39   1.385082 A    
N3    O10   1.301142 A    
O3    Cu2   1.973764 S    
O8    C4    1.271034 A    
O4    C2    1.270611 A    
C2    C37   1.451465 S    
C29   C31   1.404196 A    
C8    H6    1.083376 S    
O1    Cu1   1.968002 S    
C14   C16   1.396977 A    
C7    C9    1.404189 A    
O6    Cu2   1.967422 S    
C6    C8    1.397740 A    
O3    C1    1.270628 A    
O8    Cu1   1.972647 S    
C23   C33   1.391403 A    
C31   C33   1.391292 A    
Cu1   N2    1.964800 S    
C9    C11   1.403685 A    
C10   C12   1.403625 A    
C17   C22   1.385451 A    
C12   H8    1.082340 S    
C18   C21   1.385423 A    
C17   H11   1.085032 S    
H2    C16   1.081404 S    
C18   H12   1.085035 S    
C28   C39   1.484494 S    
C13   C15   1.396892 A    
H13   C33   1.082981 S    
C5    H3    1.081395 S    
C30   C32   1.404078 A    
C6    H4    1.081447 S    
C17   C19   1.399505 A    
O2    Cu2   1.968002 S    
C24   C26   1.404041 A    
C38   C40   1.413239 A    
C8    C10   1.404196 A    
C5    C15   1.399110 A    
C25   C27   1.423095 A    
C6    C16   1.399093 A    
C14   H10   1.082446 S    
