data_mof_unit_3453.cif
_audit_creation_date              2012-12-11T17:01:21-0500
_audit_creation_method            fapswitch 2.2
_symmetry_space_group_name_H-M    P1
_symmetry_Int_Tables_number       1
_space_group_crystal_system       triclinic
_cell_length_a                    19.082759
_cell_length_b                    7.131165
_cell_length_c                    17.945779
_cell_angle_alpha                 89.821897
_cell_angle_beta                  108.383108
_cell_angle_gamma                 90.042531
_cell_volume                      2317.46878676

loop_
_atom_site_label
_atom_site_type_symbol
_atom_type_description
_atom_site_fract_x
_atom_site_fract_y
_atom_site_fract_z
_atom_type_partial_charge
O1    O     O_R   0.413720 0.494330 0.415730 -0.524778
O2    O     O_R   0.586280 0.994330 0.584270 -0.550131
O3    O     O_R   0.560210 0.819300 0.430070 -0.514303
O4    O     O_R   0.439790 0.319300 0.569930 -0.534461
C1    C     C_R   0.582566 0.655695 0.415740 0.740395
C2    C     C_R   0.416589 0.155230 0.583025 0.808899
O5    O     O_R   0.412670 0.823730 0.406310 -0.542444
O6    O     O_R   0.587330 0.323730 0.593690 -0.549308
O7    O     O_R   0.437690 0.998790 0.560340 -0.539534
O8    O     O_R   0.562310 0.498790 0.439660 -0.530720
C3    C     C_R   0.385534 0.655319 0.383408 0.715549
C4    C     C_R   0.613838 0.154657 0.617385 0.737766
O9    O     O_3   0.508380 0.662350 0.550560 -0.399773
O10   O     O_3   0.491620 0.162350 0.449440 -0.357246
V1    V     V_3+5 0.498450 0.935370 0.490620 1.592124
V2    V     V_3+5 0.501550 0.435370 0.509380 1.545546
C5    C     C_R   0.724275 0.979317 0.703931 0.128134
C6    C     C_R   0.273005 0.483163 0.300220 0.149766
C7    C     C_R   0.682312 0.144240 0.686068 -0.067075
C8    C     C_R   0.315707 0.646817 0.316546 -0.065844
C9    C     C_R   0.706617 0.297517 0.737082 -0.107471
C10   C     C_R   0.290572 0.800965 0.265853 -0.088009
H1    H     H_    0.673108 0.422051 0.729117 0.151613
H2    H     H_    0.323340 0.926935 0.273972 0.154254
C11   C     C_R   0.771595 0.286333 0.802103 -0.089575
C12   C     C_R   0.225735 0.788928 0.200754 -0.103106
H3    H     H_    0.786925 0.402292 0.842266 0.164822
H4    H     H_    0.209786 0.905594 0.160783 0.166705
C13   C     C_R   0.813704 0.121008 0.819083 -0.077208
C14   C     C_R   0.184569 0.622240 0.183364 -0.071150
C15   C     C_R   0.786324 0.966766 0.770995 0.014112
C16   C     C_R   0.211411 0.469362 0.232941 0.004002
C17   C     C_3   0.762123 0.781320 0.793158 0.315538
C18   C     C_3   0.236182 0.282721 0.213184 0.299981
C19   C     C_3   0.697724 0.790056 0.718009 -0.460627
C20   C     C_3   0.298696 0.290880 0.290096 -0.404336
H5    H     H_    0.803327 0.671614 0.793907 0.042031
H6    H     H_    0.194220 0.173675 0.210670 0.050424
H7    H     H_    0.642101 0.793576 0.725681 0.223141
H8    H     H_    0.355236 0.287932 0.284839 0.218118
H9    H     H_    0.703168 0.685539 0.674797 0.155155
H10   H     H_    0.290803 0.192382 0.334680 0.216216
C21   C     C_R   0.287088 0.145978 0.594128 0.375604
C22   C     C_R   0.693705 0.776762 0.381064 0.447368
C23   C     C_R   0.364786 0.145752 0.629681 -0.224014
C24   C     C_R   0.634287 0.648891 0.368699 -0.184967
C25   C     C_R   0.394816 0.136590 0.711360 -0.152951
C26   C     C_R   0.623390 0.512193 0.310211 -0.113362
C27   C     C_R   0.349806 0.131406 0.760484 -0.077326
C28   C     C_R   0.671389 0.495186 0.264630 -0.100771
C29   C     C_R   0.272092 0.125051 0.725166 -0.058084
C30   C     C_R   0.725087 0.636749 0.271205 -0.060359
C31   C     C_R   0.240940 0.120702 0.642121 -0.008090
C32   C     C_R   0.732774 0.784209 0.325949 0.026239
C33   C     C_R   0.380554 0.132689 0.843769 0.423630
C34   C     C_R   0.666335 0.342975 0.212071 0.415505
C35   C     C_R   0.333298 0.139907 0.890521 0.289653
C36   C     C_R   0.715651 0.333299 0.167553 0.282599
C37   C     C_R   0.255593 0.129173 0.855353 -0.074701
C38   C     C_R   0.767869 0.478684 0.172382 -0.040145
C39   C     C_R   0.225175 0.121278 0.772707 -0.029141
C40   C     C_R   0.771437 0.631853 0.223353 -0.008304
C41   C     C_R   0.147484 0.108309 0.737571 0.116753
C42   C     C_R   0.821482 0.781235 0.226392 0.122349
C43   C     C_R   0.117466 0.086746 0.655927 0.331245
C44   C     C_R   0.823429 0.936456 0.275051 0.302649
C45   C     C_R   0.164518 0.088035 0.609545 -0.175652
C46   C     C_R   0.778654 0.937045 0.323672 -0.115857
C47   C     C_R   0.207612 0.120267 0.901301 -0.111917
C48   C     C_R   0.815824 0.476570 0.126273 -0.070258
C49   C     C_R   0.130802 0.120378 0.866608 -0.102063
C50   C     C_R   0.866951 0.621347 0.131135 -0.080653
C51   C     C_R   0.101071 0.112087 0.784986 -0.161116
C52   C     C_R   0.868397 0.774333 0.179970 -0.163796
H11   H     H_    0.454265 0.139013 0.735374 0.202403
H12   H     H_    0.576800 0.419559 0.301499 0.217875
H13   H     H_    0.229376 0.107019 0.964229 0.206021
H14   H     H_    0.813171 0.365393 0.084659 0.139749
H15   H     H_    0.041587 0.105008 0.758907 0.162440
H16   H     H_    0.907327 0.886791 0.182595 0.170324
H17   H     H_    0.140533 0.055976 0.548114 0.204013
H18   H     H_    0.778160 0.061507 0.357706 0.180310
O11   O     O_R   0.937800 0.775460 0.060470 -0.522312
O12   O     O_R   0.062200 0.275460 0.939530 -0.514282
O13   O     O_R   0.087350 0.441340 0.093710 -0.521292
O14   O     O_R   0.912650 0.941340 0.906290 -0.525134
C53   C     C_R   0.115558 0.610151 0.115338 0.737771
C54   C     C_R   0.883801 0.110018 0.885662 0.717070
O15   O     O_R   0.939820 0.446010 0.069950 -0.555162
O16   O     O_R   0.060180 0.946010 0.930050 -0.545376
O17   O     O_R   0.913690 0.271230 0.915700 -0.552346
O18   O     O_R   0.086310 0.771230 0.084300 -0.554779
C55   C     C_R   0.918058 0.614029 0.083983 0.753777
C56   C     C_R   0.081646 0.114119 0.915793 0.738438
O19   O     O_3   0.991670 0.603050 0.949510 -0.377747
O20   O     O_3   0.008330 0.103050 0.050490 -0.383825
V3    V     V_3+5 0.001550 0.329940 0.009370 1.530666
V4    V     V_3+5 0.998450 0.829940 0.990630 1.532698
O21   O     O_3   0.364376 0.158884 0.970588 -0.543127
H19   H     H_    0.334675 0.251297 0.988710 0.339534
O22   O     O_3   0.710149 0.183004 0.117896 -0.587276
H20   H     H_    0.760605 0.138189 0.123432 0.309696
O23   O     O_3   0.042161 0.061463 0.622620 -0.620144
H21   H     H_    0.029958 0.050475 0.564851 0.324810
O24   O     O_3   0.869287 0.086221 0.274179 -0.652665
H22   H     H_    0.863278 0.184204 0.310791 0.299586
S1    S     S_3+6 0.730493 0.787187 0.877693 0.015144
O25   O     O_2   0.683984 0.616993 0.877635 -0.291716
O26   O     O_2   0.795304 0.787971 0.951344 -0.359673
O27   O     O_3   0.679463 0.980962 0.874876 -0.460948
H23   H     H_    0.672019 0.986267 0.927009 0.409552
S2    S     S_3+6 0.271387 0.292282 0.131249 -0.036321
O28   O     O_2   0.306813 0.108385 0.123579 -0.321127
O29   O     O_2   0.209469 0.332578 0.057324 -0.383180
O30   O     O_3   0.334839 0.463960 0.145823 -0.477536
H24   H     H_    0.342374 0.483172 0.094232 0.385125
S3    S     S_3+6 0.249506 0.196170 0.491595 -0.035345
O31   O     O_2   0.248971 0.019220 0.446196 -0.343219
O32   O     O_2   0.172557 0.274866 0.469042 -0.330625
O33   O     O_3   0.302145 0.356550 0.466377 -0.515936
H25   H     H_    0.295346 0.473024 0.493262 0.333888
S4    S     S_3+6 0.727650 0.898320 0.472214 0.022914
O34   O     O_2   0.807272 0.953720 0.490222 -0.304464
O35   O     O_2   0.682362 0.071699 0.470433 -0.331167
O36   O     O_3   0.722889 0.754680 0.544656 -0.507009
H26   H     H_    0.673865 0.777858 0.550167 0.325125
S5    S     S_3+6 0.478388 0.130669 0.890154 0.097850
O37   O     O_2   0.510301 0.962714 0.861993 -0.304221
O38   O     O_2   0.510512 0.305865 0.867243 -0.304338
O39   O     O_3   0.502810 0.120338 0.988632 -0.392870
H27   H     H_    0.557107 0.137399 0.006802 0.419537
S6    S     S_3+6 0.600269 0.159420 0.203576 0.043336
O40   O     O_2   0.602741 0.093871 0.284024 -0.360341
O41   O     O_2   0.524613 0.236034 0.162001 -0.267608
O42   O     O_3   0.615590 0.973077 0.153533 -0.458970
H28   H     H_    0.580948 0.875374 0.159812 0.385172

loop_
_geom_bond_atom_site_label_1
_geom_bond_atom_site_label_2
_ccdc_geom_bond_type
C44   C46   A    
C41   C43   A    
O22   H20   S    
C2    C23   S    
C48   H14   S    
C18   S2    S    
C26   H12   S    
C20   H10   S    
O1    C3    A    
O2    C4    A    
C2    O7    A    
S2    O29   D    
O19   V4    S    
O18   V4    S    
O42   H28   S    
C25   C27   A    
C49   C56   S    
O5    C3    A    
O12   V3    S    
C7    C9    A    
S3    O32   D    
O14   C54   A    
C35   C37   A    
C32   C46   A    
C36   C38   A    
O30   H24   S    
C35   O21   S    
C38   C40   A    
C23   C25   A    
C22   S4    S    
C47   C49   A    
O27   H23   S    
C13   C54   S    
C40   C42   A    
C17   C19   S    
C47   H13   S    
C21   C31   A    
C22   C24   A    
S6    O40   D    
C27   C29   A    
O11   V4    S    
C17   S1    S    
C28   C30   A    
S1    O25   D    
C15   C17   S    
C18   C20   S    
C26   C28   A    
O6    V2    S    
C52   H16   S    
C53   O18   A    
S1    O26   D    
C31   C45   A    
S2    O28   D    
C30   C32   A    
O16   C56   A    
O13   C53   A    
C11   C13   A    
C24   C26   A    
C3    C8    S    
C37   C39   A    
C20   H8    S    
C50   C52   A    
S3    O33   S    
O1    V2    S    
C41   C51   A    
C43   C45   A    
C27   C33   A    
C28   C34   A    
O20   V4    S    
C29   C31   A    
C42   C44   A    
O4    V2    S    
C19   H7    S    
S5    O38   D    
O21   H19   S    
C54   O17   A    
C38   C48   A    
O6    C4    A    
O20   V3    S    
C39   C41   A    
C51   H15   S    
C36   O22   S    
O12   C56   A    
O17   V3    S    
O2    V1    S    
C21   C23   A    
C34   S6    S    
C19   H9    S    
C21   S3    S    
C50   C55   S    
O4    C2    A    
C8    C10   A    
C12   C14   A    
C33   C35   A    
O36   H26   S    
C5    C15   A    
S1    O27   S    
C10   H2    S    
C6    C16   A    
C43   O23   S    
C44   O24   S    
S4    O35   D    
S5    O37   D    
O3    V1    S    
O33   H25   S    
C49   C51   A    
O24   H22   S    
C37   C47   A    
C9    C11   A    
C18   H6    S    
C33   S5    S    
O3    C1    A    
C48   C50   A    
O19   V3    S    
C45   H17   S    
C11   H3    S    
C1    C24   S    
C12   H4    S    
C46   H18   S    
S4    O36   S    
C9    H1    S    
O39   H27   S    
S4    O34   D    
S5    O39   S    
C25   H11   S    
C1    O8    A    
C13   C15   A    
C30   C40   A    
S3    O31   D    
C14   C16   A    
C29   C39   A    
S6    O42   S    
C4    C7    S    
O5    V1    S    
C5    C7    A    
C34   C36   A    
C6    C8    A    
O15   C55   A    
O14   V4    S    
C17   H5    S    
O13   V3    S    
C22   C32   A    
S6    O41   D    
C10   C12   A    
O9    V2    S    
O15   V3    S    
O23   H21   S    
C42   C52   A    
O10   V1    S    
O8    V2    S    
C5    C19   S    
C14   C53   S    
C6    C20   S    
O16   V4    S    
S2    O30   S    
O7    V1    S    
C16   C18   S    
O11   C55   A    
