data_mof_unit_2180.cif
_audit_creation_date              2012-12-10T20:38:23-0500
_audit_creation_method            fapswitch 2.2
_symmetry_space_group_name_H-M    P1
_symmetry_Int_Tables_number       1
_space_group_crystal_system       triclinic
_cell_length_a                    9.836208
_cell_length_b                    10.636134
_cell_length_c                    16.64114
_cell_angle_alpha                 90.042731
_cell_angle_beta                  84.574078
_cell_angle_gamma                 89.594221
_cell_volume                      1733.13712651

loop_
_atom_site_label
_atom_site_type_symbol
_atom_type_description
_atom_site_fract_x
_atom_site_fract_y
_atom_site_fract_z
_atom_type_partial_charge
C1    C     C_R   0.500520 0.739852 0.492933 0.878184
C2    C     C_R   0.534902 0.482754 0.259125 -0.025751
C3    C     C_R   0.386275 0.937784 0.457064 0.018537
C4    C     C_R   0.480491 0.493309 0.653204 0.866928
C5    C     C_R   0.504343 0.870190 0.472022 -0.160811
C6    C     C_R   0.629870 0.933292 0.469715 -0.189047
C7    C     C_R   0.630274 0.063013 0.474580 -0.218988
C8    C     C_R   0.505238 0.127803 0.482732 -0.104362
C9    C     C_R   0.386694 0.065117 0.467925 0.085028
C10   C     C_3   0.246848 0.069274 0.510760 -0.464399
C11   C     C_3   0.238904 0.929542 0.492152 0.290592
C12   C     C_R   0.353805 0.479853 0.788807 -0.215724
C13   C     C_R   0.920429 0.582559 0.547685 0.228269
C14   C     C_R   0.936794 0.425943 0.448148 -0.127747
C15   C     C_R   0.080936 0.425623 0.448340 -0.150599
C16   C     C_R   0.500918 0.259363 0.498083 0.886967
C17   C     C_R   0.063072 0.582226 0.547850 0.199267
C18   C     C_3   0.054796 0.590189 0.637557 -0.522132
C19   C     C_3   0.900508 0.590366 0.637561 -0.497158
C20   C     C_R   0.519872 0.498788 0.346299 0.849617
C21   C     C_R   0.467746 0.448222 0.735663 -0.027585
C22   C     C_R   0.563719 0.360182 0.758440 -0.250787
C23   C     C_R   0.431250 0.469468 0.134013 -0.223871
C24   C     C_R   0.550874 0.310417 0.835598 -0.073155
C25   C     C_R   0.444810 0.352094 0.891312 0.202217
C26   C     C_R   0.342807 0.432224 0.866946 -0.195822
C27   C     C_3   0.166321 0.803378 0.388548 0.106089
C28   C     C_3   0.039756 0.777731 0.344455 -0.327256
C29   C     C_3   0.063576 0.670029 0.284128 -0.983801
C30   C     C_3   0.699380 0.539981 0.947342 0.083451
C31   C     C_3   0.818432 0.559954 0.882757 -0.311040
C32   C     C_3   0.836320 0.698697 0.861446 -0.985196
C33   C     C_R   0.421535 0.498860 0.215404 -0.183666
C34   C     C_R   0.659879 0.441061 0.219988 -0.211524
C35   C     C_R   0.669152 0.410044 0.138553 -0.153967
C36   C     C_R   0.553904 0.420819 0.095782 0.077771
C37   C     C_2   0.455828 0.338645 0.977493 -0.347676
C38   C     C_2   0.564202 0.388095 0.009730 0.432341
H1    H     H_    0.648915 0.330099 0.716632 0.149613
H2    H     H_    0.095314 0.504517 0.665519 0.221582
H3    H     H_    0.325027 0.532407 0.244351 0.152331
H4    H     H_    0.095468 0.680501 0.658501 0.191065
H5    H     H_    0.852380 0.504805 0.665681 0.215647
H6    H     H_    0.851998 0.680681 0.658706 0.204423
H7    H     H_    0.749003 0.428211 0.252767 0.152376
H8    H     H_    0.260402 0.464853 0.909900 0.130398
H9    H     H_    0.342757 0.485078 0.101165 0.128032
H10   H     H_    0.276705 0.544537 0.770852 0.141623
H11   H     H_    0.362873 0.317234 0.015412 0.124427
H12   H     H_    0.765279 0.375422 0.109356 0.158889
H13   H     H_    0.628842 0.246714 0.853633 0.160265
H14   H     H_    0.183970 0.721461 0.427123 0.166845
H15   H     H_    0.256104 0.816171 0.343451 0.151434
H16   H     H_    0.952758 0.754035 0.389364 0.217174
H17   H     H_    0.012015 0.863709 0.311543 0.235410
H18   H     H_    0.143740 0.695823 0.235548 0.259809
H19   H     H_    0.967579 0.650424 0.256390 0.269396
H20   H     H_    0.095412 0.583621 0.314722 0.267666
H21   H     H_    0.721286 0.589831 0.003495 0.142061
H22   H     H_    0.605026 0.580477 0.924935 0.148551
H23   H     H_    0.725751 0.883440 0.472555 0.173488
H24   H     H_    0.914153 0.523371 0.905009 0.218778
H25   H     H_    0.799566 0.506877 0.827366 0.230536
H26   H     H_    0.743351 0.735995 0.836421 0.265829
H27   H     H_    0.924602 0.709663 0.815282 0.268826
H28   H     H_    0.855924 0.753847 0.915821 0.266109
H29   H     H_    0.726436 0.110446 0.478894 0.173878
H30   H     H_    0.247910 0.089538 0.576285 0.154214
H31   H     H_    0.176186 0.129537 0.478957 0.226252
H32   H     H_    0.219472 0.869588 0.546738 0.098144
H33   H     H_    0.889134 0.364513 0.407404 0.144322
H34   H     H_    0.142504 0.364045 0.407664 0.152584
N1    N     N_R   0.857140 0.500860 0.500530 -0.107655
N2    N     N_R   0.142780 0.500820 0.500530 -0.112916
O1    O     O_R   0.385310 0.683210 0.499990 -0.648732
O2    O     O_3   0.685375 0.409755 0.962026 -0.652756
O3    O     O_R   0.614650 0.683240 0.500000 -0.610973
O4    O     O_R   0.371780 0.500000 0.615800 -0.609512
O5    O     O_R   0.601120 0.500040 0.615800 -0.615684
O6    O     O_R   0.385350 0.316760 0.500000 -0.609601
O7    O     O_R   0.614690 0.316790 0.500010 -0.625707
O8    O     O_R   0.398880 0.499960 0.384200 -0.628997
O9    O     O_R   0.628220 0.500000 0.384200 -0.618381
O10   O     O_3   0.142839 0.914050 0.434504 -0.635251
Zn1   Zn    Zn3+2 0.346870 0.499980 0.499990 0.924768
Zn2   Zn    Zn3+2 0.653130 0.500020 0.500010 0.936225

loop_
_geom_bond_atom_site_label_1
_geom_bond_atom_site_label_2
_ccdc_geom_bond_type
C20   O8    A    
C1    O3    A    
C14   H33   S    
C35   C36   A    
C12   H10   S    
C11   H32   S    
C7    C8    A    
C38   O2    S    
C27   H14   S    
C15   H34   S    
C37   C38   D    
C1    C5    S    
C6    H23   S    
C28   C29   S    
C18   C19   S    
C18   H4    S    
C5    C6    A    
C37   H11   S    
C34   C35   A    
C18   H2    S    
C25   C37   S    
O1    Zn1   S    
C8    C9    A    
C23   C33   A    
C30   H22   S    
C9    C10   S    
O7    Zn2   S    
C2    C34   A    
C24   H13   S    
C8    C16   S    
C21   C22   A    
C31   H24   S    
C28   H17   S    
C19   H5    S    
C23   H9    S    
C13   C19   S    
C2    C20   S    
C1    O1    A    
C14   N1    A    
C31   H25   S    
C24   C25   A    
C32   H26   S    
C4    O5    A    
C28   H16   S    
C25   C26   A    
C12   C21   A    
C12   C26   A    
C16   O6    A    
C4    O4    A    
O6    Zn1   S    
C3    C9    A    
C30   O2    S    
C31   C32   S    
C30   H21   S    
C15   N2    A    
C35   H12   S    
C17   C18   S    
C34   H7    S    
O4    Zn1   S    
C29   H19   S    
O3    Zn2   S    
C17   N2    A    
C22   C24   A    
C19   H6    S    
C2    C33   A    
C32   H28   S    
C27   O10   S    
C13   N1    A    
C3    C5    A    
C27   H15   S    
C6    C7    A    
C29   H18   S    
C10   H30   S    
C11   O10   S    
O8    Zn1   S    
C13   C17   A    
C33   H3    S    
C36   C38   S    
C4    C21   S    
C30   C31   S    
C22   H1    S    
C16   O7    A    
N2    Zn1   S    
N1    Zn2   S    
C3    C11   S    
C10   C11   S    
C26   H8    S    
C7    H29   S    
C10   H31   S    
O9    Zn2   S    
C29   H20   S    
C23   C36   A    
C20   O9    A    
C27   C28   S    
C14   C15   A    
O5    Zn2   S    
C32   H27   S    
