data_mof_unit_2242.cif
_audit_creation_date              2012-12-10T19:46:22-0500
_audit_creation_method            fapswitch 2.2
_symmetry_space_group_name_H-M    P1
_symmetry_Int_Tables_number       1
_space_group_crystal_system       triclinic
_cell_length_a                    10.981258
_cell_length_b                    10.887305
_cell_length_c                    10.651654
_cell_angle_alpha                 91.498936
_cell_angle_beta                  92.396724
_cell_angle_gamma                 89.672398
_cell_volume                      1271.90937422

loop_
_atom_site_label
_atom_site_type_symbol
_atom_type_description
_atom_site_fract_x
_atom_site_fract_y
_atom_site_fract_z
_atom_type_partial_charge
C1    C     C_R   0.500216 0.262021 0.498194 0.792415
C2    C     C_R   0.499795 0.737979 0.501806 0.792121
C3    C     C_R   0.872537 0.510778 0.506348 -0.108437
C4    C     C_R   0.127462 0.489221 0.493654 -0.108456
C5    C     C_R   0.944940 0.482427 0.613355 -0.003055
C6    C     C_R   0.055059 0.517569 0.386648 -0.003102
C7    C     C_R   0.432308 0.139318 0.049626 -0.112186
C8    C     C_R   0.567521 0.860582 0.950406 -0.112204
C9    C     C_R   0.423546 0.104198 0.173853 -0.181017
C10   C     C_R   0.576376 0.895763 0.826208 -0.180971
C11   C     C_R   0.525981 0.108280 0.257595 0.047413
C12   C     C_R   0.473999 0.891725 0.742389 0.047373
C13   C     C_R   0.639742 0.148871 0.214969 0.042106
C14   C     C_R   0.360205 0.851120 0.784902 0.042264
C15   C     C_R   0.645689 0.183842 0.089039 -0.148794
C16   C     C_R   0.354155 0.816091 0.910802 -0.148626
C17   C     C_R   0.543033 0.179547 0.007474 -0.137980
C18   C     C_R   0.456753 0.820348 0.992453 -0.138068
C19   C     C_R   0.512396 0.930030 0.390144 -0.203116
C20   C     C_R   0.487683 0.069970 0.609859 -0.202766
C21   C     C_R   0.499935 0.871812 0.504515 -0.043600
C22   C     C_R   0.500117 0.128188 0.495485 -0.043305
C23   C     C_R   0.261861 0.494255 0.497415 0.800294
C24   C     C_R   0.738138 0.505745 0.502585 0.800401
C25   C     C_R   0.487406 0.943058 0.616214 0.052630
C26   C     C_R   0.512662 0.056943 0.383787 0.052670
C27   C     C_1   0.499324 0.499925 0.072515 0.126181
C28   C     C_1   0.500675 0.500074 0.927484 0.126227
C29   C     C_R   0.128820 0.583561 0.055475 -0.194811
C30   C     C_R   0.871138 0.416379 0.944505 -0.194881
C31   C     C_R   0.090508 0.600948 0.177209 -0.190033
C32   C     C_R   0.909462 0.399012 0.822773 -0.189954
C33   C     C_R   0.099985 0.504129 0.260541 0.156774
C34   C     C_R   0.900008 0.495850 0.739461 0.156760
C35   C     C_R   0.142037 0.388557 0.220436 -0.100733
C36   C     C_R   0.857960 0.611418 0.779583 -0.100737
C37   C     C_R   0.181579 0.371711 0.099530 -0.188413
C38   C     C_R   0.818406 0.628245 0.900487 -0.188487
C39   C     C_R   0.178081 0.469897 0.017447 0.061872
C40   C     C_R   0.821894 0.530044 0.982553 0.061889
C41   C     C_R   0.930556 0.535092 0.396324 -0.175872
C42   C     C_R   0.069444 0.464907 0.603679 -0.175575
Cu1   Cu    Cu3+1 0.500000 0.500000 0.625300 1.009481
Cu2   Cu    Cu3+1 0.500000 0.500000 0.374700 1.009434
H1    H     H_    0.730724 0.212075 0.052155 0.169180
H2    H     H_    0.269078 0.787869 0.947600 0.169051
H3    H     H_    0.523071 0.876624 0.303904 0.153023
H4    H     H_    0.476997 0.123375 0.696097 0.152954
H5    H     H_    0.118776 0.658249 0.990999 0.186384
H6    H     H_    0.881160 0.341674 0.008964 0.186542
H7    H     H_    0.053152 0.688982 0.206300 0.152017
H8    H     H_    0.946807 0.310978 0.793666 0.152062
H9    H     H_    0.145242 0.311947 0.283456 0.119949
H10   H     H_    0.854768 0.688040 0.716577 0.119967
H11   H     H_    0.215908 0.282534 0.071148 0.165849
H12   H     H_    0.784078 0.717421 0.928881 0.165852
H13   H     H_    0.878896 0.565808 0.316418 0.194053
H14   H     H_    0.121103 0.434186 0.683584 0.194048
H15   H     H_    0.549928 0.205986 0.910803 0.145054
H16   H     H_    0.449786 0.793876 0.089107 0.145049
H17   H     H_    0.353702 0.132948 0.985143 0.164195
H18   H     H_    0.646089 0.866907 0.014946 0.164221
H19   H     H_    0.337047 0.071093 0.204416 0.138611
H20   H     H_    0.662904 0.928869 0.795724 0.138582
N1    N     N_1   0.500010 0.499990 0.186410 -0.126259
N2    N     N_1   0.499990 0.500010 0.813590 -0.126229
O1    O     O_R   0.499990 0.319650 0.605810 -0.605464
O2    O     O_R   0.500010 0.680350 0.394190 -0.605424
O3    O     O_R   0.499990 0.319640 0.394190 -0.570064
O4    O     O_R   0.500010 0.680360 0.605810 -0.570090
O5    O     O_R   0.319640 0.500010 0.605810 -0.543570
O6    O     O_R   0.680360 0.499990 0.394190 -0.543660
O7    O     O_R   0.319650 0.500010 0.394190 -0.578697
O8    O     O_R   0.680350 0.499990 0.605810 -0.578669
C43   C     C_2   0.230033 0.454766 0.894334 0.768019
O9    O     O_2   0.246483 0.545384 0.832093 -0.567689
O10   O     O_R   0.264671 0.337690 0.850763 -0.814904
H21   H     H_    0.304062 0.337915 0.766651 0.346431
C44   C     C_2   0.769959 0.545167 0.105676 0.768044
O11   O     O_2   0.753531 0.454548 0.167924 -0.567943
O12   O     O_R   0.735320 0.662244 0.149248 -0.814944
H22   H     H_    0.695937 0.662024 0.233364 0.346440
C45   C     C_2   0.753550 0.154872 0.296709 0.842738
O13   O     O_2   0.757900 0.110573 0.401062 -0.616028
O14   O     O_R   0.857273 0.211686 0.253506 -0.756422
H23   H     H_    0.928258 0.211640 0.317518 0.332217
C46   C     C_2   0.246467 0.845155 0.703064 0.842251
O15   O     O_2   0.242005 0.890090 0.599009 -0.616002
O16   O     O_R   0.142930 0.787667 0.745845 -0.756005
H24   H     H_    0.071980 0.787806 0.681793 0.332152

loop_
_geom_bond_atom_site_label_1
_geom_bond_atom_site_label_2
_ccdc_geom_bond_type
C30   C32   A    
C46   O15   D    
C35   H9    S    
C43   O9    D    
C42   H14   S    
O12   H22   S    
Cu2   N1    S    
C29   H5    S    
O10   H21   S    
C19   C21   A    
C14   C46   S    
C2    O2    A    
C20   C22   A    
C19   H3    S    
C20   C25   A    
C7    C9    A    
C19   C26   A    
C7    H17   S    
C1    O1    A    
C32   H8    S    
C7    C17   A    
C6    C41   A    
C31   C33   A    
C39   C43   S    
Cu1   O8    S    
C30   H6    S    
C1    C22   S    
C3    C24   S    
C23   O7    A    
C23   O5    A    
C4    C6    A    
C16   H2    S    
C44   O12   S    
C4    C23   S    
C11   C26   S    
O14   H23   S    
C8    C18   A    
C32   C34   A    
C28   N2    T    
Cu1   Cu2   S    
Cu1   O1    S    
C27   N1    T    
C43   O10   S    
C45   O13   D    
C5    C34   S    
C29   C39   A    
C2    C21   S    
C40   C44   S    
C30   C40   A    
Cu2   O3    S    
C16   C18   A    
C9    C11   A    
C20   H4    S    
C10   C12   A    
C17   H15   S    
C18   H16   S    
C45   O14   S    
C12   C14   A    
Cu1   O4    S    
C13   C15   A    
C14   C16   A    
Cu2   O2    S    
C15   H1    S    
C24   O6    A    
C5    C42   A    
C15   C17   A    
C21   C25   A    
C3    C41   A    
Cu1   O5    S    
C35   C37   A    
C9    H19   S    
C8    C10   A    
C10   H20   S    
C31   H7    S    
C3    C5    A    
C13   C45   S    
C6    C33   S    
C12   C25   S    
C36   C38   A    
C41   H13   S    
C37   C39   A    
C38   C40   A    
C11   C13   A    
C24   O8    A    
C4    C42   A    
Cu1   N2    S    
C33   C35   A    
Cu2   O6    S    
C34   C36   A    
Cu2   O7    S    
C1    O3    A    
C36   H10   S    
C44   O11   D    
C37   H11   S    
C38   H12   S    
C29   C31   A    
C22   C26   A    
C27   C28   S    
C46   O16   S    
O16   H24   S    
C2    O4    A    
C8    H18   S    
