data_mof_unit_4634.cif
_audit_creation_date              2012-12-10T17:10:15-0500
_audit_creation_method            fapswitch 2.2
_symmetry_space_group_name_H-M    P1
_symmetry_Int_Tables_number       1
_space_group_crystal_system       triclinic
_cell_length_a                    15.718477
_cell_length_b                    10.645646
_cell_length_c                    10.058232
_cell_angle_alpha                 90.025307
_cell_angle_beta                  90.368854
_cell_angle_gamma                 90.558621
_cell_volume                      1682.96248942

loop_
_atom_site_label
_atom_site_type_symbol
_atom_type_description
_atom_site_fract_x
_atom_site_fract_y
_atom_site_fract_z
_atom_type_partial_charge
C1    C     C_R   0.508255 0.263301 0.499997 0.957032
C2    C     C_2   0.502833 0.870317 0.497700 -0.336539
C3    C     C_2   0.556372 0.064782 0.400616 0.494206
C4    C     C_R   0.338017 0.499660 0.499584 0.875119
C5    C     C_2   0.527675 0.132547 0.503778 -0.480170
C6    C     C_2   0.546139 0.575773 0.929515 0.438019
C7    C     C_2   0.558701 0.551481 0.075185 -0.137032
C8    C     C_R   0.500208 0.737530 0.499798 0.958367
C9    C     C_R   0.661962 0.500320 0.500381 0.914411
C10   C     C_3   0.971382 0.398747 0.559289 0.453345
C11   C     C_3   0.026197 0.397953 0.432670 -0.320312
C12   C     C_3   0.082852 0.499578 0.498879 0.021934
C13   C     C_1   0.249055 0.499307 0.498700 -0.114743
C14   C     C_1   0.750872 0.501534 0.501065 -0.097937
C15   C     C_3   0.028294 0.498547 0.624407 0.357349
C16   C     C_3   0.992426 0.196599 0.640835 0.157579
C17   C     C_3   0.967690 0.088527 0.547527 -0.381409
C18   C     C_3   0.027095 0.977043 0.564326 -0.907593
C19   C     C_3   0.973440 0.604334 0.565685 -0.321208
C20   C     C_3   0.917016 0.502911 0.500257 0.057328
C21   C     C_3   0.029195 0.605494 0.438722 -0.158045
C22   C     C_3   0.970839 0.504294 0.373218 -0.129865
C23   C     C_1   0.173739 0.499199 0.498382 0.052261
C24   C     C_1   0.826167 0.502520 0.500950 0.042518
C25   C     C_2   0.555203 0.928541 0.412752 -0.204112
H1    H     H_    0.050072 0.314632 0.378635 0.174242
H2    H     H_    0.459529 0.917679 0.563898 0.163549
H3    H     H_    0.681408 0.855397 0.953264 0.391721
H4    H     H_    0.988362 0.162796 0.745103 0.199961
H5    H     H_    0.060181 0.224664 0.624660 0.142510
H6    H     H_    0.901437 0.057504 0.568877 0.253290
H7    H     H_    0.970160 0.121370 0.442800 0.232612
H8    H     H_    0.093611 0.005316 0.541401 0.271258
H9    H     H_    0.007382 0.900826 0.495022 0.266583
H10   H     H_    0.024103 0.940505 0.667645 0.278694
H11   H     H_    0.945307 0.541141 0.874642 0.352428
H12   H     H_    0.519393 0.090237 0.600980 0.166442
H13   H     H_    0.676255 0.066114 0.090008 0.386286
H14   H     H_    0.478871 0.419724 0.895386 0.150273
H15   H     H_    0.614777 0.589603 0.124495 0.216988
H16   H     H_    0.444895 0.476043 0.100988 0.177821
H17   H     H_    0.944847 0.507727 0.270403 0.191179
H18   H     H_    0.055362 0.690134 0.388498 0.171763
H19   H     H_    0.950095 0.687883 0.619988 0.182567
H20   H     H_    0.594932 0.873958 0.346628 0.225015
N1    N     N_2   0.500900 0.501330 0.852150 -0.239963
N2    N     N_2   0.500930 0.501360 0.147810 -0.188073
O1    O     O_R   0.499990 0.319060 0.613040 -0.626030
O2    O     O_2   0.522279 0.808707 0.837657 -0.272113
O3    O     O_3   0.650980 0.784284 0.995840 -0.550707
O4    O     O_3   0.933799 0.295531 0.625585 -0.621093
O5    O     O_2   0.129233 0.389621 0.806802 -0.280066
O6    O     O_2   0.111811 0.617567 0.822621 -0.277989
O7    O     O_3   0.985958 0.473545 0.896384 -0.503614
O8    O     O_2   0.525371 0.171315 0.163740 -0.274493
O9    O     O_2   0.654283 0.240755 0.283161 -0.302276
O10   O     O_3   0.654655 0.021999 0.169838 -0.540263
O11   O     O_R   0.500010 0.319100 0.386900 -0.531218
O12   O     O_R   0.376760 0.499970 0.613050 -0.593631
O13   O     O_R   0.376790 0.500010 0.386910 -0.615212
O14   O     O_R   0.499990 0.680900 0.613100 -0.530324
O15   O     O_R   0.500010 0.680940 0.386960 -0.617429
O16   O     O_R   0.623210 0.499990 0.613090 -0.575628
O17   O     O_R   0.623240 0.500030 0.386950 -0.598293
O18   O     O_2   0.648483 0.699233 0.755769 -0.302587
S1    S     S_3+6 0.592023 0.719035 0.873419 0.059272
S2    S     S_3+6 0.067410 0.495400 0.791161 0.042969
S3    S     S_3+6 0.597672 0.129994 0.251413 0.053401
Zn1   Zn    Zn3+2 0.499980 0.499970 0.650990 1.056413
Zn2   Zn    Zn3+2 0.500020 0.500030 0.349010 1.043262

loop_
_geom_bond_atom_site_label_1
_geom_bond_atom_site_label_2
_ccdc_geom_bond_type
C22   H17   S    
C11   C12   S    
C16   O4    S    
N2    Zn2   S    
C6    C7    S    
C10   C20   S    
O17   Zn2   S    
C9    O17   A    
C18   H9    S    
C18   H10   S    
O1    Zn1   S    
C11   C22   S    
C19   C20   S    
C12   C15   S    
O13   Zn2   S    
C8    O14   A    
C7    H15   S    
C15   S2    S    
C4    O13   A    
C17   C18   S    
H16   N2    S    
C1    O1    A    
C9    O16   A    
C21   C22   S    
C15   C19   S    
O6    S2    D    
O3    S1    S    
C12   C23   S    
C13   C23   T    
C6    S1    S    
C2    H2    S    
O5    S2    D    
C1    O11   A    
O12   Zn1   S    
H14   N1    S    
C1    C5    S    
C10   O4    S    
H3    O3    S    
C4    O12   A    
C19   C21   S    
C20   C22   S    
O8    S3    D    
C2    C25   D    
C5    H12   S    
C10   C15   S    
O16   Zn1   S    
C17   H6    S    
C18   H8    S    
H11   O7    S    
O2    S1    D    
O10   S3    S    
C14   C24   T    
H13   O10   S    
C25   H20   S    
C3    C25   S    
C19   H19   S    
O15   Zn2   S    
O18   S1    D    
C10   C11   S    
O9    S3    D    
O14   Zn1   S    
C4    C13   S    
C17   H7    S    
C9    C14   S    
C20   C24   S    
O11   Zn2   S    
N1    Zn1   S    
O7    S2    S    
C6    N1    D    
C11   H1    S    
C16   H4    S    
C21   H18   S    
C16   H5    S    
C12   C21   S    
C2    C8    S    
C3    S3    S    
C8    O15   A    
C16   C17   S    
C3    C5    D    
C7    N2    D    
