data_mof_unit_1859.cif
_audit_creation_date              2012-10-26T20:13:55-0400
_audit_creation_method            fapswitch 2.2
_symmetry_space_group_name_H-M    P1
_symmetry_Int_Tables_number       1
_space_group_crystal_system       triclinic
_cell_length_a                    8.722792
_cell_length_b                    10.813313
_cell_length_c                    9.571287
_cell_angle_alpha                 90.515282
_cell_angle_beta                  97.724618
_cell_angle_gamma                 90.42092
_cell_volume                      894.523801008

loop_
_atom_site_label
_atom_site_type_symbol
_atom_type_description
_atom_site_fract_x
_atom_site_fract_y
_atom_site_fract_z
_atom_type_partial_charge
C1    C     C_R   0.497822 0.262659 0.499229 0.551275
C2    C     C_R   0.614014 0.559933 0.941166 0.160977
C3    C     C_3   0.653508 0.693811 0.941848 -0.286023
C4    C     C_R   0.203977 0.500181 0.463938 0.557530
C5    C     C_3   0.653456 0.694340 0.100374 -0.270974
C6    C     C_R   0.500669 0.737621 0.500518 0.558165
C7    C     C_R   0.795997 0.500472 0.536065 0.553762
C8    C     C_2   0.038114 0.500361 0.444100 -0.133507
C9    C     C_2   0.961811 0.501345 0.555897 -0.122478
C10   C     C_R   0.551740 0.066743 0.619642 0.015755
C11   C     C_R   0.490216 0.129595 0.499045 0.012193
C12   C     C_R   0.419534 0.933699 0.382788 -0.142064
C13   C     C_R   0.418052 0.062801 0.381720 -0.138572
C14   C     C_1   0.291048 0.346683 0.829748 0.241595
C15   C     C_1   0.833363 0.888089 0.621857 0.190772
C16   C     C_1   0.705098 0.137213 0.839341 0.220667
C17   C     C_R   0.493915 0.871103 0.500819 0.018322
C18   C     C_R   0.555180 0.939046 0.620689 -0.004642
C19   C     C_3   0.715460 0.939747 0.702124 -0.142744
C20   C     C_3   0.710041 0.080420 0.699727 -0.127336
C21   C     C_R   0.613943 0.560141 0.088138 0.163033
C22   C     C_R   0.399095 0.428390 0.062226 -0.002198
C23   C     C_R   0.399332 0.427339 0.913636 0.088280
Cu1   Cu    Cu3+1 0.499990 0.499980 0.640670 0.990021
Cu2   Cu    Cu3+1 0.500010 0.500020 0.359330 0.958456
H1    H     H_    0.770306 0.709441 0.910756 0.129507
H2    H     H_    0.769887 0.711316 0.160638 0.141096
H3    H     H_    0.021299 0.502780 0.663255 0.140421
H4    H     H_    0.558545 0.749695 0.885530 0.156349
H5    H     H_    0.559138 0.751219 0.134158 0.157313
H6    H     H_    0.363988 0.110076 0.288804 0.136428
H7    H     H_    0.365841 0.883102 0.290612 0.131995
H8    H     H_    0.720284 0.900967 0.809061 0.111815
H9    H     H_    0.793598 0.126626 0.638425 0.127647
H10   H     H_    0.316233 0.372223 0.108586 0.119787
H11   H     H_    0.978530 0.499383 0.336731 0.128967
N1    N     N_R   0.500980 0.500930 0.148050 -0.242072
N2    N     N_R   0.500990 0.500890 0.852140 -0.245856
N3    N     N_1   0.203829 0.281092 0.763305 -0.307241
N4    N     N_1   0.925804 0.847335 0.558836 -0.299877
N5    N     N_1   0.701101 0.182077 0.949019 -0.293502
O1    O     O_R   0.500000 0.319640 0.618810 -0.484464
O2    O     O_R   0.500020 0.319680 0.381230 -0.505642
O3    O     O_R   0.274830 0.499980 0.591380 -0.493698
O4    O     O_R   0.274850 0.500020 0.353800 -0.509528
O5    O     O_R   0.499980 0.680320 0.618770 -0.504927
O6    O     O_R   0.500000 0.680360 0.381190 -0.511639
O7    O     O_R   0.725150 0.499980 0.646200 -0.497167
O8    O     O_R   0.725170 0.500020 0.408620 -0.495975

loop_
_geom_bond_atom_site_label_1
_geom_bond_atom_site_label_2
_ccdc_geom_bond_type
C12   C17   A    
C14   C23   S    
Cu1   N2    S    
C23   N2    A    
Cu1   O1    S    
C2    N2    A    
C19   C20   S    
C1    C11   S    
C4    C8    S    
C16   C20   S    
C20   H9    S    
C7    O7    A    
Cu2   O2    S    
C2    C21   A    
C2    C3    S    
C10   C11   A    
Cu1   O5    S    
C12   H7    S    
C15   C19   S    
C22   H10   S    
C11   C13   A    
C4    O3    A    
C10   C18   A    
C13   H6    S    
C17   C18   A    
C4    O4    A    
C19   H8    S    
Cu1   O3    S    
Cu2   O8    S    
C15   N4    T    
C6    O6    A    
Cu1   O7    S    
Cu2   O4    S    
C1    O1    A    
C5    C21   S    
Cu1   Cu2   S    
C7    O8    A    
C21   N1    A    
C7    C9    S    
C18   C19   S    
C8    H11   S    
C10   C20   S    
C3    H4    S    
C6    C17   S    
Cu2   O6    S    
C22   C23   A    
C6    O5    A    
C12   C13   A    
C14   N3    T    
C5    H2    S    
C22   N1    A    
C5    H5    S    
C16   N5    T    
C1    O2    A    
C3    H1    S    
C9    H3    S    
Cu2   N1    S    
C8    C9    D    
C3    C5    S    
