data_mof_unit_4478.cif
_audit_creation_date              2012-12-11T17:14:06-0500
_audit_creation_method            fapswitch 2.2
_symmetry_space_group_name_H-M    P1
_symmetry_Int_Tables_number       1
_space_group_crystal_system       triclinic
_cell_length_a                    18.204262
_cell_length_b                    7.099246
_cell_length_c                    12.975558
_cell_angle_alpha                 89.898226
_cell_angle_beta                  72.275015
_cell_angle_gamma                 89.93047
_cell_volume                      1597.3080232

loop_
_atom_site_label
_atom_site_type_symbol
_atom_type_description
_atom_site_fract_x
_atom_site_fract_y
_atom_site_fract_z
_atom_type_partial_charge
O1    O     O_R   0.453880 0.506200 0.150010 -0.540981
O2    O     O_R   0.546120 0.006200 0.849990 -0.537163
O3    O     O_R   0.604080 0.177770 0.007280 -0.537857
O4    O     O_R   0.395920 0.677770 0.992720 -0.538942
C1    C     C_R   0.635991 0.344397 0.001603 0.736510
C2    C     C_R   0.364016 0.844539 0.998402 0.736729
O5    O     O_R   0.458010 0.176640 0.159130 -0.540279
O6    O     O_R   0.541990 0.676640 0.840870 -0.544570
O7    O     O_R   0.399010 0.004010 0.002930 -0.534729
O8    O     O_R   0.600990 0.504010 0.997070 -0.535966
C3    C     C_R   0.440599 0.344607 0.201620 0.695198
C4    C     C_R   0.559349 0.845216 0.798289 0.694063
O9    O     O_3   0.480810 0.338440 0.948570 -0.374504
O10   O     O_3   0.519190 0.838440 0.051430 -0.374036
V1    V     V_3+5 0.503560 0.064490 0.009540 1.402747
V2    V     V_3+5 0.496440 0.564490 0.990460 1.396546
C5    C     C_R   0.588753 0.768591 0.503390 -0.171118
C6    C     C_R   0.409927 0.461380 0.492532 -0.171021
H1    H     H_    0.495856 0.731571 0.649655 0.111676
H2    H     H_    0.502591 0.488697 0.345165 0.112767
H3    H     H_    0.665758 0.762905 0.293978 0.124126
H4    H     H_    0.333239 0.483183 0.701722 0.123854
H5    H     H_    0.554446 0.722869 0.453041 0.117406
H6    H     H_    0.443880 0.516643 0.541028 0.117811
C7    C     C_R   0.595974 0.851171 0.680571 -0.053315
C8    C     C_R   0.403385 0.355031 0.318923 -0.053570
C9    C     C_R   0.956047 0.861925 0.386075 -0.154005
C10   C     C_R   0.043517 0.348438 0.614377 -0.154670
C11   C     C_R   0.924543 0.849122 0.499084 0.181309
C12   C     C_R   0.074826 0.353246 0.501135 0.181273
C13   C     C_R   0.844034 0.843361 0.544225 -0.275987
C14   C     C_R   0.155302 0.359166 0.455611 -0.276147
C15   C     C_R   0.794331 0.858903 0.479572 0.063151
C16   C     C_R   0.205161 0.353242 0.520366 0.063855
C17   C     C_R   0.827361 0.850271 0.365485 0.069569
C18   C     C_R   0.172239 0.371035 0.634065 0.068923
C19   C     C_R   0.712347 0.862680 0.525015 0.054821
C20   C     C_R   0.287100 0.352126 0.474743 0.056365
C21   C     C_R   0.667102 0.809233 0.457947 0.118667
C22   C     C_R   0.332007 0.417962 0.539641 0.117404
C23   C     C_R   0.700569 0.795726 0.346118 -0.200786
C24   C     C_R   0.298619 0.440786 0.650960 -0.201076
C25   C     C_R   0.779086 0.825301 0.299939 -0.188044
C26   C     C_R   0.220431 0.408183 0.698411 -0.187817
C27   C     C_R   0.672746 0.915809 0.633880 0.058974
C28   C     C_R   0.326933 0.289925 0.367734 0.058046
C29   C     C_R   0.555099 0.776658 0.614738 -0.202346
C30   C     C_R   0.443647 0.442494 0.381673 -0.203940
C31   C     C_R   0.908224 0.859665 0.319556 -0.116229
C32   C     C_R   0.091463 0.360236 0.680485 -0.115657
H7    H     H_    0.017770 0.869214 0.348349 0.100534
H8    H     H_    0.981814 0.342092 0.652477 0.100407
H9    H     H_    0.820571 0.821136 0.630641 0.114599
H10   H     H_    0.178605 0.375313 0.368716 0.114411
H11   H     H_    0.802111 0.816770 0.212717 0.127075
H12   H     H_    0.197453 0.424361 0.785275 0.126608
C33   C     C_1   0.216249 0.858685 0.000556 -0.190756
C34   C     C_1   0.783750 0.358847 0.999418 -0.190525
C35   C     C_1   0.283565 0.852625 0.999395 -0.195703
C36   C     C_1   0.716442 0.352421 0.000592 -0.195635
O11   O     O_R   0.899030 0.205490 0.002790 -0.534575
O12   O     O_R   0.100970 0.705490 0.997210 -0.536109
O13   O     O_R   0.042000 0.536370 0.840840 -0.541243
O14   O     O_R   0.958000 0.036370 0.159160 -0.539790
C37   C     C_R   0.055971 0.368160 0.797992 0.686560
C38   C     C_R   0.943799 0.867992 0.202003 0.686532
O15   O     O_R   0.895930 0.535070 0.992690 -0.540635
O16   O     O_R   0.104070 0.035070 0.007310 -0.538904
O17   O     O_R   0.953870 0.707520 0.150040 -0.538130
O18   O     O_R   0.046130 0.207520 0.849960 -0.536480
C39   C     C_R   0.864173 0.366826 0.998573 0.727318
C40   C     C_R   0.135819 0.866697 0.001414 0.727682
O19   O     O_3   0.019200 0.374340 0.051340 -0.374092
O20   O     O_3   0.980800 0.874340 0.948660 -0.374248
V3    V     V_3+5 0.996440 0.648350 0.990470 1.408787
V4    V     V_3+5 0.003560 0.148350 0.009530 1.414058
C41   C     C_3   0.703453 0.071550 0.690759 -0.388607
C42   C     C_3   0.665046 0.260541 0.682124 -0.665115
H13   H     H_    0.681728 0.306946 0.596252 0.216407
H14   H     H_    0.601309 0.251832 0.712843 0.239008
H15   H     H_    0.684569 0.368868 0.729656 0.194103
H16   H     H_    0.694621 0.034224 0.776814 0.175841
H17   H     H_    0.765656 0.098613 0.654548 0.182486
C43   C     C_3   0.297167 0.125071 0.316132 -0.386873
C44   C     C_3   0.334700 0.939876 0.334310 -0.669855
H18   H     H_    0.316294 0.824257 0.290117 0.197542
H19   H     H_    0.398505 0.948078 0.305727 0.237498
H20   H     H_    0.316217 0.904364 0.421913 0.218288
H21   H     H_    0.234718 0.100161 0.350940 0.182368
H22   H     H_    0.307799 0.150455 0.228338 0.175473
C45   C     C_3   0.973163 0.843569 0.575914 -0.341186
C46   C     C_3   0.060616 0.848837 0.522978 -0.726293
H23   H     H_    0.080243 0.728676 0.467373 0.223408
H24   H     H_    0.078358 0.980500 0.476689 0.223208
H25   H     H_    0.089897 0.841333 0.586491 0.228181
H26   H     H_    0.956854 0.965027 0.632184 0.171456
H27   H     H_    0.958894 0.713892 0.625978 0.174543
C47   C     C_3   0.026017 0.352750 0.424525 -0.340650
C48   C     C_3   0.938606 0.346861 0.477799 -0.726536
H28   H     H_    0.921459 0.219930 0.528762 0.222893
H29   H     H_    0.918458 0.472131 0.528994 0.223539
H30   H     H_    0.909249 0.344076 0.414288 0.228023
H31   H     H_    0.039795 0.480422 0.372615 0.174963
H32   H     H_    0.042645 0.229107 0.370017 0.171103

loop_
_geom_bond_atom_site_label_1
_geom_bond_atom_site_label_2
_ccdc_geom_bond_type
C12   C14   A    
O13   C37   A    
C9    C11   A    
C23   C25   A    
O1    C3    A    
O2    C4    A    
C2    O7    A    
O3    V1    S    
C21   C23   A    
C41   C42   S    
O5    C3    A    
C5    H5    S    
C24   C26   A    
C6    H6    S    
H1    C29   S    
C34   C39   S    
C33   C35   T    
C38   O17   A    
C41   H17   S    
C34   C36   T    
C47   H31   S    
C5    C21   A    
C6    C22   A    
C45   H26   S    
C10   C32   A    
C17   C31   A    
C13   C15   A    
C17   C25   A    
C7    C29   A    
O15   C39   A    
C8    C30   A    
O11   C39   A    
O5    V1    S    
O6    V2    S    
O19   V3    S    
C43   H22   S    
C14   H10   S    
C9    H7    S    
C44   H19   S    
O11   V4    S    
O20   V3    S    
C43   C44   S    
O4    C2    A    
C31   C38   S    
C45   C46   S    
C42   H13   S    
C3    C8    S    
C44   H18   S    
C46   H25   S    
C45   H27   S    
O16   C40   A    
C14   C16   A    
O4    V2    S    
C26   H12   S    
C48   H28   S    
O6    C4    A    
C46   H24   S    
O14   V4    S    
C42   H14   S    
O12   C40   A    
O1    V2    S    
C13   H9    S    
O2    V1    S    
H2    C30   S    
O20   V4    S    
C28   C43   S    
C25   H11   S    
C48   H29   S    
O18   V4    S    
O19   V4    S    
H3    C23   S    
O12   V3    S    
C18   C26   A    
O15   V3    S    
C43   H21   S    
C19   C27   A    
C7    C27   A    
C11   C45   S    
C18   C32   A    
C44   H20   S    
C1    C36   S    
C16   C20   A    
C2    C35   S    
C5    C29   A    
O3    C1    A    
C6    C30   A    
O16   V4    S    
C12   C47   S    
C4    C7    S    
C10   C12   A    
O7    V1    S    
C1    O8    A    
C11   C13   A    
O8    V2    S    
C20   C22   A    
C10   H8    S    
C42   H15   S    
H4    C24   S    
O13   V3    S    
C41   H16   S    
C47   H32   S    
C22   C24   A    
C46   H23   S    
C15   C17   A    
O17   V3    S    
C16   C18   A    
C33   C40   S    
C32   C37   S    
C15   C19   A    
C20   C28   A    
C8    C28   A    
C48   H30   S    
C19   C21   A    
C47   C48   S    
O9    V2    S    
O10   V1    S    
C27   C41   S    
C37   O18   A    
C9    C31   A    
O14   C38   A    
