data_mof_unit_1574.cif
_audit_creation_date              2013-03-05T15:43:29-0500
_audit_creation_method            fapswitch 2.2
_symmetry_space_group_name_H-M    P1
_symmetry_Int_Tables_number       1
_space_group_crystal_system       triclinic
_cell_length_a                    14.570415
_cell_length_b                    15.982637
_cell_length_c                    6.923848
_cell_angle_alpha                 90.019258
_cell_angle_beta                  80.877999
_cell_angle_gamma                 89.959799
_cell_volume                      1591.98943963

loop_
_atom_site_label
_atom_site_type_symbol
_atom_site_description
_atom_site_fract_x
_atom_site_fract_y
_atom_site_fract_z
_atom_type_partial_charge
O1    O     O_R   0.337460 0.413110 0.524760 -0.571238
O2    O     O_R   0.662540 0.913110 0.475240 -0.572138
O3    O     O_R   0.348690 0.587910 0.191230 -0.506068
O4    O     O_R   0.651310 0.087910 0.808770 -0.494459
O5    O     O_R   0.166530 0.586890 0.082470 -0.538718
O6    O     O_R   0.833470 0.086890 0.917530 -0.531596
C1    C     C_R   0.370349 0.616911 0.353696 0.869406
C2    C     C_R   0.629421 0.116719 0.646639 0.935411
O7    O     O_R   0.348700 0.413830 0.191250 -0.553863
O8    O     O_R   0.651300 0.913830 0.808750 -0.555874
O9    O     O_R   0.166530 0.411570 0.082490 -0.562315
O10   O     O_R   0.833470 0.911570 0.917510 -0.574114
C3    C     C_R   0.371905 0.386233 0.353044 0.831626
C4    C     C_R   0.627953 0.886381 0.646781 0.825352
O11   O     O_R   0.337460 0.588430 0.524740 -0.539840
O12   O     O_R   0.662540 0.088430 0.475260 -0.539695
O13   O     O_3   0.192230 0.499460 0.407330 -0.270504
O14   O     O_3   0.807770 0.999460 0.592670 -0.292030
V1    V     V_3+5 0.263080 0.500100 0.108540 1.244079
V2    V     V_3+5 0.736920 0.000100 0.891460 1.237883
O15   O     O_R   0.155290 0.412090 0.756570 -0.572992
O16   O     O_R   0.844710 0.912090 0.243430 -0.577194
C5    C     C_R   0.133539 0.382328 0.933066 0.812770
C6    C     C_R   0.866114 0.881963 0.067503 0.794518
O17   O     O_R   0.155290 0.586170 0.756550 -0.556220
O18   O     O_R   0.844710 0.086170 0.243450 -0.554772
C7    C     C_R   0.130932 0.614034 0.934291 0.875424
C8    C     C_R   0.866778 0.116028 0.066943 0.876128
V3    V     V_3+5 0.240910 0.499900 0.616030 1.207480
V4    V     V_3+5 0.759090 0.999900 0.383970 1.197404
O19   O     O_3   0.311760 0.500540 0.867100 -0.239513
O20   O     O_3   0.688240 0.000540 0.132900 -0.244241
C9    C     C_3   0.021856 0.695971 0.195437 0.167397
C10   C     C_3   0.891838 0.271297 0.976199 0.177735
H1    H     H_    0.081605 0.709728 0.272616 0.078590
H2    H     H_    0.838739 0.290339 0.101513 0.156411
C11   C     C_3   0.952921 0.770603 0.230483 -0.166010
C12   C     C_3   0.965388 0.342597 0.937226 -0.190324
H3    H     H_    0.981855 0.818693 0.320433 0.073190
H4    H     H_    0.943506 0.396041 0.037153 0.114262
H5    H     H_    0.885482 0.750153 0.315700 0.135796
H6    H     H_    0.969758 0.366862 0.785493 0.147053
H7    H     H_    0.941206 0.606491 0.910792 0.149253
H8    H     H_    0.990756 0.151859 0.725669 0.129065
H9    H     H_    0.834451 0.712806 0.989789 0.130812
H10   H     H_    0.096119 0.258675 0.672802 0.098979
C13   C     C_3   0.973785 0.667791 0.866119 -0.161768
C14   C     C_3   0.018361 0.164999 0.863389 -0.175400
C15   C     C_3   0.102781 0.768292 0.892509 -0.194997
C16   C     C_3   0.982041 0.205088 0.216702 -0.230295
C17   C     C_3   0.058596 0.684128 0.971759 -0.100195
C18   C     C_3   0.937606 0.187520 0.030585 -0.084081
H11   H     H_    0.130321 0.762355 0.733746 0.139310
H12   H     H_    0.017002 0.147661 0.259888 0.098519
H13   H     H_    0.162538 0.783619 0.968264 0.139576
H14   H     H_    0.927019 0.221947 0.340975 0.165856
C19   C     C_3   0.935867 0.809890 0.033753 -0.064813
C20   C     C_3   0.062584 0.311470 0.968918 -0.069056
C21   C     C_3   0.900480 0.738980 0.909963 -0.163911
C22   C     C_3   0.090661 0.237143 0.827068 -0.171555
C23   C     C_3   0.030739 0.840864 0.923414 -0.203729
C24   C     C_3   0.053617 0.277230 0.181732 -0.181549
H15   H     H_    0.057753 0.892144 0.007493 0.085853
H16   H     H_    0.031548 0.328299 0.288480 0.134191
H17   H     H_    0.021494 0.867078 0.778836 0.101925
H18   H     H_    0.122377 0.254272 0.210111 0.100784
H19   H     H_    0.997601 0.664471 0.705622 0.137768
H20   H     H_    0.053463 0.106869 0.901875 0.071510
H21   H     H_    0.885120 0.764574 0.769061 0.105986
H22   H     H_    0.160339 0.213298 0.846827 0.101070
H23   H     H_    0.569860 0.807157 0.352095 0.134730
H24   H     H_    0.426150 0.302863 0.644638 0.140416
C25   C     C_2   0.444656 0.680278 0.344027 0.040421
C26   C     C_2   0.555059 0.180114 0.657041 0.056311
C27   C     C_2   0.450529 0.732823 0.496411 0.324601
C28   C     C_2   0.549211 0.232188 0.503964 0.328151
H25   H     H_    0.515591 0.807122 0.799587 0.166441
H26   H     H_    0.486096 0.309598 0.199254 0.173239
C29   C     C_2   0.553221 0.824010 0.656977 -0.152000
C30   C     C_2   0.446894 0.324017 0.341806 -0.160876
C31   C     C_2   0.529931 0.790665 0.492706 -0.093543
C32   C     C_2   0.468422 0.288479 0.505137 -0.116338
Br1   Br    Br    0.963462 0.594359 0.316520 -0.608024
Br2   Br    Br    0.825197 0.261807 0.753518 -0.512561
N1    N     N_R   0.375964 0.738443 0.658589 0.064775
O21   O     O_R   0.318197 0.800861 0.667081 -0.401232
O22   O     O_R   0.378306 0.693417 0.814152 -0.318973
N2    N     N_R   0.625642 0.239183 0.345793 0.083724
O23   O     O_R   0.704669 0.268893 0.379152 -0.347106
O24   O     O_R   0.619254 0.208611 0.174369 -0.309628
Br3   Br    Br    0.539535 0.676584 0.115526 -0.552252
Br4   Br    Br    0.459441 0.175373 0.884135 -0.583578

loop_
_geom_bond_atom_site_label_1
_geom_bond_atom_site_label_2
_geom_bond_distance
_ccdc_geom_bond_type
C20   C24   1.557983 S    
C5    C20   1.527575 S    
V4    O20   2.157942 S    
O11   V3    2.025350 S    
O13   V3    1.707678 S    
O4    C2    1.299057 A    
V1    O19   1.709314 S    
C1    C25   1.476823 S    
N1    O21   1.300068 A    
O9    V1    2.024025 S    
C16   H12   1.113160 S    
C26   C28   1.361044 D    
O7    V1    2.002509 S    
C12   H6    1.112331 S    
O3    C1    1.300856 A    
H26   C30   1.083722 S    
C19   C21   1.557298 S    
C20   C22   1.553805 S    
C26   Br4   1.929950 S    
C23   H15   1.112803 S    
O7    C3    1.297702 A    
C24   H16   1.113437 S    
O13   V1    2.160670 S    
O5    C7    1.295589 A    
C27   N1    1.436075 S    
O6    C8    1.296845 A    
O8    V2    2.003450 S    
C6    C19   1.528829 S    
C15   C17   1.553945 S    
C16   C18   1.556658 S    
O3    V1    2.020328 S    
O14   V4    1.707677 S    
C28   N2    1.437218 S    
C10   H2    1.109350 S    
C1    O11   1.288444 A    
C3    C30   1.469727 S    
H24   C32   1.084509 S    
C2    O12   1.289601 A    
C12   C20   1.548818 S    
C25   C27   1.361593 D    
C10   Br2   1.953905 S    
O1    V3    2.004318 S    
C7    C17   1.531227 S    
C14   C22   1.555765 S    
H25   C29   1.084973 S    
O17   V3    2.003971 S    
C15   C23   1.555593 S    
C24   H18   1.113082 S    
N1    O22   1.300511 A    
C25   Br3   1.929768 S    
C30   C32   1.346309 D    
O8    C4    1.298718 A    
C28   C32   1.480055 S    
C29   C31   1.347243 D    
C27   C31   1.478468 S    
C13   C17   1.554709 S    
C15   H13   1.112758 S    
O15   V3    2.022692 S    
C16   H14   1.111979 S    
C9    C17   1.567700 S    
C22   H22   1.112743 S    
O10   V2    2.022728 S    
C2    C26   1.476288 S    
C13   H19   1.111661 S    
C4    C29   1.470212 S    
C14   H20   1.112857 S    
C9    Br1   1.959826 S    
C21   H21   1.112902 S    
N2    O24   1.300338 A    
O18   V4    2.005623 S    
O15   C5    1.303022 A    
C16   C24   1.548395 S    
O16   C6    1.300692 A    
O1    C3    1.288463 A    
O12   V4    2.023676 S    
V2    O20   1.709305 S    
H9    C21   1.112737 S    
O16   V4    2.021023 S    
H10   C22   1.113093 S    
C10   C12   1.558873 S    
C10   C18   1.567814 S    
C19   C23   1.551109 S    
O5    V1    2.003416 S    
O17   C7    1.303729 A    
O6    V2    2.004699 S    
O10   C6    1.298204 A    
O18   C8    1.304099 A    
O2    V4    2.005978 S    
V3    O19   2.157941 S    
C12   H4    1.113220 S    
C8    C18   1.534103 S    
C15   H11   1.112828 S    
O9    C5    1.295201 A    
C9    H1    1.113319 S    
O14   V2    2.160655 S    
C11   H5    1.112315 S    
O2    C4    1.287641 A    
C9    C11   1.552861 S    
C13   C21   1.556533 S    
O4    V2    2.019379 S    
C23   H17   1.112973 S    
C14   C18   1.556083 S    
N2    O23   1.299888 A    
C11   H3    1.113440 S    
H7    C13   1.111382 S    
C11   C19   1.555339 S    
H8    C14   1.112092 S    
H23   C31   1.084702 S    
