data_mof_unit_4316.cif
_audit_creation_date              2012-12-10T16:51:33-0500
_audit_creation_method            fapswitch 2.2
_symmetry_space_group_name_H-M    P1
_symmetry_Int_Tables_number       1
_space_group_crystal_system       triclinic
_cell_length_a                    7.806961
_cell_length_b                    8.637387
_cell_length_c                    12.143849
_cell_angle_alpha                 91.932898
_cell_angle_beta                  101.155343
_cell_angle_gamma                 94.361589
_cell_volume                      800.099695682

loop_
_atom_site_label
_atom_site_type_symbol
_atom_type_description
_atom_site_fract_x
_atom_site_fract_y
_atom_site_fract_z
_atom_type_partial_charge
C1    C     C_R   0.046557 0.794510 0.499395 0.881115
C2    C     C_R   0.159356 0.508896 0.832037 -0.118272
C3    C     C_2   0.080998 0.957240 0.509113 -0.203585
C4    C     C_R   0.106222 0.505155 0.710371 0.853826
C5    C     C_2   0.943756 0.042632 0.515316 -0.430338
C6    C     C_R   0.958602 0.205781 0.507438 0.954345
C7    C     C_R   0.892475 0.489159 0.289852 0.861461
C8    C     C_R   0.809921 0.293117 0.004651 -0.185988
C9    C     C_R   0.830333 0.459984 0.170651 -0.065306
C10   C     C_R   0.073851 0.601296 0.897936 -0.167374
C11   C     C_R   0.145408 0.633384 0.010885 -0.129460
C12   C     C_R   0.396693 0.490781 0.990262 0.086837
C13   C     C_R   0.307379 0.581956 0.056695 -0.198216
C14   C     C_2   0.267158 0.015106 0.511182 0.484685
C15   C     C_R   0.310229 0.439031 0.881422 0.050486
C16   C     C_R   0.568929 0.449317 0.027731 0.083261
C17   C     C_R   0.641050 0.338257 0.964737 0.143492
C18   C     C_R   0.541813 0.271425 0.864532 -0.215938
C19   C     C_R   0.377829 0.320971 0.823540 -0.176389
C20   C     C_R   0.672411 0.517184 0.125770 -0.268420
C21   C     C_R   0.903203 0.351370 0.109190 -0.183221
H1    H     H_    0.026793 0.306214 0.144163 0.153532
H2    H     H_    0.078499 0.703269 0.062101 0.140841
H3    H     H_    0.302615 0.265258 0.746655 0.218237
H4    H     H_    0.329890 0.981294 0.442757 0.036039
H5    H     H_    0.813508 0.990412 0.517957 0.180193
H6    H     H_    0.470509 0.375715 0.417266 0.191728
H7    H     H_    0.529461 0.624176 0.582802 0.193568
H8    H     H_    0.591732 0.182547 0.817141 0.180326
H9    H     H_    0.865859 0.207918 0.957680 0.137973
H10   H     H_    0.629122 0.609955 0.172633 0.145099
H11   H     H_    0.954994 0.652865 0.861334 0.157614
H12   H     H_    0.357202 0.611923 0.144605 0.135313
N1    N     N_2   0.434800 0.456690 0.470850 -0.157999
N2    N     N_2   0.565200 0.543310 0.529150 -0.164684
O1    O     O_R   0.893060 0.738880 0.507150 -0.612522
O2    O     O_R   0.172250 0.711130 0.488470 -0.638809
O3    O     O_R   0.944700 0.520730 0.667600 -0.610563
O4    O     O_R   0.223890 0.492980 0.648920 -0.605969
O5    O     O_R   0.827750 0.288870 0.511530 -0.613921
O6    O     O_R   0.106940 0.261120 0.492850 -0.585975
O7    O     O_R   0.776110 0.507020 0.351080 -0.620778
O8    O     O_R   0.055300 0.479270 0.332400 -0.626551
O9    O     O_2   0.353700 0.091097 0.592201 -0.596416
Zn1   Zn    Zn3+2 0.813580 0.518530 0.512470 0.951503
Zn2   Zn    Zn3+2 0.186420 0.481470 0.487530 0.955221

loop_
_geom_bond_atom_site_label_1
_geom_bond_atom_site_label_2
_ccdc_geom_bond_type
C2    C4    S    
O6    Zn2   S    
C4    O4    A    
C13   H12   S    
N1    Zn2   S    
C7    O8    A    
C9    C20   A    
C8    C17   A    
C12   C15   A    
C1    O2    A    
C16   C20   A    
C8    H9    S    
C17   C18   A    
O1    Zn1   S    
H6    N1    S    
C18   H8    S    
C21   H1    S    
C15   C19   A    
C2    C15   A    
C11   C13   A    
C9    C21   A    
C5    C6    S    
C3    C14   S    
O4    Zn2   S    
C11   H2    S    
C4    O3    A    
C8    C21   A    
C14   H4    S    
O5    Zn1   S    
O8    Zn2   S    
C6    O5    A    
C10   C11   A    
O7    Zn1   S    
C5    H5    S    
N2    Zn1   S    
C10   H11   S    
C12   C13   A    
C1    O1    A    
C14   O9    D    
N1    N2    D    
C7    O7    A    
C7    C9    S    
C18   C19   A    
O3    Zn1   S    
C3    C5    D    
O2    Zn2   S    
C19   H3    S    
C6    O6    A    
C12   C16   A    
H7    N2    S    
C16   C17   A    
C1    C3    S    
C20   H10   S    
C2    C10   A    
