data_mof_unit_1429.cif
_audit_creation_date              2012-12-11T15:48:38-0500
_audit_creation_method            fapswitch 2.2
_symmetry_space_group_name_H-M    P1
_symmetry_Int_Tables_number       1
_space_group_crystal_system       triclinic
_cell_length_a                    10.951963
_cell_length_b                    10.930857
_cell_length_c                    18.824794
_cell_angle_alpha                 90.347388
_cell_angle_beta                  90.022492
_cell_angle_gamma                 60.419468
_cell_volume                      1959.82520189

loop_
_atom_site_label
_atom_site_type_symbol
_atom_type_description
_atom_site_fract_x
_atom_site_fract_y
_atom_site_fract_z
_atom_type_partial_charge
C1    C     C_R   0.239279 0.645014 0.610346 0.538177
C2    C     C_3   0.733422 0.521016 0.797020 -0.244308
C3    C     C_3   0.697966 0.673143 0.813449 0.059077
C4    C     C_3   0.669043 0.646563 0.677718 0.050140
C5    C     C_3   0.779639 0.692649 0.688725 -0.251240
C6    C     C_3   0.714861 0.506170 0.717775 -0.212948
C7    C     C_R   0.683084 0.147196 0.821309 0.017328
C8    C     C_R   0.774498 0.179060 0.784800 -0.008020
C9    C     C_R   0.768890 0.189094 0.710824 0.016156
C10   C     C_R   0.582753 0.132410 0.708219 -0.172831
C11   C     C_R   0.581638 0.132083 0.781277 -0.158219
C12   C     C_R   0.652772 0.620977 0.601853 0.539242
C13   C     C_3   0.929853 0.102394 0.785929 -0.275871
C14   C     C_3   0.925295 0.109738 0.705601 -0.280837
C15   C     C_R   0.673855 0.164526 0.671758 0.015674
C16   C     C_R   0.187521 0.666343 0.837102 0.015144
C17   C     C_R   0.197126 0.553870 0.797348 0.019815
C18   C     C_R   0.203528 0.550888 0.725144 0.022280
C19   C     C_R   0.204686 0.768191 0.725317 -0.185519
C20   C     C_R   0.204756 0.767753 0.799562 -0.182249
C21   C     C_3   0.189731 0.421503 0.801341 -0.282042
C22   C     C_3   0.199337 0.417095 0.719600 -0.277311
C23   C     C_R   0.629804 0.225965 0.601809 0.539558
C24   C     C_R   0.204603 0.658003 0.685820 0.012968
C25   C     C_R   0.652036 0.656929 0.164878 0.004619
C26   C     C_R   0.747371 0.534899 0.201415 0.021408
C27   C     C_R   0.742037 0.528007 0.273993 0.029010
C28   C     C_R   0.528629 0.749866 0.276929 -0.140634
C29   C     C_R   0.534358 0.758151 0.202393 -0.146648
C30   C     C_3   0.905035 0.457209 0.202829 -0.261718
C31   C     C_3   0.897383 0.451483 0.282582 -0.270377
C32   C     C_R   0.641052 0.639647 0.313768 0.004749
C33   C     C_R   0.653194 0.150517 0.177154 0.023248
C34   C     C_R   0.223027 0.648467 0.400777 0.547189
C35   C     C_R   0.580769 0.102159 0.218930 0.029494
C36   C     C_R   0.582206 0.109058 0.291807 -0.000497
C37   C     C_R   0.745431 0.196702 0.283980 -0.165091
C38   C     C_R   0.741535 0.191737 0.210266 -0.171463
C39   C     C_3   0.429205 0.143734 0.216716 -0.250361
C40   C     C_3   0.431297 0.146348 0.296936 -0.243957
C41   C     C_R   0.656616 0.166293 0.325274 0.011854
C42   C     C_R   0.163263 0.671068 0.180178 -0.021173
C43   C     C_R   0.185136 0.770624 0.217842 0.024586
C44   C     C_R   0.186755 0.767871 0.290300 0.058391
C45   C     C_R   0.638119 0.618524 0.390014 0.547465
C46   C     C_R   0.180337 0.551313 0.290307 -0.169571
C47   C     C_R   0.175422 0.553815 0.216181 -0.174888
C48   C     C_3   0.103968 0.930417 0.219086 0.221132
C49   C     C_3   0.100599 0.922978 0.299347 0.148974
C50   C     C_R   0.178539 0.663424 0.327955 -0.024548
C51   C     C_R   0.702544 0.098666 0.894936 0.543606
C52   C     C_R   0.721972 0.686895 0.889098 0.541992
C53   C     C_R   0.120846 0.704701 0.906754 0.541356
C54   C     C_R   0.674721 0.107310 0.103900 0.547416
C55   C     C_R   0.695235 0.688154 0.096853 0.544071
C56   C     C_R   0.617687 0.228469 0.395220 0.550647
C57   C     C_R   0.095701 0.709321 0.111841 0.542304
C58   C     C_3   0.543988 0.773850 0.791274 -0.242605
C59   C     C_3   0.528374 0.760241 0.710899 -0.232885
C60   C     C_3   0.794987 0.710990 0.768983 -0.218911
Cr1   Cr    Cr6+3 0.392960 0.397920 0.502240 1.008927
Cr2   Cr    Cr6+3 0.398340 0.708480 0.501250 1.017123
Cr3   Cr    Cr6+3 0.708670 0.393570 0.496460 1.004251
Cr4   Cr    Cr6+3 0.937650 0.938540 0.007610 0.981437
Cr5   Cr    Cr6+3 0.625330 0.937370 0.994520 0.995552
Cr6   Cr    Cr6+3 0.937940 0.625230 0.001190 0.996908
H1    H     H_    0.512960 0.884904 0.803898 0.130655
H2    H     H_    0.816483 0.421610 0.696398 0.142584
H3    H     H_    0.906028 0.644016 0.784371 0.134645
H4    H     H_    0.881955 0.613010 0.665811 0.121627
H5    H     H_    0.506413 0.114387 0.680341 0.122883
H6    H     H_    0.505893 0.108887 0.805536 0.134270
H7    H     H_    0.969139 0.995478 0.807009 0.172620
H8    H     H_    0.973228 0.165027 0.811053 0.124973
H9    H     H_    0.968881 0.174433 0.683781 0.129228
H10   H     H_    0.963718 0.006169 0.678929 0.142616
H11   H     H_    0.209701 0.853618 0.699252 0.135536
H12   H     H_    0.472183 0.747777 0.820981 0.117817
H13   H     H_    0.205906 0.854561 0.827003 0.130852
H14   H     H_    0.088019 0.437557 0.822106 0.146449
H15   H     H_    0.283777 0.335689 0.827409 0.136747
H16   H     H_    0.298635 0.329802 0.698348 0.159458
H17   H     H_    0.102911 0.430411 0.693316 0.120303
H18   H     H_    0.440080 0.831259 0.305557 0.203175
H19   H     H_    0.453220 0.846938 0.174699 0.166417
H20   H     H_    0.948708 0.524247 0.185677 0.173057
H21   H     H_    0.951098 0.352169 0.176738 0.137929
H22   H     H_    0.939985 0.343002 0.302955 0.158536
H23   H     H_    0.449007 0.727845 0.701923 0.149261
H24   H     H_    0.935319 0.515974 0.310725 0.137298
H25   H     H_    0.809026 0.235581 0.308187 0.148292
H26   H     H_    0.807308 0.219712 0.179271 0.122337
H27   H     H_    0.410772 0.060711 0.194595 0.168527
H28   H     H_    0.364224 0.248740 0.192624 0.131839
H29   H     H_    0.362100 0.252185 0.319093 0.164854
H30   H     H_    0.418576 0.061220 0.321527 0.162797
H31   H     H_    0.181512 0.464849 0.318216 0.128688
H32   H     H_    0.169796 0.470774 0.187682 0.120229
H33   H     H_    0.996671 0.977949 0.196593 0.103620
H34   H     H_    0.491848 0.863718 0.684859 0.117592
H35   H     H_    0.994462 0.957058 0.322018 0.050553
H36   H     H_    0.768065 0.821671 0.780033 0.130184
H37   H     H_    0.747104 0.793683 0.660922 0.116056
H38   H     H_    0.843773 0.445276 0.811929 0.130461
H39   H     H_    0.663750 0.493650 0.828021 0.119611
H40   H     H_    0.634213 0.473507 0.710032 0.132937
O1    O     O_R   0.507380 0.255700 0.581440 -0.529479
O2    O     O_R   0.524480 0.695810 0.424040 -0.497084
O3    O     O_R   0.736390 0.504290 0.414790 -0.520095
O4    O     O_R   0.691300 0.277290 0.422170 -0.513931
O5    O     O_3   0.499990 0.499990 0.499980 -0.250285
O6    O     O_R   0.089400 0.825690 0.930570 -0.537622
O7    O     O_R   0.818460 0.054440 0.929850 -0.501935
O8    O     O_R   0.606060 0.077150 0.915510 -0.535774
O9    O     O_R   0.646550 0.806680 0.917570 -0.512689
O10   O     O_R   0.837170 0.593410 0.915250 -0.533373
O11   O     O_R   0.065200 0.635530 0.931570 -0.501096
O12   O     O_R   0.280320 0.527350 0.578930 -0.498703
O13   O     O_R   0.068260 0.828890 0.091840 -0.547783
O14   O     O_R   0.798870 0.057410 0.079340 -0.519577
O15   O     O_R   0.584930 0.080350 0.076780 -0.518397
O16   O     O_R   0.626960 0.809650 0.067060 -0.506318
O17   O     O_R   0.816040 0.596610 0.076510 -0.526342
O18   O     O_R   0.045610 0.638500 0.081060 -0.507522
O19   O     O_3   0.833640 0.833710 0.001100 -0.241108
O20   O     O_R   0.260510 0.739590 0.584590 -0.537782
O21   O     O_R   0.532300 0.695080 0.573820 -0.510399
O22   O     O_R   0.744840 0.503500 0.576370 -0.528305
O23   O     O_R   0.699120 0.276560 0.571960 -0.503623
O24   O     O_R   0.498940 0.256500 0.419860 -0.523978
O25   O     O_R   0.272500 0.528080 0.429150 -0.507622
O26   O     O_R   0.252060 0.740380 0.423010 -0.501228
O27   O     O_3   0.186556 0.990819 0.197611 -0.542687
C61   C     C_3   0.159927 0.034783 0.126365 -0.117000
H41   H     H_    0.045836 0.095472 0.114074 0.114824
H42   H     H_    0.215570 0.943151 0.090047 0.149415
H43   H     H_    0.203281 0.105873 0.116495 0.107823
O28   O     O_3   0.175221 0.980334 0.333333 -0.663214
H44   H     H_    0.131884 0.012424 0.380940 0.318825

loop_
_geom_bond_atom_site_label_1
_geom_bond_atom_site_label_2
_ccdc_geom_bond_type
C44   C49   S    
C5    H37   S    
C8    C13   S    
C54   O14   A    
C28   H18   S    
Cr5   O8    S    
C35   C36   A    
C9    C14   S    
C61   H43   S    
C7    C8    A    
C41   C56   S    
C12   O21   A    
C7    C11   A    
C26   C27   A    
C51   O7    A    
C47   H32   S    
Cr6   O10   S    
C18   C24   A    
C22   H16   S    
C28   C29   A    
C10   C15   A    
C59   H23   S    
Cr2   O21   S    
C53   O11   A    
Cr4   O6    S    
Cr2   O2    S    
C38   H26   S    
C23   O23   A    
C32   C45   S    
C19   H11   S    
C16   C53   S    
C39   H27   S    
Cr2   O5    S    
C19   C20   A    
C8    C9    A    
Cr6   O11   S    
C31   H22   S    
Cr5   O15   S    
C30   H20   S    
C43   C48   S    
C29   H19   S    
Cr3   O22   S    
C20   H13   S    
C45   O2    A    
C57   O13   A    
C3    C60   S    
C15   C23   S    
C27   C32   A    
C55   O16   A    
C34   O26   A    
C13   C14   S    
C37   C41   A    
C59   H34   S    
Cr5   O9    S    
C36   C41   A    
C2    C6    S    
C40   H30   S    
C60   H36   S    
C42   C57   S    
C56   O4    A    
C42   C47   A    
C52   O10   A    
C25   C29   A    
C55   O17   A    
C34   C50   S    
C51   O8    A    
C37   H25   S    
C27   C31   S    
Cr2   O26   S    
C48   O27   S    
C28   C32   A    
C1    O20   A    
C4    C6    S    
C10   C11   A    
C39   C40   S    
Cr2   O20   S    
C58   H12   S    
C11   H6    S    
C16   C17   A    
C61   H42   S    
C25   C26   A    
C17   C21   S    
Cr5   O19   S    
Cr3   O3    S    
C35   C39   S    
C43   C44   A    
C39   H28   S    
C37   C38   A    
C4    C59   S    
C36   C40   S    
C16   C20   A    
C31   H24   S    
C23   O1    A    
C17   C18   A    
C6    H40   S    
Cr5   O16   S    
Cr4   O13   S    
Cr1   O24   S    
C53   O6    A    
C48   C49   S    
C54   O15   A    
C13   H7    S    
C2    H38   S    
C26   C30   S    
O27   C61   S    
Cr6   O18   S    
C4    C12   S    
C42   C43   A    
C40   H29   S    
Cr1   O5    S    
C52   O9    A    
C44   C50   A    
C33   C54   S    
C48   H33   S    
C46   C47   A    
Cr4   O7    S    
C5    C60   S    
Cr1   O12   S    
C18   C22   S    
C46   H31   S    
C25   C55   S    
C21   H15   S    
C4    C5    S    
C5    H4    S    
C34   O25   A    
C3    C52   S    
C61   H41   S    
C12   O22   A    
C14   H9    S    
C46   C50   A    
C2    H39   S    
C33   C38   A    
Cr4   O14   S    
Cr6   O19   S    
C22   H17   S    
Cr3   O4    S    
C19   C24   A    
C58   C59   S    
C7    C51   S    
C10   H5    S    
C57   O18   A    
C49   H35   S    
C30   C31   S    
C60   H3    S    
C21   H14   S    
C6    H2    S    
C33   C35   A    
C2    C3    S    
C45   O3    A    
C1    O12   A    
Cr3   O23   S    
Cr3   O5    S    
Cr1   O1    S    
O28   H44   S    
Cr1   O25   S    
C3    C58   S    
C58   H1    S    
C13   H8    S    
C1    C24   S    
Cr4   O19   S    
Cr6   O17   S    
C49   O28   S    
C30   H21   S    
C21   C22   S    
C56   O24   A    
C9    C15   A    
C14   H10   S    
