data_mof_unit_4854.cif
_audit_creation_date              2012-12-11T17:02:16-0500
_audit_creation_method            fapswitch 2.2
_symmetry_space_group_name_H-M    P1
_symmetry_Int_Tables_number       1
_space_group_crystal_system       triclinic
_cell_length_a                    21.624375
_cell_length_b                    7.063072
_cell_length_c                    14.859158
_cell_angle_alpha                 89.999777
_cell_angle_beta                  106.521397
_cell_angle_gamma                 89.999964
_cell_volume                      2175.80658952

loop_
_atom_site_label
_atom_site_type_symbol
_atom_type_description
_atom_site_fract_x
_atom_site_fract_y
_atom_site_fract_z
_atom_type_partial_charge
O1    O     O_R   0.585850 0.505770 0.002130 -0.537507
O2    O     O_R   0.414150 0.005770 0.997870 -0.537509
O3    O     O_R   0.467530 0.173560 0.861970 -0.539441
O4    O     O_R   0.532470 0.673560 0.138030 -0.539442
C1    C     C_R   0.455951 0.344160 0.825028 0.700095
C2    C     C_R   0.544048 0.844159 0.174972 0.700100
O5    O     O_R   0.588690 0.175900 0.993250 -0.545030
O6    O     O_R   0.411310 0.675900 0.006750 -0.545029
O7    O     O_R   0.536170 0.007950 0.130090 -0.536471
O8    O     O_R   0.463830 0.507950 0.869910 -0.536470
C3    C     C_R   0.615067 0.344642 0.997778 0.694857
C4    C     C_R   0.384933 0.844642 0.002222 0.694855
O9    O     O_3   0.482630 0.339970 0.044740 -0.372741
O10   O     O_3   0.517370 0.839970 0.955260 -0.372741
V1    V     V_3+5 0.503220 0.064200 0.991700 1.405371
V2    V     V_3+5 0.496780 0.564200 0.008300 1.405373
C5    C     C_R   0.293322 0.004396 0.045854 0.064151
C6    C     C_R   0.706679 0.504404 0.954151 0.064150
C7    C     C_R   0.316938 0.852556 0.004660 -0.105850
C8    C     C_R   0.683062 0.352558 0.995343 -0.105853
C9    C     C_R   0.273628 0.704062 0.967501 -0.179431
C10   C     C_R   0.726374 0.204065 0.032504 -0.179438
C11   C     C_R   0.208006 0.717070 0.964706 -0.199662
C12   C     C_R   0.791995 0.217074 0.035299 -0.199670
C13   C     C_R   0.183879 0.878073 0.999683 -0.146818
C14   C     C_R   0.816122 0.378077 0.000323 -0.146822
C15   C     C_R   0.228623 0.016667 0.043667 0.151004
C16   C     C_R   0.771379 0.516677 0.956342 0.151042
C17   C     C_3   0.227734 0.226089 0.029923 0.002096
C18   C     C_3   0.772269 0.726096 0.970097 0.002101
C19   C     C_3   0.298733 0.212483 0.033137 -0.385919
C20   C     C_3   0.701269 0.712489 0.966877 -0.385942
H1    H     H_    0.195151 0.273469 0.961362 0.113732
H2    H     H_    0.804850 0.773461 0.038664 0.113727
H3    H     H_    0.332386 0.280175 0.095670 0.187415
H4    H     H_    0.667618 0.780193 0.904346 0.187410
H5    H     H_    0.307760 0.247762 0.965068 0.139223
H6    H     H_    0.692239 0.747754 0.034946 0.139228
C21   C     C_R   0.927782 0.884424 0.722635 -0.031505
C22   C     C_R   0.072215 0.384429 0.277366 -0.031520
C23   C     C_R   0.571560 0.846466 0.277309 -0.116625
C24   C     C_R   0.428437 0.346467 0.722689 -0.116626
C25   C     C_R   0.938654 0.935983 0.567277 -0.167705
C26   C     C_R   0.061348 0.436103 0.432718 -0.167704
C27   C     C_R   0.965888 0.930708 0.664171 -0.171543
C28   C     C_R   0.034114 0.430802 0.335825 -0.171538
C29   C     C_R   0.862633 0.839028 0.683753 -0.232625
C30   C     C_R   0.137358 0.338979 0.316253 -0.232617
C31   C     C_R   0.834474 0.833852 0.585471 0.083891
C32   C     C_R   0.165518 0.333845 0.414536 0.083892
C33   C     C_R   0.873036 0.893702 0.527881 0.146108
C34   C     C_R   0.126962 0.393770 0.472119 0.146105
C35   C     C_R   0.767937 0.788002 0.543277 0.009590
C36   C     C_R   0.232053 0.287974 0.456734 0.009590
C37   C     C_R   0.738658 0.838898 0.447315 0.059415
C38   C     C_R   0.261336 0.338906 0.552689 0.059414
C39   C     C_R   0.779148 0.900565 0.393141 -0.169823
C40   C     C_R   0.220850 0.400626 0.606859 -0.169824
C41   C     C_R   0.845221 0.920103 0.432124 -0.209988
C42   C     C_R   0.154778 0.420197 0.567874 -0.209987
C43   C     C_R   0.729308 0.691975 0.592141 0.171967
C44   C     C_R   0.270678 0.191900 0.407878 0.171979
C45   C     C_R   0.662493 0.693014 0.556271 -0.137222
C46   C     C_R   0.337493 0.192937 0.443743 -0.137214
C47   C     C_R   0.631884 0.763225 0.466592 0.003076
C48   C     C_R   0.368106 0.263184 0.533412 0.003087
C49   C     C_R   0.670067 0.824989 0.408654 0.041029
C50   C     C_R   0.329926 0.324983 0.591349 0.041023
C51   C     C_R   0.563616 0.758440 0.432068 0.238837
C52   C     C_R   0.436374 0.258396 0.567933 0.238831
C53   C     C_R   0.533555 0.798681 0.336609 0.164148
C54   C     C_R   0.466439 0.298658 0.663388 0.164147
C55   C     C_R   0.638250 0.865826 0.313601 -0.238921
C56   C     C_R   0.361747 0.365840 0.686399 -0.238920
H7    H     H_    0.664022 0.902400 0.263824 0.108594
H8    H     H_    0.335977 0.402433 0.736176 0.108597
H9    H     H_    0.634691 0.624643 0.597299 0.180118
H10   H     H_    0.365293 0.124534 0.402721 0.180133
H11   H     H_    0.968452 0.978861 0.523230 0.118110
H12   H     H_    0.031555 0.479047 0.476762 0.118111
H13   H     H_    0.016262 0.967240 0.693726 0.105950
H14   H     H_    0.983745 0.467386 0.306267 0.105957
H15   H     H_    0.761614 0.935718 0.319851 0.117092
H16   H     H_    0.238387 0.435802 0.680145 0.117094
O11   O     O_R   0.036080 0.231270 0.130120 -0.539122
O12   O     O_R   0.963920 0.731270 0.869880 -0.539117
O13   O     O_R   0.911300 0.558970 0.006750 -0.545875
O14   O     O_R   0.088700 0.058970 0.993250 -0.545878
C57   C     C_R   0.884952 0.390033 0.002381 0.700875
C58   C     C_R   0.115049 0.890032 0.997621 0.700866
O15   O     O_R   0.032450 0.561140 0.138040 -0.537664
O16   O     O_R   0.967550 0.061140 0.861960 -0.537664
O17   O     O_R   0.085870 0.728910 0.002130 -0.538046
O18   O     O_R   0.914130 0.228910 0.997870 -0.538049
C59   C     C_R   0.045079 0.392559 0.175268 0.686012
C60   C     C_R   0.954920 0.892559 0.824732 0.686020
O19   O     O_3   0.017320 0.394650 0.955270 -0.374653
O20   O     O_3   0.982680 0.894650 0.044730 -0.374658
V3    V     V_3+5 0.996780 0.670490 0.008300 1.400567
V4    V     V_3+5 0.003220 0.170490 0.991700 1.400562
H17   H     H_    0.289665 0.582243 0.936144 0.125851
H18   H     H_    0.710336 0.082246 0.063860 0.125856
H19   H     H_    0.833913 0.820576 0.731520 0.130574
H20   H     H_    0.166077 0.320463 0.268487 0.130571
N1    N     N_3   0.755468 0.563289 0.668372 -0.672510
H21   H     H_    0.801925 0.518652 0.670546 0.242976
H22   H     H_    0.754373 0.626117 0.731454 0.260014
N2    N     N_3   0.244512 0.063172 0.331667 -0.672508
H23   H     H_    0.198053 0.018561 0.329502 0.242972
H24   H     H_    0.245609 0.125948 0.268574 0.259994
N3    N     N_3   0.526005 0.706376 0.494354 -0.676148
H25   H     H_    0.477061 0.691921 0.459214 0.275593
H26   H     H_    0.529777 0.816660 0.542534 0.240212
N4    N     N_3   0.473981 0.206321 0.505644 -0.676159
H27   H     H_    0.522922 0.191800 0.540787 0.275576
H28   H     H_    0.470226 0.316629 0.457480 0.240245
H29   H     H_    0.175609 0.604011 0.932064 0.133082
H30   H     H_    0.824392 0.104014 0.067941 0.133087
N5    N     N_3   0.217906 0.324949 0.110999 -0.676750
H31   H     H_    0.233947 0.464233 0.110300 0.254503
H32   H     H_    0.168217 0.332318 0.101801 0.234225
N6    N     N_3   0.782102 0.824977 0.889030 -0.676782
H33   H     H_    0.766044 0.964245 0.889717 0.254505
H34   H     H_    0.831792 0.832392 0.898245 0.234243
H35   H     H_    0.874270 0.966890 0.387671 0.121046
H36   H     H_    0.125733 0.467029 0.612323 0.121049
N7    N     N_3   0.464632 0.787472 0.300075 -0.680862
H37   H     H_    0.453049 0.682131 0.248597 0.229697
H38   H     H_    0.447576 0.917091 0.268706 0.225360
N8    N     N_3   0.535363 0.287462 0.699914 -0.680865
H39   H     H_    0.546952 0.182183 0.751425 0.229687
H40   H     H_    0.552418 0.417112 0.731245 0.225373

loop_
_geom_bond_atom_site_label_1
_geom_bond_atom_site_label_2
_ccdc_geom_bond_type
C48   C50   A    
C1    C24   S    
C45   C47   A    
C15   C17   S    
O11   C59   A    
C35   C37   A    
N3    H25   S    
O1    C3    A    
O2    C4    A    
C2    O7    A    
N4    H27   S    
C29   C31   A    
C52   N4    S    
C14   C57   S    
C22   C28   A    
N1    H22   S    
C13   C58   S    
C32   C36   A    
C56   H8    S    
C20   H4    S    
C7    C9    A    
C12   C14   A    
C31   C35   A    
C39   C41   A    
C44   N2    S    
C40   C42   A    
C30   H20   S    
C17   H1    S    
O16   C60   A    
N2    H23   S    
C43   C45   A    
C57   O18   A    
C51   C53   A    
C44   C46   A    
C34   C42   A    
C28   H14   S    
C35   C43   A    
C18   N6    S    
C38   C40   A    
C47   C49   A    
C2    C23   S    
C32   C34   A    
C39   H15   S    
C49   C55   A    
C20   H6    S    
C43   N1    S    
O17   V3    S    
C6    C8    A    
C23   C53   A    
C9    H17   S    
C26   C34   A    
C30   C32   A    
O6    V2    S    
C55   H7    S    
C53   N7    S    
O19   V3    S    
C26   C28   A    
O5    C3    A    
O13   V3    S    
N5    H32   S    
C36   C38   A    
C3    C8    S    
C24   C56   A    
C29   H19   S    
C18   H2    S    
C5    C15   A    
C26   H12   S    
C6    C16   A    
O4    C2    A    
C36   C44   A    
C31   C33   A    
C38   C50   A    
C23   C55   A    
C19   H5    S    
C46   C48   A    
O4    V2    S    
N8    H40   S    
N7    H38   S    
O12   V3    S    
C40   H16   S    
C17   N5    S    
N4    H28   S    
O18   V4    S    
O6    C4    A    
C24   C54   A    
N3    H26   S    
O1    V2    S    
O2    V1    S    
C25   C27   A    
O14   V4    S    
C42   H36   S    
O12   C60   A    
C8    C10   A    
O20   V4    S    
C9    C11   A    
C5    C19   S    
C10   C12   A    
C33   C41   A    
C22   C59   S    
N6    H34   S    
N7    H37   S    
O19   V4    S    
O3    V1    S    
O16   V4    S    
C58   O17   A    
C21   C29   A    
C45   H9    S    
C22   C30   A    
C46   H10   S    
C27   H13   S    
O14   C58   A    
O3    C1    A    
C11   H29   S    
C37   C49   A    
N5    H31   S    
C54   N8    S    
C13   C15   A    
N1    H21   S    
C14   C16   A    
C10   H18   S    
C21   C27   A    
C37   C39   A    
N8    H39   S    
O7    V1    S    
C16   C18   S    
C17   C19   S    
O11   V4    S    
O8    V2    S    
C41   H35   S    
C18   C20   S    
C51   N3    S    
C25   C33   A    
C48   C52   A    
C47   C51   A    
C4    C7    S    
O5    V1    S    
C12   H30   S    
C5    C7    A    
N2    H24   S    
C19   H3    S    
C11   C13   A    
C21   C60   S    
O15   C59   A    
C1    O8    A    
C6    C20   S    
O20   V3    S    
O9    V2    S    
O13   C57   A    
O10   V1    S    
C52   C54   A    
O15   V3    S    
N6    H33   S    
C25   H11   S    
C50   C56   A    
