data_mof_unit_3435.cif
_audit_creation_date              2012-12-11T15:26:04-0500
_audit_creation_method            fapswitch 2.2
_symmetry_space_group_name_H-M    P1
_symmetry_Int_Tables_number       1
_space_group_crystal_system       monoclinic
_cell_length_a                    24.481773
_cell_length_b                    17.065069
_cell_length_c                    15.550959
_cell_angle_alpha                 90.0
_cell_angle_beta                  50.675389
_cell_angle_gamma                 90.0
_cell_volume                      5025.81651823

loop_
_atom_site_label
_atom_site_type_symbol
_atom_type_description
_atom_site_fract_x
_atom_site_fract_y
_atom_site_fract_z
_atom_type_partial_charge
C1    C     C_R   0.351366 0.143267 0.754953 -0.121322
C2    C     C_2   0.360425 0.739440 0.846128 -0.218860
C3    C     C_2   0.360425 0.260560 0.846127 -0.218860
C4    C     C_2   0.639575 0.739440 0.153872 -0.218860
C5    C     C_2   0.194751 0.649364 0.017324 -0.221118
C6    C     C_2   0.805249 0.350636 0.982676 -0.221118
C7    C     C_2   0.805249 0.649363 0.982676 -0.221118
C8    C     C_2   0.194751 0.350636 0.017324 -0.221118
C9    C     C_2   0.691989 0.300532 0.138950 -0.106342
C10   C     C_2   0.308011 0.699468 0.861050 -0.106343
C11   C     C_2   0.308011 0.300532 0.861050 -0.106342
C12   C     C_R   0.648634 0.856733 0.245047 -0.121323
C13   C     C_2   0.691989 0.699468 0.138950 -0.106342
C14   C     C_2   0.264936 0.647799 0.956854 -0.106742
C15   C     C_2   0.735064 0.352201 0.043146 -0.106743
C16   C     C_2   0.735064 0.647799 0.043146 -0.106743
C17   C     C_2   0.264936 0.352201 0.956854 -0.106742
C18   C     C_R   0.614797 0.102896 0.592154 -0.133356
C19   C     C_R   0.385203 0.897104 0.407846 -0.133355
C20   C     C_R   0.385203 0.102896 0.407846 -0.133356
C21   C     C_R   0.614797 0.897104 0.592154 -0.133356
C22   C     C_R   0.087068 0.645291 0.592756 -0.125196
C23   C     C_R   0.648634 0.143267 0.245047 -0.121324
C24   C     C_R   0.912932 0.354709 0.407244 -0.125196
C25   C     C_R   0.912932 0.645291 0.407244 -0.125196
C26   C     C_R   0.087068 0.354709 0.592756 -0.125196
C27   C     C_R   0.689119 0.102382 0.408003 -0.138836
C28   C     C_R   0.310881 0.897618 0.591997 -0.138836
C29   C     C_R   0.310881 0.102382 0.591997 -0.138836
C30   C     C_R   0.689119 0.897618 0.408003 -0.138836
C31   C     C_R   0.162075 0.644942 0.407331 -0.126809
C32   C     C_R   0.837925 0.355058 0.592669 -0.126809
C33   C     C_R   0.837925 0.644942 0.592669 -0.126809
C34   C     C_R   0.351366 0.856733 0.754953 -0.121323
C35   C     C_R   0.162075 0.355058 0.407331 -0.126809
C36   C     C_R   0.557666 0.142746 0.243856 -0.150325
C37   C     C_R   0.442334 0.857253 0.756144 -0.150324
C38   C     C_R   0.442334 0.142746 0.756143 -0.150325
C39   C     C_R   0.557666 0.857253 0.243856 -0.150324
C40   C     C_R   0.077238 0.606441 0.196652 -0.159447
C41   C     C_R   0.922762 0.393559 0.803348 -0.159447
C42   C     C_R   0.922762 0.606441 0.803348 -0.159446
C43   C     C_R   0.077238 0.393559 0.196652 -0.159447
C44   C     C_R   0.384623 0.186131 0.785932 0.148920
C45   C     C_R   0.832541 0.606749 0.802462 -0.129701
C46   C     C_R   0.615377 0.813868 0.214067 0.148920
C47   C     C_R   0.615377 0.186131 0.214068 0.148920
C48   C     C_R   0.384623 0.813868 0.785932 0.148920
C49   C     C_R   0.852085 0.624901 0.866125 0.155607
C50   C     C_R   0.147915 0.375099 0.133875 0.155607
C51   C     C_R   0.147915 0.624901 0.133875 0.155607
C52   C     C_R   0.852085 0.375099 0.866125 0.155607
C53   C     C_R   0.683948 0.117813 0.500108 0.048163
C54   C     C_R   0.316052 0.882187 0.499892 0.048162
C55   C     C_R   0.316052 0.117813 0.499892 0.048163
C56   C     C_R   0.167459 0.393251 0.197538 -0.129700
C57   C     C_R   0.683948 0.882187 0.500108 0.048163
C58   C     C_R   0.137506 0.689896 0.499997 0.040167
C59   C     C_R   0.862494 0.310104 0.500003 0.040167
C60   C     C_R   0.862494 0.689896 0.500003 0.040167
C61   C     C_R   0.137506 0.310104 0.499997 0.040167
C62   C     C_R   0.191626 0.157290 0.600540 -0.171473
C63   C     C_R   0.808373 0.842709 0.399460 -0.171473
C64   C     C_R   0.808373 0.157290 0.399460 -0.171473
C65   C     C_R   0.191626 0.842709 0.600540 -0.171473
C66   C     C_R   0.773297 0.795368 0.600673 -0.167726
C67   C     C_R   0.167459 0.606749 0.197538 -0.129701
C68   C     C_R   0.226703 0.204632 0.399326 -0.167725
C69   C     C_R   0.226703 0.795368 0.399326 -0.167726
C70   C     C_R   0.773297 0.204632 0.600673 -0.167726
C71   C     C_R   0.727364 0.842713 0.600755 -0.170772
C72   C     C_R   0.272635 0.157287 0.399245 -0.170772
C73   C     C_R   0.272635 0.842713 0.399245 -0.170772
C74   C     C_R   0.727364 0.157287 0.600755 -0.170772
C75   C     C_R   0.145746 0.204642 0.600525 -0.168859
C76   C     C_R   0.854253 0.795358 0.399475 -0.168858
C77   C     C_R   0.854253 0.204642 0.399475 -0.168859
C78   C     C_R   0.832541 0.393251 0.802462 -0.129700
C79   C     C_R   0.145746 0.795358 0.600525 -0.168859
C80   C     C_R   0.741479 0.859547 0.500122 0.143149
C81   C     C_R   0.258521 0.140453 0.499878 0.143149
C82   C     C_R   0.258521 0.859547 0.499878 0.143149
C83   C     C_R   0.741479 0.140452 0.500122 0.143149
C84   C     C_R   0.167158 0.235771 0.499944 0.143960
C85   C     C_R   0.832842 0.764229 0.500055 0.143960
C86   C     C_R   0.832842 0.235771 0.500055 0.143961
C87   C     C_R   0.167158 0.764229 0.499944 0.143961
C88   C     C_2   0.639575 0.260560 0.153872 -0.218860
H1    H     H_    0.304052 0.158072 0.767067 0.090383
H2    H     H_    0.406184 0.901824 0.322550 0.081588
H3    H     H_    0.406184 0.098176 0.322550 0.081588
H4    H     H_    0.593816 0.901824 0.677450 0.081588
H5    H     H_    0.057289 0.660712 0.679036 0.091843
H6    H     H_    0.942710 0.339288 0.320964 0.091843
H7    H     H_    0.942710 0.660712 0.320964 0.091843
H8    H     H_    0.057289 0.339288 0.679036 0.091843
H9    H     H_    0.520449 0.158851 0.231387 0.099639
H10   H     H_    0.479551 0.841149 0.768613 0.099639
H11   H     H_    0.479551 0.158851 0.768613 0.099639
H12   H     H_    0.695948 0.841928 0.232933 0.090384
H13   H     H_    0.520449 0.841149 0.231387 0.099639
H14   H     H_    0.048146 0.602603 0.165969 0.091454
H15   H     H_    0.951854 0.397396 0.834031 0.091454
H16   H     H_    0.951854 0.602603 0.834031 0.091453
H17   H     H_    0.048146 0.397396 0.165969 0.091454
H18   H     H_    0.177000 0.141086 0.679883 0.104556
H19   H     H_    0.823000 0.858914 0.320117 0.104556
H20   H     H_    0.823000 0.141086 0.320117 0.104556
H21   H     H_    0.176999 0.858914 0.679883 0.104556
H22   H     H_    0.757750 0.776949 0.679919 0.107882
H23   H     H_    0.695948 0.158072 0.232933 0.090384
H24   H     H_    0.242250 0.223051 0.320081 0.107882
H25   H     H_    0.242250 0.776949 0.320081 0.107882
H26   H     H_    0.757750 0.223051 0.679919 0.107882
H27   H     H_    0.678132 0.858969 0.680098 0.105019
H28   H     H_    0.321868 0.141031 0.319902 0.105019
H29   H     H_    0.321868 0.858969 0.319902 0.105019
H30   H     H_    0.678132 0.141031 0.680098 0.105019
H31   H     H_    0.097546 0.223109 0.679798 0.106182
H32   H     H_    0.902454 0.776890 0.320202 0.106182
H33   H     H_    0.902454 0.223109 0.320202 0.106182
H34   H     H_    0.304052 0.841928 0.767067 0.090384
H35   H     H_    0.097546 0.776890 0.679798 0.106182
H36   H     H_    0.288204 0.715971 0.817855 0.128238
H37   H     H_    0.711796 0.284029 0.182144 0.128237
H38   H     H_    0.711796 0.715971 0.182144 0.128237
H39   H     H_    0.288204 0.284029 0.817855 0.128237
H40   H     H_    0.710760 0.379134 0.011567 0.123875
H41   H     H_    0.289240 0.620866 0.988434 0.123875
H42   H     H_    0.289240 0.379134 0.988433 0.123875
H43   H     H_    0.710760 0.620866 0.011567 0.123875
H44   H     H_    0.736892 0.097186 0.322860 0.082795
H45   H     H_    0.779520 0.603350 0.830105 0.078923
H46   H     H_    0.263107 0.902814 0.677140 0.082795
H47   H     H_    0.263107 0.097186 0.677140 0.082795
H48   H     H_    0.736892 0.902814 0.322860 0.082795
H49   H     H_    0.202205 0.660165 0.321151 0.091971
H50   H     H_    0.797795 0.339834 0.678849 0.091971
H51   H     H_    0.797795 0.660165 0.678849 0.091971
H52   H     H_    0.202205 0.339834 0.321151 0.091971
H53   H     H_    0.379480 0.722808 0.890506 0.127995
H54   H     H_    0.620520 0.277192 0.109494 0.127994
H55   H     H_    0.620520 0.722808 0.109494 0.127994
H56   H     H_    0.220480 0.396650 0.169895 0.078923
H57   H     H_    0.379480 0.277192 0.890505 0.127994
H58   H     H_    0.828863 0.323051 0.015204 0.127943
H59   H     H_    0.171136 0.676949 0.984796 0.127943
H60   H     H_    0.171136 0.323051 0.984796 0.127943
H61   H     H_    0.828863 0.676949 0.015204 0.127943
H62   H     H_    0.220480 0.603350 0.169895 0.078923
H63   H     H_    0.779520 0.396650 0.830105 0.078923
H64   H     H_    0.593816 0.098176 0.677450 0.081588
N1    N     N_R   0.388930 0.078160 0.705470 -0.046275
N2    N     N_R   0.419500 0.922160 0.443350 -0.035213
N3    N     N_R   0.419500 0.077840 0.443350 -0.035213
N4    N     N_R   0.580500 0.922160 0.556650 -0.035213
N5    N     N_R   0.080500 0.577840 0.556650 -0.040467
N6    N     N_R   0.919500 0.422160 0.443350 -0.040467
N7    N     N_R   0.919500 0.577840 0.443350 -0.040467
N8    N     N_R   0.080500 0.422160 0.556650 -0.040467
N9    N     N_R   0.626210 0.077590 0.443410 -0.035848
N10   N     N_R   0.373790 0.922410 0.556590 -0.035848
N11   N     N_R   0.373790 0.077590 0.556590 -0.035848
N12   N     N_R   0.611070 0.921840 0.294530 -0.046275
N13   N     N_R   0.626210 0.922410 0.443410 -0.035848
N14   N     N_R   0.126210 0.577590 0.443410 -0.041224
N15   N     N_R   0.873790 0.422410 0.556590 -0.041224
N16   N     N_R   0.873790 0.577590 0.556590 -0.041224
N17   N     N_R   0.126210 0.422410 0.443410 -0.041224
N18   N     N_R   0.554800 0.077270 0.294580 -0.043284
N19   N     N_R   0.445200 0.922730 0.705420 -0.043284
N20   N     N_R   0.445200 0.077270 0.705420 -0.043284
N21   N     N_R   0.554800 0.922730 0.294580 -0.043284
N22   N     N_R   0.054800 0.577270 0.294580 -0.038235
N23   N     N_R   0.611070 0.078160 0.294530 -0.046275
N24   N     N_R   0.945200 0.422730 0.705420 -0.038235
N25   N     N_R   0.945200 0.577270 0.705420 -0.038235
N26   N     N_R   0.054800 0.422730 0.294580 -0.038235
N27   N     N_R   0.388930 0.921840 0.705470 -0.046275
N28   N     N_R   0.888930 0.578160 0.705470 -0.041771
N29   N     N_R   0.111070 0.421840 0.294530 -0.041771
N30   N     N_R   0.111070 0.578160 0.294530 -0.041771
N31   N     N_R   0.888930 0.421840 0.705470 -0.041771
N32   N     N_R   0.580500 0.077840 0.556650 -0.035213
Ni1   Ni    Ni4+2 0.382710 1.000000 0.629850 0.209020
Ni2   Ni    Ni4+2 0.617290 1.000000 0.370150 0.209020
Ni3   Ni    Ni4+2 0.882710 0.500000 0.629850 0.209268
Ni4   Ni    Ni4+2 0.117290 0.500000 0.370150 0.209267
Ni5   Ni    Ni4+2 0.513020 1.000000 0.629850 0.208490
Ni6   Ni    Ni4+2 0.486980 1.000000 0.370150 0.208489
Ni7   Ni    Ni4+2 0.013020 0.500000 0.629850 0.211123
Ni8   Ni    Ni4+2 0.986980 0.500000 0.370150 0.211123

loop_
_geom_bond_atom_site_label_1
_geom_bond_atom_site_label_2
_ccdc_geom_bond_type
N24   N31   A    
C43   N26   A    
C5    H59   S    
C20   N3    A    
C64   C77   A    
C29   N11   A    
C3    C11   D    
C74   C83   A    
C39   N21   A    
C58   C87   S    
N22   N30   A    
C4    H55   S    
C79   C87   A    
C22   C58   A    
C28   N10   A    
C65   C79   A    
C4    C46   S    
C70   H26   S    
C21   C57   A    
C69   H25   S    
C76   H32   S    
N25   Ni7   S    
C31   C58   A    
N3    Ni6   S    
C26   C61   A    
C10   H36   S    
C9    C88   D    
C43   H17   S    
C6    H58   S    
C24   N6    A    
C75   C84   A    
C23   N23   A    
C56   N29   A    
C42   N25   A    
C30   C57   A    
N21   Ni6   S    
N7    N16   A    
N19   Ni5   S    
C36   C47   A    
C78   N31   A    
C68   H24   S    
C4    C13   D    
C16   H43   S    
C37   H10   S    
C18   C53   A    
C6    C15   D    
C7    H61   S    
C70   C74   A    
N8    N17   A    
C69   C73   A    
C36   H9    S    
C25   C60   A    
C18   N32   A    
C55   C81   S    
C41   C52   A    
C72   C81   A    
C45   N28   A    
C63   C80   A    
N4    Ni5   S    
N2    Ni6   S    
C34   H34   S    
N16   Ni3   S    
C67   H62   S    
C27   H44   S    
N12   Ni2   S    
C57   C80   S    
N19   N27   A    
C34   N27   A    
C8    H60   S    
C66   C85   A    
C20   C55   A    
C52   C78   A    
C88   H54   S    
C71   C80   A    
N29   Ni4   S    
N6    N15   A    
C39   H13   S    
N18   N23   A    
C26   H8    S    
C74   H30   S    
C20   H3    S    
C3    C44   S    
C73   H29   S    
C68   C84   A    
C75   H31   S    
C7    C49   S    
C12   C46   A    
C10   C14   S    
C28   C54   A    
C25   N7    A    
N24   Ni7   S    
C51   C67   A    
C29   C55   A    
C40   H14   S    
C2    C48   S    
C79   H35   S    
C64   H20   S    
C9    H37   S    
C41   H15   S    
C42   H16   S    
C56   H56   S    
C11   H39   S    
N5    Ni7   S    
C64   C83   A    
C38   C44   A    
N9    Ni2   S    
N28   Ni3   S    
C24   H6    S    
C35   H52   S    
C12   N12   A    
N26   Ni8   S    
C1    C44   A    
C66   C71   A    
C31   N14   A    
C45   C49   A    
N6    Ni8   S    
C68   C72   A    
N25   N28   A    
N15   Ni3   S    
C71   H27   S    
N12   N21   A    
C35   C61   A    
N30   Ni4   S    
C66   H22   S    
C37   C48   A    
C1    N1    A    
C65   H21   S    
C5    C14   D    
C39   C46   A    
N27   Ni1   S    
C13   H38   S    
C19   C54   A    
C7    C16   D    
C29   H47   S    
C62   C81   A    
C77   C86   A    
C25   H7    S    
C33   C60   A    
C30   H48   S    
C15   H40   S    
C35   N17   A    
C22   H5    S    
C28   H46   S    
C62   C75   A    
C13   C16   S    
C32   H50   S    
C31   H49   S    
C23   C47   A    
C63   H19   S    
C70   C86   A    
C8    C50   S    
C73   C82   A    
C54   C82   S    
C78   H63   S    
C26   N8    A    
C2    H53   S    
C72   H28   S    
C11   C17   S    
C1    H1    S    
C17   H42   S    
C36   N18   A    
N7    Ni8   S    
N2    N10   A    
N13   Ni2   S    
N8    Ni7   S    
C38   H11   S    
C61   C84   S    
C69   C87   A    
N5    N14   A    
C37   N19   A    
N10   Ni1   S    
C60   C85   S    
C27   C53   A    
C43   C50   A    
C38   N20   A    
C62   H18   S    
C22   N5    A    
N20   Ni5   S    
C40   C51   A    
C23   H23   S    
N18   Ni6   S    
C45   H45   S    
C8    C17   D    
C53   C83   S    
N11   Ni1   S    
N3    N11   A    
C47   C88   S    
N9    N32   A    
C3    H57   S    
C9    C15   S    
C59   C86   S    
C19   H2    S    
C27   N9    A    
N23   Ni2   S    
C40   N22   A    
C65   C82   A    
N1    Ni1   S    
N4    N13   A    
C33   H51   S    
C24   C59   A    
N1    N20   A    
C21   N4    A    
C50   C56   A    
C12   H12   S    
N26   N29   A    
C77   H33   S    
C42   C49   A    
C41   N24   A    
C33   N16   A    
N17   Ni4   S    
C34   C48   A    
C63   C76   A    
C32   N15   A    
C19   N2    A    
N32   Ni5   S    
C5    C51   S    
C30   N13   A    
C32   C59   A    
C6    C52   S    
C76   C85   A    
C14   H41   S    
N31   Ni3   S    
N14   Ni4   S    
C67   N30   A    
N22   Ni8   S    
C18   H64   S    
C21   H4    S    
C2    C10   D    
