data_mof_unit_4082.cif
_audit_creation_date              2012-12-11T15:21:35-0500
_audit_creation_method            fapswitch 2.2
_symmetry_space_group_name_H-M    P1
_symmetry_Int_Tables_number       1
_space_group_crystal_system       triclinic
_cell_length_a                    18.963284
_cell_length_b                    7.323402
_cell_length_c                    18.463455
_cell_angle_alpha                 90.000953
_cell_angle_beta                  107.96702
_cell_angle_gamma                 90.000196
_cell_volume                      2439.08461312

loop_
_atom_site_label
_atom_site_type_symbol
_atom_type_description
_atom_site_fract_x
_atom_site_fract_y
_atom_site_fract_z
_atom_type_partial_charge
O1    O     O_R   0.562310 0.505770 0.439670 -0.535650
O2    O     O_R   0.437690 0.005770 0.560330 -0.535659
O3    O     O_R   0.411650 0.169150 0.405330 -0.503608
O4    O     O_R   0.588350 0.669150 0.594670 -0.503605
C1    C     C_R   0.386339 0.347694 0.381097 0.695891
C2    C     C_R   0.613659 0.847697 0.618905 0.695876
O5    O     O_R   0.560140 0.175610 0.430010 -0.529446
O6    O     O_R   0.439860 0.675610 0.569990 -0.529446
O7    O     O_R   0.587240 0.012100 0.585200 -0.552230
O8    O     O_R   0.412760 0.512100 0.414800 -0.552233
C3    C     C_R   0.581187 0.344959 0.415170 0.675849
C4    C     C_R   0.418809 0.844961 0.584827 0.675839
O9    O     O_3   0.508720 0.341420 0.550890 -0.380081
O10   O     O_3   0.491280 0.841420 0.449110 -0.380072
V1    V     V_3+5 0.498380 0.063930 0.490560 1.556974
V2    V     V_3+5 0.501620 0.563930 0.509440 1.556974
C5    C     C_R   0.210323 0.996274 0.900842 0.346892
C6    C     C_R   0.789703 0.496383 0.099196 0.346945
C7    C     C_R   0.138030 0.916204 0.874640 -0.201492
C8    C     C_R   0.861971 0.416175 0.125358 -0.201458
C9    C     C_R   0.119440 0.816933 0.806420 -0.099959
C10   C     C_R   0.880525 0.316711 0.193528 -0.100074
C11   C     C_R   0.159233 0.845605 0.754834 0.038543
C12   C     C_R   0.840743 0.345305 0.245130 0.038575
C13   C     C_R   0.233101 0.907014 0.782206 -0.061758
C14   C     C_R   0.766903 0.406909 0.217797 -0.061718
C15   C     C_R   0.261173 0.969716 0.858102 -0.012389
C16   C     C_R   0.738851 0.469807 0.141930 -0.012365
C17   C     C_R   0.125910 0.815658 0.676712 0.334271
C18   C     C_R   0.874053 0.315095 0.323233 0.334142
C19   C     C_R   0.167568 0.845355 0.626614 -0.159573
C20   C     C_R   0.832422 0.344784 0.373356 -0.159564
C21   C     C_R   0.246652 0.860819 0.655840 -0.002014
C22   C     C_R   0.753345 0.360523 0.344151 -0.001998
C23   C     C_R   0.279005 0.897090 0.734276 -0.043362
C24   C     C_R   0.721001 0.396981 0.265730 -0.043402
C25   C     C_R   0.356605 0.921802 0.764911 0.008770
C26   C     C_R   0.643413 0.421899 0.235112 0.008881
C27   C     C_R   0.385973 0.969303 0.843392 0.316158
C28   C     C_R   0.614059 0.469601 0.156656 0.316110
C29   C     C_R   0.338708 0.001968 0.888055 -0.137576
C30   C     C_R   0.661329 0.502224 0.111997 -0.137594
C31   C     C_R   0.293783 0.838192 0.609682 -0.129319
C32   C     C_R   0.706208 0.338028 0.390311 -0.129337
C33   C     C_R   0.371287 0.858887 0.637999 -0.205886
C34   C     C_R   0.628712 0.358865 0.362001 -0.205925
C35   C     C_R   0.402573 0.900035 0.716752 0.360813
C36   C     C_R   0.597437 0.400101 0.283259 0.360927
C37   C     C_3   0.752542 0.780611 0.833740 0.114334
C38   C     C_3   0.247450 0.280603 0.166268 0.114409
C39   C     C_3   0.685433 0.737389 0.758152 0.492918
C40   C     C_3   0.314564 0.237385 0.241852 0.492883
C41   C     C_3   0.832448 0.849881 0.742781 -0.197001
C42   C     C_3   0.167546 0.349870 0.257228 -0.197012
C43   C     C_3   0.769470 0.111710 0.793026 0.129858
C44   C     C_3   0.230524 0.611706 0.206986 0.129822
C45   C     C_3   0.811163 0.919173 0.815528 -0.212911
C46   C     C_3   0.188830 0.419169 0.184481 -0.212990
C47   C     C_3   0.684992 0.875621 0.692362 -0.108565
C48   C     C_3   0.315004 0.375615 0.307644 -0.108572
C49   C     C_3   0.759186 0.847465 0.669402 0.128891
C50   C     C_3   0.240810 0.347450 0.330606 0.128889
C51   C     C_3   0.690324 0.079276 0.729532 -0.233595
C52   C     C_3   0.309671 0.579272 0.270477 -0.233595
O11   O     O_R   0.087220 0.271820 0.085230 -0.519153
O12   O     O_R   0.912780 0.771820 0.914770 -0.519174
O13   O     O_R   0.939860 0.595540 0.069990 -0.532571
O14   O     O_R   0.060140 0.095540 0.930010 -0.532603
C53   C     C_R   0.916478 0.426697 0.081389 0.694855
C54   C     C_R   0.083523 0.926700 0.918611 0.694902
O15   O     O_R   0.088340 0.601930 0.094680 -0.555147
O16   O     O_R   0.911660 0.101930 0.905320 -0.555146
O17   O     O_R   0.062310 0.765410 0.939660 -0.538463
O18   O     O_R   0.937690 0.265410 0.060340 -0.538490
C55   C     C_R   0.116804 0.433099 0.114966 0.684121
C56   C     C_R   0.883191 0.933100 0.885040 0.684161
O19   O     O_3   0.991270 0.429630 0.949130 -0.375163
O20   O     O_3   0.008730 0.929630 0.050870 -0.375132
V3    V     V_3+5 0.001620 0.707150 0.009440 1.534726
V4    V     V_3+5 0.998380 0.207150 0.990560 1.534674
O21   O     O_3   0.233845 0.092836 0.968175 -0.628166
H1    H     H_    0.193486 0.103727 0.991018 0.327922
O22   O     O_3   0.766208 0.593129 0.031910 -0.628204
H2    H     H_    0.806528 0.603762 0.008999 0.327932
C57   C     C_1   0.722764 0.855450 0.892981 0.411475
N1    N     N_1   0.698918 0.911386 0.939276 -0.267759
C58   C     C_1   0.277223 0.355432 0.107021 0.411381
N2    N     N_1   0.301066 0.411351 0.060722 -0.267931
O23   O     O_3   0.615916 0.746753 0.771234 -0.649831
H3    H     H_    0.614561 0.655568 0.810592 0.323490
O24   O     O_3   0.384079 0.246755 0.228766 -0.649850
H4    H     H_    0.385423 0.155601 0.189392 0.323510
O25   O     O_3   0.693301 0.561906 0.732617 -0.646680
H5    H     H_    0.681469 0.474563 0.768164 0.299971
O26   O     O_3   0.306701 0.061900 0.267388 -0.646677
H6    H     H_    0.318538 0.974559 0.231841 0.299984
C59   C     C_1   0.869678 0.671688 0.754815 0.308293
N3    N     N_1   0.900237 0.533726 0.761936 -0.274675
C60   C     C_1   0.130312 0.171679 0.245184 0.308410
N4    N     N_1   0.099748 0.033722 0.238051 -0.274678
C61   C     C_1   0.756410 0.684106 0.622725 0.507871
N5    N     N_1   0.756899 0.562300 0.583533 -0.311113
C62   C     C_1   0.243583 0.184081 0.377275 0.507899
N6    N     N_1   0.243086 0.062262 0.416458 -0.311092
O27   O     O_3   0.810809 0.230976 0.761938 -0.646835
H7    H     H_    0.858522 0.258462 0.800165 0.339446
O28   O     O_3   0.189191 0.730987 0.238079 -0.646841
H8    H     H_    0.141442 0.758319 0.199882 0.339458
C63   C     C_1   0.762553 0.206642 0.862329 0.280276
N7    N     N_1   0.757242 0.277965 0.916365 -0.290987
C64   C     C_1   0.237437 0.706631 0.137683 0.280412
N8    N     N_1   0.242747 0.777945 0.083647 -0.290858
C65   C     C_1   0.629283 0.119305 0.761408 0.270447
N9    N     N_1   0.584046 0.160707 0.788332 -0.216765
C66   C     C_1   0.370709 0.619305 0.238598 0.270437
N10   N     N_1   0.415943 0.660713 0.211672 -0.216662
C67   C     C_1   0.678353 0.220462 0.669968 0.518067
N11   N     N_1   0.666667 0.324511 0.620683 -0.249025
C68   C     C_1   0.321643 0.720459 0.330042 0.518092
N12   N     N_1   0.333333 0.824507 0.379330 -0.249071
C69   C     C_1   0.893484 0.961861 0.730757 0.373197
N13   N     N_1   0.941142 0.048188 0.721467 -0.258254
C70   C     C_1   0.106513 0.461841 0.269260 0.373098
N14   N     N_1   0.058856 0.548156 0.278559 -0.258386
C71   C     C_1   0.078017 0.649006 0.799670 0.420827
N15   N     N_1   0.048302 0.509748 0.795041 -0.271581
C72   C     C_1   0.921943 0.148792 0.200220 0.421052
N16   N     N_1   0.951661 0.009550 0.204801 -0.271580
O29   O     O_3   0.761801 0.982316 0.617329 -0.642858
H9    H     H_    0.786684 0.091432 0.644201 0.366424
O30   O     O_3   0.238199 0.482300 0.382685 -0.642846
H10   H     H_    0.213319 0.591421 0.355816 0.366410
O31   O     O_3   0.050698 0.777456 0.650492 -0.621903
H11   H     H_    0.038107 0.722246 0.599105 0.315724
O32   O     O_3   0.949245 0.276671 0.349427 -0.621916
H12   H     H_    0.961800 0.221225 0.400765 0.315792
C73   C     C_1   0.126559 0.885537 0.547865 0.355418
N17   N     N_1   0.093223 0.918590 0.485335 -0.272975
C74   C     C_1   0.873478 0.384663 0.452121 0.355359
N18   N     N_1   0.906855 0.417475 0.514663 -0.272797
C75   C     C_1   0.262090 0.774913 0.534399 0.385148
N19   N     N_1   0.232182 0.725447 0.473989 -0.262924
C76   C     C_1   0.737879 0.274862 0.465610 0.385137
N20   N     N_1   0.767764 0.225495 0.526039 -0.262904
O33   O     O_3   0.477975 0.914783 0.748677 -0.599739
H13   H     H_    0.502586 0.904808 0.709013 0.311173
O34   O     O_3   0.522037 0.414881 0.251327 -0.599723
H14   H     H_    0.497417 0.404790 0.290979 0.311173
O35   O     O_3   0.461147 0.986442 0.878258 -0.590805
H15   H     H_    0.482267 0.862766 0.877572 0.349845
O36   O     O_3   0.538894 0.487038 0.121820 -0.590791
H16   H     H_    0.517720 0.363372 0.122365 0.349793
C77   C     C_1   0.373480 0.049937 0.967219 0.556823
N21   N     N_1   0.401722 0.087523 0.030453 -0.301278
C78   C     C_1   0.626565 0.550303 0.032847 0.556740
N22   N     N_1   0.598328 0.587974 0.969623 -0.301323
O37   O     O_3   0.787070 0.619220 0.868396 -0.641303
H17   H     H_    0.802637 0.543618 0.832309 0.336558
O38   O     O_3   0.212921 0.119208 0.131614 -0.641269
H18   H     H_    0.197368 0.043595 0.167708 0.336594

loop_
_geom_bond_atom_site_label_1
_geom_bond_atom_site_label_2
_ccdc_geom_bond_type
O14   V4    S    
C17   O31   S    
C42   C70   S    
C35   O33   S    
O25   H5    S    
O26   H6    S    
O27   H7    S    
C64   N8    T    
O1    C3    A    
O16   C56   A    
O2    C4    A    
C2    O7    A    
O15   V3    S    
C59   N3    T    
O32   H12   S    
C27   C29   A    
C57   N1    T    
O5    C3    A    
O12   V3    S    
O37   H17   S    
C52   C68   S    
C43   O27   S    
O22   H2    S    
C11   C17   A    
C45   C56   S    
C23   C25   A    
C12   C14   A    
C65   N9    T    
C51   C67   S    
C76   N20   T    
C66   N10   T    
C36   O34   S    
C37   C45   S    
C40   O26   S    
C48   C50   S    
C40   C48   S    
C5    C7    A    
C41   C49   S    
O34   H14   S    
C37   C39   S    
C43   C51   S    
C40   O24   S    
C38   C40   S    
O36   H16   S    
C44   C52   S    
C25   C35   A    
C5    O21   S    
C44   C64   S    
C26   C36   A    
C49   O29   S    
C28   C30   A    
O6    V2    S    
O11   V4    S    
O18   V4    S    
C43   C63   S    
C37   O37   S    
C75   N19   T    
C2    C47   S    
C32   C34   A    
C46   C55   S    
O33   H13   S    
C29   C77   S    
C33   C35   A    
C34   C36   A    
O15   C55   A    
C47   C49   S    
C5    C15   A    
C61   N5    T    
C37   C57   S    
C70   N14   T    
C6    C16   A    
C20   C74   S    
O4    C2    A    
O24   H4    S    
C41   C45   S    
O20   V3    S    
O5    V1    S    
C42   C50   S    
C41   C59   S    
O21   H1    S    
O16   V4    S    
C28   O36   S    
O13   C53   A    
C21   C31   A    
O4    V2    S    
C49   C61   S    
C44   O28   S    
C18   C20   A    
C15   C29   A    
O38   H18   S    
O6    C4    A    
O12   C56   A    
C54   O17   A    
C19   C21   A    
C6    O22   S    
O17   V3    S    
C38   C46   S    
C22   C32   A    
C53   O18   A    
O1    V2    S    
C68   N12   T    
O2    V1    S    
C31   C33   A    
C69   N13   T    
C38   C58   S    
C13   C23   A    
C14   C24   A    
C39   O25   S    
C43   C45   S    
O31   H11   S    
C10   C12   A    
C8    C53   S    
C31   C75   S    
C19   C73   S    
O28   H8    S    
C9    C71   S    
C72   N16   T    
O3    C1    A    
C62   N6    T    
O3    V1    S    
O29   H9    S    
C42   C46   S    
O19   V4    S    
C1    C48   S    
C7    C9    A    
C14   C16   A    
C50   O30   S    
C8    C10   A    
C4    C33   S    
C7    C54   S    
C50   C62   S    
C74   N18   T    
C38   O38   S    
C13   C15   A    
C73   N17   T    
C27   O35   S    
C47   C51   S    
O11   C55   A    
C60   N4    T    
C48   C52   S    
C9    C11   A    
C30   C78   S    
O7    V1    S    
C1    O8    A    
C25   C27   A    
O8    V2    S    
C67   N11   T    
C39   O23   S    
C24   C26   A    
C26   C28   A    
C10   C72   S    
C71   N15   T    
C32   C76   S    
C16   C30   A    
C21   C23   A    
C22   C24   A    
C44   C46   S    
C6    C8    A    
C11   C13   A    
C42   C60   S    
C12   C18   A    
C51   C65   S    
C39   C47   S    
C58   N2    T    
C17   C19   A    
C18   O32   S    
O9    V2    S    
C63   N7    T    
C78   N22   T    
C52   C66   S    
O14   C54   A    
O10   V1    S    
C3    C34   S    
C41   C69   S    
O23   H3    S    
O35   H15   S    
O13   V3    S    
O30   H10   S    
C20   C22   A    
C77   N21   T    
