data_mof_unit_1160.cif
_audit_creation_date              2012-12-11T14:46:04-0500
_audit_creation_method            fapswitch 2.2
_symmetry_space_group_name_H-M    P1
_symmetry_Int_Tables_number       1
_space_group_crystal_system       triclinic
_cell_length_a                    10.896745
_cell_length_b                    10.92035
_cell_length_c                    18.751814
_cell_angle_alpha                 89.675667
_cell_angle_beta                  90.400188
_cell_angle_gamma                 119.794715
_cell_volume                      1936.3771628

loop_
_atom_site_label
_atom_site_type_symbol
_atom_type_description
_atom_site_fract_x
_atom_site_fract_y
_atom_site_fract_z
_atom_type_partial_charge
C1    C     C_R   0.864734 0.637781 0.603697 0.538190
C2    C     C_R   0.425984 0.663274 0.775062 -0.125803
C3    C     C_R   0.382637 0.634715 0.705225 -0.103918
C4    C     C_R   0.257250 0.629926 0.684133 0.028748
C5    C     C_R   0.830838 0.151314 0.817237 -0.007059
C6    C     C_R   0.091843 0.260292 0.824503 0.245282
C7    C     C_R   0.217875 0.285904 0.793139 -0.105230
C8    C     C_R   0.219589 0.246213 0.723267 -0.153544
C9    C     C_R   0.097634 0.189726 0.681118 0.089875
C10   C     C_R   0.968565 0.172515 0.710051 -0.039342
C11   C     C_R   0.963195 0.193003 0.784978 -0.026731
C12   C     C_R   0.210134 0.595514 0.611087 0.549668
C13   C     C_R   0.714432 0.081856 0.700240 0.000338
C14   C     C_R   0.710064 0.114431 0.772256 -0.020326
C15   C     C_R   0.587208 0.008900 0.660334 0.115085
C16   C     C_R   0.462010 0.994531 0.687507 -0.081971
C17   C     C_R   0.462367 0.051415 0.753602 -0.156132
C18   C     C_R   0.584574 0.111042 0.795587 -0.088004
C19   C     C_R   0.846107 0.138358 0.667503 -0.004092
C20   C     C_R   0.723047 0.544841 0.714247 -0.147934
C21   C     C_R   0.705976 0.565456 0.785875 -0.143445
C22   C     C_R   0.781837 0.701591 0.815091 0.016348
C23   C     C_R   0.862513 0.221539 0.601517 0.574648
C24   C     C_R   0.866518 0.816678 0.771692 -0.147604
C25   C     C_R   0.882510 0.796053 0.700708 -0.125409
C26   C     C_R   0.815997 0.660194 0.672003 0.024015
C27   C     C_R   0.239115 0.541644 0.275932 -0.138927
C28   C     C_R   0.259284 0.558457 0.203510 -0.116060
C29   C     C_R   0.347021 0.692652 0.175831 0.021221
C30   C     C_R   0.408739 0.811315 0.220644 -0.082548
C31   C     C_R   0.383686 0.795483 0.293433 0.103316
C32   C     C_R   0.303614 0.659107 0.321378 0.035571
C33   C     C_R   0.789965 0.256347 0.274119 -0.113857
C34   C     C_R   0.868145 0.639660 0.396241 0.564048
C35   C     C_R   0.790029 0.240548 0.201352 -0.127060
C36   C     C_R   0.853820 0.168687 0.172437 0.009646
C37   C     C_R   0.930671 0.125701 0.216455 -0.124389
C38   C     C_R   0.932884 0.144396 0.289807 -0.131607
C39   C     C_R   0.857029 0.204080 0.318847 0.021884
C40   C     C_R   0.955243 0.759484 0.279730 0.225529
C41   C     C_R   0.953085 0.740155 0.206852 0.089561
C42   C     C_R   0.823155 0.647702 0.173312 -0.018688
C43   C     C_R   0.707989 0.548297 0.214774 0.030870
C44   C     C_R   0.720365 0.552691 0.288527 -0.176011
C45   C     C_R   0.268888 0.632748 0.395828 0.577671
C46   C     C_R   0.842013 0.658044 0.321712 -0.019679
C47   C     C_R   0.803736 0.100605 0.893006 0.594080
C48   C     C_R   0.391199 0.699881 0.897875 0.566258
C49   C     C_R   0.773786 0.728903 0.890000 0.538101
C50   C     C_R   0.809867 0.108530 0.101947 0.565564
C51   C     C_R   0.396901 0.705408 0.103872 0.568552
C52   C     C_R   0.799900 0.690467 0.103024 0.575577
C53   C     C_R   0.864296 0.234822 0.394083 0.570010
C54   C     C_R   0.177495 0.658008 0.733176 -0.146430
C55   C     C_R   0.221208 0.685649 0.804267 -0.108381
C56   C     C_R   0.344319 0.685087 0.824931 0.060860
Cr1   Cr    Cr6+3 0.791660 0.390250 0.499930 1.063875
Cr2   Cr    Cr6+3 0.098520 0.708290 0.500540 1.116775
Cr3   Cr    Cr6+3 0.109770 0.401430 0.499480 1.078927
Cr4   Cr    Cr6+3 0.874790 0.925890 0.000070 1.089138
Cr5   Cr    Cr6+3 0.574120 0.948670 0.999300 1.050847
Cr6   Cr    Cr6+3 0.551420 0.625320 0.000920 1.084697
H1    H     H_    0.080776 0.655371 0.716752 0.119995
H2    H     H_    0.365285 0.942838 0.656563 0.161909
H3    H     H_    0.367101 0.047589 0.772913 0.121632
H4    H     H_    0.670738 0.438369 0.693349 0.143037
H5    H     H_    0.637759 0.475101 0.818586 0.133577
H6    H     H_    0.923921 0.922167 0.793427 0.134010
H7    H     H_    0.953767 0.885465 0.669443 0.168915
H8    H     H_    0.171614 0.436121 0.296438 0.154637
H9    H     H_    0.211596 0.466134 0.169494 0.165003
H10   H     H_    0.478552 0.915701 0.199393 0.168091
H11   H     H_    0.158247 0.703400 0.842869 0.140632
H12   H     H_    0.736380 0.308791 0.295537 0.161959
H13   H     H_    0.732231 0.276059 0.168054 0.169595
H14   H     H_    0.980837 0.069689 0.194962 0.187584
H15   H     H_    0.990295 0.109782 0.323925 0.195550
H16   H     H_    0.634945 0.472595 0.320076 0.174611
H17   H     H_    0.522557 0.665965 0.790832 0.115062
H18   H     H_    0.447135 0.616310 0.667855 0.161226
H19   H     H_    0.315819 0.336757 0.823297 0.151949
H20   H     H_    0.317791 0.260943 0.701446 0.134010
H21   H     H_    0.580252 0.160633 0.844388 0.156722
O1    O     O_R   0.766500 0.250040 0.579790 -0.490708
O2    O     O_R   0.218690 0.701900 0.425960 -0.445406
O3    O     O_R   0.249490 0.516440 0.419420 -0.509638
O4    O     O_R   0.982880 0.281910 0.424890 -0.496298
O5    O     O_3   0.999980 0.499990 0.499980 -0.304549
O6    O     O_R   0.895110 0.806860 0.920430 -0.500779
O7    O     O_R   0.872260 0.046970 0.925000 -0.472440
O8    O     O_R   0.691430 0.085060 0.918550 -0.528491
O9    O     O_R   0.451490 0.822460 0.925250 -0.512042
O10   O     O_R   0.413330 0.603360 0.920440 -0.479747
O11   O     O_R   0.676110 0.626250 0.926750 -0.506646
O12   O     O_R   0.798570 0.516780 0.574780 -0.505982
O13   O     O_R   0.895350 0.809870 0.080950 -0.485070
O14   O     O_R   0.872490 0.049760 0.073800 -0.481818
O15   O     O_R   0.691680 0.088070 0.079070 -0.507890
O16   O     O_R   0.451720 0.825250 0.074050 -0.494094
O17   O     O_R   0.413580 0.606370 0.080960 -0.477317
O18   O     O_R   0.676340 0.629040 0.075550 -0.466907
O19   O     O_3   0.666780 0.833290 0.000090 -0.299718
O20   O     O_R   0.984000 0.732950 0.581090 -0.511915
O21   O     O_R   0.218600 0.700890 0.574760 -0.484833
O22   O     O_R   0.249390 0.515350 0.579940 -0.492559
O23   O     O_R   0.982790 0.280900 0.573700 -0.488360
O24   O     O_R   0.766600 0.251130 0.419260 -0.482457
O25   O     O_R   0.798660 0.517790 0.425980 -0.516542
O26   O     O_R   0.984100 0.734040 0.420570 -0.427030
I1    I     I_    0.577014 0.909490 0.561285 -0.286937
I2    I     I_    0.471127 0.979081 0.357262 -0.204891
Cl1   Cl    Cl    0.099259 0.916933 0.314759 -0.532365
I3    I     I_    0.149674 0.858942 0.149429 -0.245205
I4    I     I_    0.513206 0.382958 0.173497 -0.298828
Cl2   Cl    Cl    0.106660 0.335284 0.909523 -0.591792
I5    I     I_    0.122849 0.113015 0.580120 -0.295044

loop_
_geom_bond_atom_site_label_1
_geom_bond_atom_site_label_2
_ccdc_geom_bond_type
C55   C56   A    
Cr2   O26   S    
C41   C42   A    
C14   C18   A    
C19   C23   S    
C35   C36   A    
C7    C8    A    
C40   Cl1   S    
C39   C53   S    
Cr4   O6    S    
C40   C46   A    
C5    C47   S    
C35   H13   S    
C33   C39   A    
C8    H20   S    
C20   H4    S    
C28   C29   A    
C10   C19   A    
C5    C11   A    
C43   I4    S    
C12   O22   A    
C54   H1    S    
C15   C16   A    
C32   C45   S    
Cr3   O5    S    
C2    H17   S    
Cr5   O15   S    
C8    C9    A    
C52   O13   A    
C34   C46   S    
C49   O11   A    
C4    C12   S    
C29   C30   A    
C9    C10   A    
C1    O20   A    
Cr5   O9    S    
Cr6   O18   S    
C21   C22   A    
C21   H5    S    
C15   I1    S    
Cr5   O16   S    
Cr4   O19   S    
C3    H18   S    
C44   C46   A    
C17   C18   A    
C51   O16   A    
C52   O18   A    
C50   O15   A    
Cr3   O23   S    
C48   O10   A    
C13   C19   A    
C24   C25   A    
Cr4   O14   S    
C23   O1    A    
C49   O6    A    
C6    C11   A    
C16   C17   A    
C25   C26   A    
C23   O23   A    
C45   O2    A    
C43   C44   A    
C37   C38   A    
C53   O24   A    
C31   C32   A    
C30   C31   A    
C1    O12   A    
C18   H21   S    
Cr1   O1    S    
C53   O4    A    
Cr3   O22   S    
C5    C14   A    
C27   H8    S    
C22   C49   S    
Cr6   O17   S    
Cr4   O13   S    
C40   C41   A    
C7    H19   S    
C37   H14   S    
C13   C15   A    
C48   O9    A    
C1    C26   S    
C47   O7    A    
C22   C24   A    
C28   H9    S    
Cr2   O21   S    
C42   C43   A    
C3    C4    A    
Cr2   O2    S    
C36   C50   S    
C29   C51   S    
C51   O17   A    
C48   C56   S    
C54   C55   A    
C36   C37   A    
C50   O14   A    
C4    C54   A    
C27   C32   A    
C9    I5    S    
C47   O8    A    
C41   I3    S    
Cr2   O5    S    
C30   H10   S    
C12   O21   A    
C6    C7    A    
C38   H15   S    
Cr4   O7    S    
C17   H3    S    
Cr1   O5    S    
C34   O25   A    
Cr6   O11   S    
C45   O3    A    
Cr3   O3    S    
C2    C56   A    
C38   C39   A    
C20   C26   A    
C44   H16   S    
C33   C35   A    
C2    C3    A    
Cr3   O4    S    
C6    Cl2   S    
C10   C11   A    
C24   H6    S    
C55   H11   S    
C33   H12   S    
Cr1   O25   S    
C25   H7    S    
C20   C21   A    
Cr1   O12   S    
Cr6   O10   S    
C27   C28   A    
Cr1   O24   S    
C34   O26   A    
C31   I2    S    
Cr2   O20   S    
C16   H2    S    
C13   C14   A    
Cr5   O19   S    
Cr5   O8    S    
C42   C52   S    
Cr6   O19   S    
