data_mof_unit_4878.cif
_audit_creation_date              2012-12-11T14:14:23-0500
_audit_creation_method            fapswitch 2.2
_symmetry_space_group_name_H-M    P1
_symmetry_Int_Tables_number       1
_space_group_crystal_system       triclinic
_cell_length_a                    17.047542
_cell_length_b                    7.252091
_cell_length_c                    17.069756
_cell_angle_alpha                 89.997537
_cell_angle_beta                  99.352295
_cell_angle_gamma                 90.00175
_cell_volume                      2082.28845369

loop_
_atom_site_label
_atom_site_type_symbol
_atom_type_description
_atom_site_fract_x
_atom_site_fract_y
_atom_site_fract_z
_atom_type_partial_charge
O1    O     O_R   0.414560 0.494370 0.416770 -0.532250
O2    O     O_R   0.585440 0.994370 0.583230 -0.532234
O3    O     O_R   0.578370 0.819590 0.429320 -0.536454
O4    O     O_R   0.421630 0.319590 0.570680 -0.536451
C1    C     C_R   0.603890 0.654619 0.412817 0.699135
C2    C     C_R   0.396111 0.154612 0.587182 0.699121
O5    O     O_R   0.414740 0.823790 0.407360 -0.536508
O6    O     O_R   0.585260 0.323790 0.592640 -0.536497
O7    O     O_R   0.420650 0.998510 0.561120 -0.546076
O8    O     O_R   0.579350 0.498510 0.438880 -0.546064
C3    C     C_R   0.387304 0.656286 0.387122 0.723087
C4    C     C_R   0.612694 0.156284 0.612881 0.723067
O9    O     O_3   0.502130 0.662240 0.550470 -0.376781
O10   O     O_3   0.497870 0.162240 0.449530 -0.376788
V1    V     V_3+5 0.499600 0.935390 0.490640 1.428924
V2    V     V_3+5 0.500400 0.435390 0.509360 1.428935
C5    C     C_2   0.760133 0.232004 0.807906 -0.060454
C6    C     C_2   0.239840 0.732130 0.192118 -0.060472
C7    C     C_2   0.819455 0.102860 0.817715 -0.253620
C8    C     C_2   0.180561 0.602872 0.182275 -0.253751
C9    C     C_2   0.688290 0.226562 0.744316 -0.164243
C10   C     C_2   0.311675 0.726764 0.255720 -0.164351
C11   C     C_2   0.685371 0.151442 0.671915 -0.239469
C12   C     C_2   0.314623 0.651445 0.328092 -0.239427
H1    H     H_    0.635241 0.294861 0.756992 0.132929
H2    H     H_    0.364701 0.795251 0.243074 0.132927
H3    H     H_    0.737151 0.090544 0.653090 0.125451
H4    H     H_    0.262865 0.590350 0.346899 0.125448
C13   C     C_R   0.334812 0.138341 0.640254 -0.108671
C14   C     C_R   0.665191 0.638366 0.359747 -0.108651
C15   C     C_R   0.170981 0.133188 0.867324 -0.123880
C16   C     C_R   0.829008 0.633154 0.132662 -0.123862
C17   C     C_R   0.281527 0.313078 0.831789 -0.216545
C18   C     C_R   0.718407 0.812913 0.168144 -0.216524
C19   C     C_R   0.228669 0.275574 0.884544 -0.034204
C20   C     C_R   0.771265 0.775409 0.115385 -0.034266
C21   C     C_R   0.170974 0.027304 0.798150 -0.203359
C22   C     C_R   0.829050 0.527370 0.201873 -0.203668
C23   C     C_R   0.225242 0.065039 0.745665 0.145945
C24   C     C_R   0.774771 0.565084 0.254347 0.146044
C25   C     C_R   0.281193 0.209774 0.762199 0.094897
C26   C     C_R   0.718785 0.709726 0.237776 0.094842
C27   C     C_R   0.336422 0.246749 0.709661 -0.061444
C28   C     C_R   0.663560 0.746717 0.290317 -0.061471
C29   C     C_R   0.277625 0.997305 0.624641 -0.193590
C30   C     C_R   0.722400 0.497391 0.375386 -0.193579
C31   C     C_R   0.223817 0.961089 0.676374 -0.172044
C32   C     C_R   0.776220 0.461201 0.323663 -0.172061
H5    H     H_    0.275343 0.911802 0.572270 0.130331
H6    H     H_    0.724696 0.411927 0.427772 0.130325
H7    H     H_    0.324090 0.423485 0.846654 0.166098
H8    H     H_    0.675799 0.923212 0.153248 0.166299
H9    H     H_    0.181359 0.849970 0.662368 0.127417
H10   H     H_    0.818703 0.350144 0.337695 0.127409
H11   H     H_    0.126824 0.919750 0.783670 0.136154
H12   H     H_    0.873234 0.419904 0.216386 0.136076
O11   O     O_R   0.920750 0.773600 0.061260 -0.538117
O12   O     O_R   0.079250 0.273600 0.938740 -0.538170
O13   O     O_R   0.085340 0.439850 0.092570 -0.517532
O14   O     O_R   0.914660 0.939850 0.907430 -0.517514
C33   C     C_R   0.112436 0.607108 0.114569 0.689187
C34   C     C_R   0.887569 0.107107 0.885428 0.689115
O15   O     O_R   0.921720 0.444130 0.070790 -0.535497
O16   O     O_R   0.078280 0.944130 0.929210 -0.535372
O17   O     O_R   0.914480 0.269530 0.916840 -0.525875
O18   O     O_R   0.085520 0.769530 0.083160 -0.525868
C35   C     C_R   0.894671 0.613526 0.084696 0.728828
C36   C     C_R   0.105328 0.113534 0.915302 0.728599
O19   O     O_3   0.997840 0.601520 0.949550 -0.371331
O20   O     O_3   0.002160 0.101520 0.050450 -0.371421
V3    V     V_3+5 0.000400 0.328340 0.009360 1.600727
V4    V     V_3+5 0.999600 0.828340 0.990640 1.600881
C37   C     C_2   0.758574 0.378267 0.867579 0.804279
O21   O     O_2   0.795751 0.520733 0.863096 -0.522153
O22   O     O_R   0.714629 0.351735 0.928933 -0.652986
H13   H     H_    0.718791 0.459277 0.967212 0.317302
C38   C     C_2   0.241381 0.878393 0.132443 0.804291
O23   O     O_2   0.204230 0.020870 0.136942 -0.522164
O24   O     O_R   0.285224 0.851775 0.071027 -0.653056
H14   H     H_    0.281043 0.959282 0.032733 0.317433
C39   C     C_2   0.812513 0.929855 0.769907 0.821415
O25   O     O_2   0.869793 0.873511 0.742130 -0.558030
O26   O     O_R   0.741741 0.828423 0.759347 -0.649567
H15   H     H_    0.744279 0.714951 0.725158 0.307149
C40   C     C_2   0.187562 0.429785 0.230037 0.821560
O27   O     O_2   0.130299 0.373239 0.257793 -0.557977
O28   O     O_R   0.258373 0.328497 0.240571 -0.649565
H16   H     H_    0.255875 0.214944 0.274721 0.307171
C41   C     C_R   0.398749 0.388889 0.730977 0.071883
C42   C     C_R   0.386859 0.569437 0.701789 -0.063150
C43   C     C_R   0.442364 0.707210 0.728171 -0.081377
C44   C     C_R   0.509192 0.666349 0.784336 -0.092515
C45   C     C_R   0.520645 0.487533 0.814353 -0.123279
C46   C     C_R   0.466149 0.348434 0.787258 -0.165747
H17   H     H_    0.334328 0.603406 0.659563 0.099100
H18   H     H_    0.433279 0.846303 0.706101 0.115583
H19   H     H_    0.551684 0.773603 0.805135 0.135624
H20   H     H_    0.571572 0.456943 0.858949 0.157216
H21   H     H_    0.475251 0.210624 0.811527 0.122294
C47   C     C_R   0.601233 0.888851 0.268999 0.071862
C48   C     C_R   0.613128 0.069400 0.298179 -0.063117
C49   C     C_R   0.557628 0.207175 0.271794 -0.081415
C50   C     C_R   0.490797 0.166316 0.215631 -0.092494
C51   C     C_R   0.479339 0.987499 0.185621 -0.123245
C52   C     C_R   0.533829 0.848396 0.212723 -0.165778
H22   H     H_    0.665661 0.103372 0.340401 0.099117
H23   H     H_    0.566718 0.346268 0.293860 0.115574
H24   H     H_    0.448309 0.273571 0.194829 0.135676
H25   H     H_    0.428409 0.956909 0.141029 0.157162
H26   H     H_    0.524721 0.710584 0.188462 0.122278
C53   C     C_2   0.238291 0.385243 0.958740 0.758660
O29   O     O_2   0.253733 0.549834 0.957215 -0.545125
O30   O     O_R   0.233394 0.299206 0.030828 -0.653088
H27   H     H_    0.248419 0.384845 0.077649 0.315495
C54   C     C_2   0.761560 0.884875 0.041124 0.758483
O31   O     O_2   0.745697 0.049217 0.042486 -0.545113
O32   O     O_R   0.766813 0.798863 0.969141 -0.653029
H28   H     H_    0.751647 0.884231 0.922247 0.315574

loop_
_geom_bond_atom_site_label_1
_geom_bond_atom_site_label_2
_ccdc_geom_bond_type
C52   H26   S    
C45   C46   A    
C25   C27   A    
C37   O21   D    
C53   O29   D    
O1    C3    A    
O28   H16   S    
O2    C4    A    
C2    O7    A    
C39   O25   D    
C19   C53   S    
C42   H17   S    
C23   C25   A    
C40   O27   D    
C32   H10   S    
C4    C11   S    
C47   C52   A    
C27   C41   S    
C16   C20   A    
C1    C14   S    
C51   H25   S    
O12   V3    S    
O14   V4    S    
C7    C34   S    
C54   O31   D    
C3    C12   S    
C41   C46   A    
O14   C34   A    
C29   C31   A    
C8    C33   S    
C44   C45   A    
C17   C19   A    
C43   H18   S    
C33   O18   A    
O18   V4    S    
C54   O32   S    
C18   C26   A    
O20   V3    S    
C16   C22   A    
C18   C20   A    
C38   O23   D    
C31   H9    S    
C24   C26   A    
O6    V2    S    
C13   C27   A    
C5    C37   S    
C37   O22   S    
C14   C28   A    
C26   C28   A    
O11   C35   A    
C51   C52   A    
C39   O26   S    
C44   H19   S    
C30   C32   A    
C40   O28   S    
C15   C36   S    
O15   C35   A    
O13   C33   A    
C48   C49   A    
O4    C2    A    
C43   C44   A    
O17   V3    S    
C5    C9    S    
C15   C21   A    
C13   C29   A    
O4    V2    S    
O19   V4    S    
O5    C3    A    
O22   H13   S    
O26   H15   S    
C29   H5    S    
O6    C4    A    
C8    C40   S    
C38   O24   S    
C49   H23   S    
C53   O30   S    
O1    V2    S    
O2    V1    S    
C50   H24   S    
C16   C35   S    
O12   C36   A    
O15   V3    S    
C11   H3    S    
C9    C11   D    
C10   C12   D    
O16   C36   A    
O3    V1    S    
C23   C31   A    
O30   H27   S    
C48   H22   S    
C24   C32   A    
C9    H1    S    
C34   O17   A    
C6    C10   S    
C14   C30   A    
C12   H4    S    
O3    C1    A    
C17   H7    S    
C30   H6    S    
C18   H8    S    
C17   C25   A    
O7    V1    S    
C1    O8    A    
C21   C23   A    
O8    V2    S    
O32   H28   S    
C22   C24   A    
C28   C47   S    
C42   C43   A    
C46   H21   S    
C6    C38   S    
C15   C19   A    
O5    V1    S    
C47   C48   A    
C5    C7    D    
C6    C8    D    
O16   V4    S    
O11   V4    S    
C49   C50   A    
O24   H14   S    
C21   H11   S    
C2    C13   S    
C22   H12   S    
C10   H2    S    
O9    V2    S    
C50   C51   A    
O10   V1    S    
C41   C42   A    
C7    C39   S    
C20   C54   S    
C45   H20   S    
O13   V3    S    
