data_mof_unit_3147.cif
_audit_creation_date              2012-12-10T17:03:40-0500
_audit_creation_method            fapswitch 2.2
_symmetry_space_group_name_H-M    P1
_symmetry_Int_Tables_number       1
_space_group_crystal_system       triclinic
_cell_length_a                    10.096998
_cell_length_b                    10.633313
_cell_length_c                    13.123247
_cell_angle_alpha                 90.775106
_cell_angle_beta                  69.657522
_cell_angle_gamma                 92.009896
_cell_volume                      1320.28179856

loop_
_atom_site_label
_atom_site_type_symbol
_atom_type_description
_atom_site_fract_x
_atom_site_fract_y
_atom_site_fract_z
_atom_type_partial_charge
C1    C     C_R   0.503526 0.737812 0.498551 0.934671
C2    C     C_R   0.431257 0.479461 0.984907 0.086311
C3    C     C_R   0.456015 0.441823 0.876736 0.088347
C4    C     C_R   0.537598 0.459339 0.029651 0.080278
C5    C     C_R   0.654230 0.384001 0.973810 0.174173
C6    C     C_R   0.665866 0.332489 0.873098 -0.265699
C7    C     C_R   0.568169 0.361067 0.824928 -0.200593
C8    C     C_R   0.532005 0.513677 0.128047 -0.257915
C9    C     C_R   0.739160 0.403818 0.124766 -0.211541
C10   C     C_R   0.368899 0.487646 0.822560 -0.122607
C11   C     C_2   0.628891 0.071704 0.442739 -0.190151
C12   C     C_R   0.420812 0.494388 0.704083 0.855167
C13   C     C_2   0.514130 0.135376 0.448117 -0.011145
C14   C     C_2   0.630239 0.935819 0.434294 0.216897
C15   C     C_2   0.513411 0.871673 0.496841 -0.353352
C16   C     C_2   0.113931 0.497681 0.413226 -0.153226
C17   C     C_2   0.965316 0.469448 0.417201 0.300963
C18   C     C_R   0.502720 0.262972 0.488613 0.903448
C19   C     C_R   0.578794 0.498726 0.295827 0.855962
C20   C     C_R   0.755784 0.358910 0.020940 -0.195647
C21   C     C_R   0.624974 0.479212 0.179094 -0.057158
C22   C     C_R   0.241372 0.543894 0.881833 -0.195884
C23   C     C_R   0.205605 0.563200 0.992905 -0.145569
C24   C     C_R   0.300938 0.534919 0.043893 -0.195791
H1    H     H_    0.420935 0.919666 0.549024 0.138362
H2    H     H_    0.196233 0.511069 0.334618 0.163268
H3    H     H_    0.843965 0.299859 0.979750 0.139045
H4    H     H_    0.451477 0.579218 0.169595 0.142153
H5    H     H_    0.268398 0.554190 0.129847 0.124942
H6    H     H_    0.580217 0.317725 0.747276 0.171979
H7    H     H_    0.717328 0.116915 0.459568 0.152388
N1    N     N_2   0.148270 0.498670 0.498870 -0.206446
N2    N     N_2   0.852610 0.498640 0.498840 -0.049836
O1    O     O_R   0.386950 0.680940 0.500020 -0.603532
O2    O     O_R   0.613110 0.680900 0.499980 -0.603900
O3    O     O_R   0.330780 0.500000 0.653640 -0.610922
O4    O     O_R   0.556930 0.499960 0.653610 -0.605222
O5    O     O_R   0.386890 0.319100 0.500020 -0.594985
O6    O     O_R   0.613050 0.319060 0.499980 -0.636308
O7    O     O_R   0.443070 0.500040 0.346390 -0.613159
O8    O     O_R   0.669220 0.500000 0.346360 -0.614097
Zn1   Zn    Zn3+2 0.349000 0.500030 0.500020 0.931105
Zn2   Zn    Zn3+2 0.651000 0.499970 0.499980 0.922914
H8    H     H_    0.810229 0.373694 0.164300 0.156772
C25   C     C_3   0.402427 0.084919 0.403405 -0.863916
H9    H     H_    0.387358 0.154696 0.346453 0.245107
H10   H     H_    0.432560 0.996512 0.356379 0.250607
H11   H     H_    0.300347 0.069151 0.470932 0.236414
C26   C     C_3   0.762948 0.875677 0.360552 -0.839195
H12   H     H_    0.838355 0.947903 0.309703 0.222310
H13   H     H_    0.816658 0.827775 0.409292 0.250306
H14   H     H_    0.736800 0.807165 0.305188 0.231284
H15   H     H_    0.074338 0.462488 0.568504 0.177656
C27   C     C_3   0.949765 0.408049 0.318480 -0.886356
H16   H     H_    0.046990 0.358071 0.271320 0.209389
H17   H     H_    0.860749 0.337619 0.341943 0.260236
H18   H     H_    0.933216 0.481543 0.265375 0.239088
C28   C     C_3   0.863443 0.589522 0.580009 -0.646356
H19   H     H_    0.769618 0.648661 0.605507 0.251194
H20   H     H_    0.863353 0.540068 0.653965 0.187122
H21   H     H_    0.954881 0.656947 0.548303 0.182299
H22   H     H_    0.751749 0.271596 0.830715 0.147740
H23   H     H_    0.171757 0.576866 0.841727 0.156554
H24   H     H_    0.106445 0.605496 0.038811 0.144054

loop_
_geom_bond_atom_site_label_1
_geom_bond_atom_site_label_2
_ccdc_geom_bond_type
O4    Zn2   S    
C2    C4    A    
C23   C24   A    
N2    C28   S    
C1    C15   S    
C20   H3    S    
C16   N1    D    
C11   C13   D    
C27   H16   S    
C9    C20   A    
O3    Zn1   S    
O1    Zn1   S    
C4    C8    A    
C26   H14   S    
C6    H22   S    
C28   H21   S    
O7    Zn1   S    
C2    C3    A    
C18   O5    A    
C11   H7    S    
C7    H6    S    
C25   H9    S    
C10   C22   A    
C13   C25   S    
O8    Zn2   S    
C9    C21   A    
C6    C7    A    
C17   N2    D    
C13   C18   S    
C3    C10   A    
C10   C12   S    
C23   H24   S    
C19   C21   S    
C1    O1    A    
O5    Zn1   S    
C3    C7    A    
C25   H10   S    
C16   H2    S    
C5    C6    A    
C8    H4    S    
C11   C14   S    
C27   H17   S    
C15   H1    S    
C14   C26   S    
C12   O3    A    
C19   O7    A    
C28   H20   S    
N2    Zn2   S    
C19   O8    A    
N1    H15   S    
O2    Zn2   S    
C1    O2    A    
C26   H12   S    
C25   H11   S    
C12   O4    A    
C5    C20   A    
C18   O6    A    
N1    Zn1   S    
C22   C23   A    
C16   C17   S    
C9    H8    S    
O6    Zn2   S    
C2    C24   A    
C22   H23   S    
C24   H5    S    
C28   H19   S    
C17   C27   S    
C14   C15   D    
C4    C5    A    
C26   H13   S    
C27   H18   S    
C8    C21   A    
