data_mof_unit_4653.cif
_audit_creation_date              2012-12-10T19:50:35-0500
_audit_creation_method            fapswitch 2.2
_symmetry_space_group_name_H-M    P1
_symmetry_Int_Tables_number       1
_space_group_crystal_system       triclinic
_cell_length_a                    18.224456
_cell_length_b                    18.25046
_cell_length_c                    18.252077
_cell_angle_alpha                 119.464681
_cell_angle_beta                  90.485005
_cell_angle_gamma                 119.658742
_cell_volume                      4331.09278815

loop_
_atom_site_label
_atom_site_type_symbol
_atom_type_description
_atom_site_fract_x
_atom_site_fract_y
_atom_site_fract_z
_atom_type_partial_charge
C1    C     C_R   0.639848 0.779594 0.639632 0.822456
C2    C     C_R   0.192550 0.943864 0.158482 -0.214814
C3    C     C_R   0.186371 0.890263 0.195385 -0.116288
C4    C     C_R   0.357303 0.219660 0.360035 0.839372
C5    C     C_R   0.223858 0.946436 0.287282 -0.106262
C6    C     C_3   0.263845 0.939218 0.353958 0.502556
C7    C     C_3   0.310138 0.057568 0.419243 0.771604
C8    C     C_R   0.789075 0.554682 0.341610 0.086874
C9    C     C_R   0.695854 0.493834 0.304183 -0.090695
C10   C     C_R   0.656551 0.423221 0.210830 -0.228862
C11   C     C_R   0.710177 0.423604 0.156676 -0.226574
C12   C     C_3   0.835894 0.575902 0.773254 -0.164598
C13   C     C_R   0.803636 0.495449 0.195177 -0.059374
C14   C     C_R   0.841667 0.557449 0.287946 0.057412
C15   C     C_3   0.911756 0.670431 0.353274 -0.019426
C16   C     C_R   0.361217 0.501037 0.640965 0.844181
C17   C     C_3   0.854098 0.666762 0.413677 -0.022573
C18   C     C_R   0.787159 0.948682 0.726376 0.036558
C19   C     C_R   0.694330 0.890402 0.695943 -0.105390
C20   C     C_R   0.653353 0.943132 0.723402 -0.226350
C21   C     C_R   0.704663 0.051181 0.778660 0.180984
C22   C     C_R   0.800598 0.108365 0.807243 -0.095961
C23   C     C_3   0.762403 0.594840 0.797421 -0.390431
C24   C     C_R   0.837309 0.052298 0.781214 -0.190688
C25   C     C_3   0.924210 0.061630 0.786249 0.260394
C26   C     C_3   0.866011 0.942116 0.721442 0.562967
C27   C     C_R   0.309040 0.596220 0.339037 0.075265
C28   C     C_R   0.640100 0.499708 0.360125 0.785656
C29   C     C_R   0.330855 0.525475 0.303535 -0.325170
C30   C     C_R   0.321770 0.475962 0.211614 0.506243
C31   C     C_R   0.260895 0.467221 0.154249 0.034727
C32   C     C_R   0.217066 0.516909 0.192823 -0.173479
C33   C     C_R   0.251531 0.589799 0.284469 0.047908
C34   C     C_3   0.731007 0.521255 0.827407 0.430465
C35   C     C_3   0.211849 0.626051 0.353529 -0.540277
C36   C     C_3   0.279297 0.637889 0.416354 0.336490
C37   C     C_R   0.250584 0.531433 0.698928 -0.000809
C38   C     C_R   0.308955 0.503969 0.700054 -0.236749
C39   C     C_R   0.316271 0.481077 0.762636 0.477838
C40   C     C_R   0.364129 0.505360 0.358812 0.826388
C41   C     C_R   0.258527 0.476544 0.813678 -0.300900
C42   C     C_R   0.198562 0.502545 0.808055 -0.098150
C43   C     C_R   0.198893 0.532135 0.751403 -0.029489
C44   C     C_3   0.157326 0.568593 0.719854 -0.643923
C45   C     C_3   0.665731 0.429963 0.733109 0.515333
C46   C     C_3   0.217455 0.569057 0.659535 0.934449
C47   C     C_R   0.859857 0.500131 0.139741 0.797798
C48   C     C_R   0.140366 0.500449 0.860775 0.840747
C49   C     C_R   0.138802 0.779569 0.139760 0.817247
C50   C     C_R   0.859313 0.219965 0.860753 0.803838
C51   C     C_R   0.144656 0.502297 0.140605 0.851577
C52   C     C_R   0.641272 0.500699 0.642703 0.809212
C53   C     C_R   0.858709 0.500200 0.858519 0.819101
C54   C     C_3   0.770135 0.482982 0.677408 -0.194789
C55   C     C_3   0.737384 0.409763 0.708108 -0.280918
C56   C     C_3   0.697411 0.501355 0.701741 -0.098932
C57   C     C_3   0.802348 0.502111 0.802855 -0.077229
C58   C     C_3   0.365317 0.922732 0.273570 0.142938
C59   C     C_3   0.435245 0.899642 0.270387 -0.831065
C60   C     C_3   0.288188 0.176237 0.532754 0.137607
C61   C     C_3   0.251164 0.193886 0.609549 -0.832731
C62   C     C_3   0.442295 0.118378 0.514796 0.183438
C63   C     C_3   0.540933 0.163402 0.526720 -0.781201
C64   C     C_3   0.918948 0.736364 0.321035 -0.926406
C65   C     C_3   0.898047 0.685665 0.498610 -0.932104
C66   C     C_3   0.654033 0.100244 0.804957 -0.832483
C67   C     C_R   0.267832 0.050719 0.341745 -0.137732
C68   C     C_3   0.935959 0.102337 0.934318 0.189997
C69   C     C_3   0.999433 0.135938 0.016169 -0.858790
C70   C     C_3   0.871692 0.900013 0.626366 -1.039857
C71   C     C_3   0.942189 0.886971 0.760198 0.169705
C72   C     C_3   0.947397 0.848774 0.816300 -0.866168
C73   C     C_3   0.456339 0.499846 0.200360 0.167522
C74   C     C_3   0.475898 0.526571 0.132492 -0.934482
C75   C     C_3   0.243060 0.403732 0.054518 -0.744410
C76   C     C_3   0.320534 0.782216 0.554257 0.106912
C77   C     C_3   0.386520 0.898452 0.613542 -0.834836
C78   C     C_R   0.290798 0.107773 0.304532 -0.102629
C79   C     C_3   0.464330 0.565895 0.835423 0.104127
C80   C     C_3   0.488185 0.587582 0.927290 -0.870992
C81   C     C_3   0.122953 0.518324 0.532969 0.118649
C82   C     C_3   0.072101 0.434644 0.433911 -0.874993
C83   C     C_3   0.334243 0.747945 0.767049 0.024790
C84   C     C_3   0.429417 0.823455 0.777443 -0.816219
C85   C     C_3   0.771176 0.634439 0.979560 0.103354
C86   C     C_3   0.757116 0.639523 0.063559 -0.825335
C87   C     C_3   0.525883 0.381897 0.752072 0.170246
C88   C     C_3   0.481448 0.327098 0.796352 -0.818419
C89   C     C_R   0.244698 0.052062 0.211402 0.169157
C90   C     C_3   0.249435 0.103537 0.165611 -0.824692
C91   C     C_3   0.192778 0.875210 0.381168 -0.769059
H1    H     H_    0.727776 0.334225 0.672627 0.152408
H2    H     H_    0.141332 0.564615 0.337204 0.161762
H3    H     H_    0.907162 0.635891 0.790402 0.164045
H4    H     H_    0.250899 0.588110 0.440943 0.096202
H5    H     H_    0.263403 0.457001 0.859932 0.181724
H6    H     H_    0.084515 0.508319 0.683216 0.200464
H7    H     H_    0.173593 0.644677 0.773999 0.184016
H8    H     H_    0.771419 0.670074 0.833166 0.154658
H9    H     H_    0.159554 0.901658 0.087662 0.168009
H10   H     H_    0.398508 0.002312 0.292048 0.168109
H11   H     H_    0.315624 0.867133 0.205466 0.127719
H12   H     H_    0.584507 0.370554 0.179303 0.175992
H13   H     H_    0.402554 0.818375 0.246941 0.257136
H14   H     H_    0.469559 0.912324 0.223627 0.198677
H15   H     H_    0.485694 0.950178 0.337560 0.257777
H16   H     H_    0.251548 0.178419 0.485694 0.158407
H17   H     H_    0.360651 0.238624 0.560906 0.207500
H18   H     H_    0.179017 0.131128 0.584456 0.253122
H19   H     H_    0.288170 0.196041 0.660039 0.254384
H20   H     H_    0.258486 0.267946 0.641463 0.250868
H21   H     H_    0.409261 0.039857 0.499085 0.162114
H22   H     H_    0.436506 0.166549 0.578778 0.188279
H23   H     H_    0.678153 0.370682 0.084937 0.178651
H24   H     H_    0.575764 0.241691 0.541814 0.271342
H25   H     H_    0.572051 0.167326 0.582252 0.218952
H26   H     H_    0.548824 0.114879 0.464770 0.233217
H27   H     H_    0.851643 0.711848 0.288819 0.243853
H28   H     H_    0.956846 0.818015 0.378796 0.248108
H29   H     H_    0.955660 0.730553 0.272544 0.264134
H30   H     H_    0.849627 0.670566 0.534513 0.279668
H31   H     H_    0.921171 0.635178 0.483065 0.239895
H32   H     H_    0.956629 0.766924 0.542883 0.236324
H33   H     H_    0.672994 0.148624 0.878730 0.248984
H34   H     H_    0.977487 0.687231 0.379361 0.180907
H35   H     H_    0.667836 0.146698 0.777787 0.258961
H36   H     H_    0.580468 0.042296 0.778552 0.208102
H37   H     H_    0.875100 0.024449 0.907427 0.167722
H38   H     H_    0.917536 0.157687 0.956104 0.134874
H39   H     H_    0.058529 0.216143 0.048167 0.258407
H40   H     H_    0.964592 0.132105 0.065108 0.200771
H41   H     H_    0.022412 0.084932 0.996932 0.259927
H42   H     H_    0.824485 0.815156 0.583144 0.289286
H43   H     H_    0.854730 0.932028 0.596090 0.225768
H44   H     H_    0.940687 0.921774 0.628199 0.222531
H45   H     H_    0.825363 0.711592 0.425984 0.178689
H46   H     H_    0.005263 0.964003 0.789091 0.170127
H47   H     H_    0.936413 0.832358 0.691867 0.146092
H48   H     H_    0.887156 0.769591 0.785651 0.267849
H49   H     H_    0.007877 0.848037 0.819608 0.202739
H50   H     H_    0.950860 0.899534 0.884969 0.254748
H51   H     H_    0.491801 0.465096 0.200990 0.180171
H52   H     H_    0.485674 0.571580 0.268660 0.102724
H53   H     H_    0.444093 0.564836 0.131837 0.256525
H54   H     H_    0.549336 0.579692 0.150648 0.224233
H55   H     H_    0.450100 0.455910 0.064806 0.265792
H56   H     H_    0.580977 0.900181 0.701453 0.182782
H57   H     H_    0.173084 0.334394 0.019725 0.262440
H58   H     H_    0.256230 0.450946 0.028257 0.225597
H59   H     H_    0.286011 0.375403 0.036573 0.259472
H60   H     H_    0.319558 0.751310 0.593719 0.199144
H61   H     H_    0.252848 0.763765 0.532414 0.118605
H62   H     H_    0.385913 0.931361 0.576206 0.257003
H63   H     H_    0.367662 0.931072 0.673330 0.202863
H64   H     H_    0.455129 0.919667 0.635317 0.257476
H65   H     H_    0.465786 0.631510 0.843530 0.106483
H66   H     H_    0.517498 0.564979 0.806702 0.139212
H67   H     H_    0.786096 0.467415 0.614985 0.152452
H68   H     H_    0.554386 0.662066 0.970847 0.214559
H69   H     H_    0.436976 0.591619 0.958302 0.246883
H70   H     H_    0.491652 0.526207 0.921877 0.265755
H71   H     H_    0.170379 0.592160 0.541128 0.143829
H72   H     H_    0.073594 0.524691 0.566291 0.125562
H73   H     H_    0.020555 0.360940 0.424094 0.262206
H74   H     H_    0.038582 0.456160 0.405316 0.202134
H75   H     H_    0.118797 0.424189 0.398207 0.253351
H76   H     H_    0.339493 0.724602 0.811662 0.142974
H77   H     H_    0.300774 0.788277 0.789830 0.149356
H78   H     H_    0.963532 0.100624 0.755305 0.106846
H79   H     H_    0.428828 0.855350 0.739304 0.247384
H80   H     H_    0.467421 0.887836 0.848900 0.202962
H81   H     H_    0.463650 0.784244 0.752751 0.270936
H82   H     H_    0.761629 0.689101 0.977403 0.136631
H83   H     H_    0.841231 0.658256 0.983668 0.126956
H84   H     H_    0.766957 0.586093 0.067729 0.260302
H85   H     H_    0.806005 0.718787 0.123409 0.200597
H86   H     H_    0.688204 0.617815 0.062509 0.254878
H87   H     H_    0.472537 0.361225 0.701196 0.186413
H88   H     H_    0.564074 0.466112 0.802777 0.147470
H89   H     H_    0.223948 0.699835 0.371754 0.238490
H90   H     H_    0.533137 0.350806 0.851263 0.280027
H91   H     H_    0.434894 0.346650 0.824013 0.222184
H92   H     H_    0.442724 0.242639 0.746697 0.240430
H93   H     H_    0.317184 0.142124 0.160711 0.259454
H94   H     H_    0.200887 0.047423 0.096570 0.212973
H95   H     H_    0.232736 0.159761 0.202743 0.248117
H96   H     H_    0.163693 0.792418 0.333367 0.259476
H97   H     H_    0.224548 0.897938 0.447619 0.221798
H98   H     H_    0.137780 0.886177 0.384327 0.223490
O1    O     O_3   0.500000 0.500000 0.500000 -0.492595
O2    O     O_R   0.945260 0.268310 0.884540 -0.630270
O3    O     O_R   0.117230 0.560570 0.177940 -0.639349
O4    O     O_R   0.676910 0.731570 0.616180 -0.621674
O5    O     O_R   0.821960 0.439250 0.882690 -0.615442
O6    O     O_R   0.117230 0.439140 0.056500 -0.648721
O7    O     O_R   0.943400 0.560680 0.882690 -0.658705
O8    O     O_R   0.115380 0.731510 0.054650 -0.657990
O9    O     O_R   0.823040 0.268340 0.883770 -0.647477
O10   O     O_R   0.945260 0.560610 0.176860 -0.651084
O11   O     O_R   0.116150 0.439180 0.884540 -0.652042
O12   O     O_R   0.384580 0.439270 0.616180 -0.649567
O13   O     O_R   0.384580 0.268400 0.445300 -0.660061
O14   O     O_R   0.383810 0.560730 0.615410 -0.607792
O15   O     O_R   0.554700 0.439300 0.323100 -0.658960
O16   O     O_R   0.382730 0.560770 0.443450 -0.624518
O17   O     O_R   0.678000 0.560660 0.617260 -0.625576
O18   O     O_R   0.382730 0.439340 0.322020 -0.610196
O19   O     O_R   0.556550 0.439230 0.617260 -0.659353
O20   O     O_3   0.324592 0.909504 0.335733 -0.605161
O21   O     O_3   0.274451 0.079821 0.490649 -0.690163
O22   O     O_3   0.405030 0.118446 0.446618 -0.652816
O23   O     O_R   0.676910 0.560700 0.445300 -0.649232
O24   O     O_3   0.979771 0.102689 0.870646 -0.597796
O25   O     O_3   0.865883 0.889408 0.758420 -0.582075
O26   O     O_3   0.363442 0.426461 0.175752 -0.597564
O27   O     O_3   0.348579 0.741882 0.481555 -0.560098
O28   O     O_3   0.382116 0.468194 0.777910 -0.620052
O29   O     O_3   0.168610 0.492068 0.567450 -0.616458
O30   O     O_3   0.287113 0.664951 0.675745 -0.638961
O31   O     O_3   0.707956 0.533634 0.904406 -0.617156
O32   O     O_3   0.577256 0.347510 0.709021 -0.643130
O33   O     O_R   0.554700 0.731600 0.615410 -0.655296
O34   O     O_R   0.383810 0.268430 0.323100 -0.640017
O35   O     O_3   0.999960 0.499910 0.999960 -0.483947
O36   O     O_R   0.823040 0.439210 0.054650 -0.647837
O37   O     O_R   0.115380 0.560640 0.883770 -0.638489
O38   O     O_R   0.116150 0.731480 0.176860 -0.639576
Zn1   Zn    Zn3+2 0.457170 0.413230 0.543930 0.944381
Zn2   Zn    Zn3+2 0.456070 0.586770 0.542830 0.990109
Zn3   Zn    Zn3+2 0.456070 0.413270 0.369320 0.962260
Zn4   Zn    Zn3+2 0.630690 0.586730 0.543930 0.960474
Zn5   Zn    Zn3+2 0.042790 0.586680 0.956030 0.947685
Zn6   Zn    Zn3+2 0.043880 0.586640 0.130630 0.945196
Zn7   Zn    Zn3+2 0.043880 0.413140 0.957130 0.960608
Zn8   Zn    Zn3+2 0.869270 0.413190 0.956030 0.964706

loop_
_geom_bond_atom_site_label_1
_geom_bond_atom_site_label_2
_ccdc_geom_bond_type
O12   Zn1   S    
C23   H8    S    
C91   H97   S    
C46   O29   S    
C21   C66   S    
C27   C29   A    
C41   C42   A    
C74   H54   S    
O16   Zn2   S    
C35   C36   S    
C18   C26   S    
O5    Zn8   S    
C5    C67   A    
C84   H80   S    
C61   H18   S    
C81   C82   S    
C3    C49   S    
C23   C56   S    
C39   C41   A    
C6    O20   S    
C49   O8    A    
C85   C86   S    
C27   C33   A    
O2    Zn7   S    
C91   H98   S    
C12   C23   S    
C37   C38   A    
C64   H28   S    
C48   O11   A    
C83   C84   S    
C52   O17   A    
C59   H13   S    
C87   O32   S    
C22   C24   A    
C10   H12   S    
C85   O31   S    
O11   Zn7   S    
O1    Zn4   S    
C84   H79   S    
O9    Zn8   S    
O10   Zn6   S    
C82   H75   S    
C5    C6    S    
C63   H26   S    
C34   O31   S    
C80   H69   S    
C41   H5    S    
C48   O37   A    
C76   H61   S    
C75   H59   S    
C6    C91   S    
O8    Zn5   S    
C64   H27   S    
C66   H36   S    
C29   C40   S    
C18   C19   A    
C81   H71   S    
C11   H23   S    
O35   Zn7   S    
C91   H96   S    
C77   H62   S    
C79   H65   S    
C54   C55   S    
C44   H7    S    
C72   H48   S    
O7    Zn5   S    
C45   C56   S    
C8    C9    A    
C34   C57   S    
C85   H82   S    
C15   C64   S    
O6    Zn7   S    
C58   H11   S    
C65   H30   S    
C49   O38   A    
C16   O14   A    
C9    C10   A    
C68   H37   S    
C60   H17   S    
O34   Zn3   S    
C69   H40   S    
C22   C50   S    
C63   H24   S    
O35   Zn8   S    
C30   O26   S    
C40   O18   A    
C2    H9    S    
C13   C14   A    
C53   O5    A    
C81   H72   S    
C47   O10   A    
C68   H38   S    
C67   C78   A    
C61   H19   S    
C44   C46   S    
C71   H47   S    
C73   H51   S    
C35   H2    S    
C78   C89   A    
C50   O9    A    
C72   H50   S    
O38   Zn6   S    
C54   C56   S    
C1    C19   S    
C59   H15   S    
C28   O15   A    
O3    Zn6   S    
C38   C39   A    
C76   C77   S    
O33   Zn2   S    
C62   H22   S    
C71   H46   S    
C89   C90   S    
O14   Zn2   S    
O23   Zn4   S    
C53   C57   S    
C68   C69   S    
C80   H68   S    
O13   Zn1   S    
C90   H95   S    
C76   H60   S    
C3    C5    A    
C25   C26   S    
C65   H31   S    
C83   H76   S    
C86   H86   S    
C66   H35   S    
C77   H64   S    
C60   C61   S    
O1    Zn3   S    
O36   Zn8   S    
C37   C43   A    
C2    C89   A    
C1    O4    A    
O35   Zn6   S    
C32   C51   S    
C4    C78   S    
C62   C63   S    
O1    Zn1   S    
C77   H63   S    
C54   H67   S    
C83   O30   S    
C44   H6    S    
C76   O27   S    
C31   C75   S    
C31   C32   A    
C47   O36   A    
C39   O28   S    
C29   C30   A    
C62   O22   S    
C23   C34   S    
C17   H45   S    
C14   C15   S    
C85   H83   S    
C20   H56   S    
C58   H10   S    
C59   H14   S    
C36   O27   S    
C24   C25   S    
C50   O2    A    
C60   H16   S    
C34   C45   S    
C68   O24   S    
C63   H25   S    
C55   H1    S    
C90   H93   S    
C42   C48   S    
C55   C57   S    
C43   C44   S    
C70   H44   S    
C26   C70   S    
C66   H33   S    
C18   C24   A    
C42   C43   A    
C12   C57   S    
C16   O12   A    
C71   O25   S    
C73   C74   S    
C69   H41   S    
C7    O21   S    
C13   C47   S    
C73   H52   S    
C58   O20   S    
C25   H78   S    
C35   H89   S    
C15   C17   S    
C74   H53   S    
C40   O16   A    
C88   H92   S    
C8    C14   A    
C46   O30   S    
O17   Zn4   S    
C52   O19   A    
C74   H55   S    
C73   O26   S    
C84   H81   S    
C79   H66   S    
C7    O22   S    
O18   Zn3   S    
C6    C7    S    
C90   H94   S    
C12   H3    S    
C27   C36   S    
C28   O23   A    
C4    O34   A    
C83   H77   S    
C17   C65   S    
C8    C17   S    
C64   H29   S    
C26   O25   S    
O1    Zn2   S    
C45   O32   S    
C32   C33   A    
C19   C20   A    
O35   Zn5   S    
C2    C3    A    
C58   C59   S    
C69   H39   S    
C71   C72   S    
C51   O6    A    
C4    O13   A    
C86   H84   S    
C87   H87   S    
C11   C13   A    
C36   H4    S    
C88   H90   S    
C30   C31   A    
C82   H73   S    
C75   H58   S    
C70   H42   S    
O37   Zn5   S    
C81   O29   S    
C75   H57   S    
C25   O24   S    
C33   C35   S    
C86   H85   S    
C65   H32   S    
O15   Zn3   S    
C88   H91   S    
C12   C54   S    
C80   H70   S    
C79   O28   S    
C10   C11   A    
C7    C67   S    
C79   C80   S    
C72   H49   S    
C62   H21   S    
C20   C21   A    
C45   C55   S    
C87   C88   S    
C15   H34   S    
C70   H43   S    
C53   O7    A    
O4    Zn4   S    
C87   H88   S    
C1    O33   A    
C37   C46   S    
C21   C22   A    
C60   O21   S    
O19   Zn1   S    
C51   O3    A    
C52   C56   S    
C9    C28   S    
C16   C38   S    
C82   H74   S    
C61   H20   S    
