data_mof_unit_3102.cif
_audit_creation_date              2012-10-26T18:43:30-0400
_audit_creation_method            fapswitch 2.2
_symmetry_space_group_name_H-M    P1
_symmetry_Int_Tables_number       1
_space_group_crystal_system       triclinic
_cell_length_a                    10.80229
_cell_length_b                    10.844459
_cell_length_c                    9.543669
_cell_angle_alpha                 90.890563
_cell_angle_beta                  90.363676
_cell_angle_gamma                 90.556134
_cell_volume                      1117.78170563

loop_
_atom_site_label
_atom_site_type_symbol
_atom_type_description
_atom_site_fract_x
_atom_site_fract_y
_atom_site_fract_z
_atom_type_partial_charge
C1    C     C_R   0.494251 0.262316 0.498478 0.554440
C2    C     C_R   0.464164 0.939356 0.622741 0.053832
C3    C     C_3   0.532653 0.939741 0.759377 -0.030851
C4    C     C_R   0.260236 0.494103 0.499713 0.542905
C5    C     C_3   0.532881 0.080181 0.755531 -0.243771
C6    C     C_R   0.603458 0.533927 0.075637 0.174174
C7    C     C_R   0.403510 0.451269 0.072860 -0.008749
C8    C     C_R   0.403903 0.450741 0.924022 -0.010964
C9    C     C_R   0.604575 0.531982 0.928346 0.179338
C10   C     C_3   0.673211 0.651843 0.927482 -0.300809
C11   C     C_3   0.668611 0.654817 0.085975 -0.271511
C12   C     C_3   0.878323 0.492674 0.501246 0.138424
C13   C     C_R   0.496079 0.737755 0.500648 0.549882
C14   C     C_R   0.740001 0.495703 0.500242 0.628800
C15   C     C_3   0.072616 0.403762 0.622931 0.224096
C16   C     C_3   0.927352 0.397513 0.612465 0.036285
C17   C     C_3   0.076759 0.623574 0.522902 -0.198822
C18   C     C_3   0.070874 0.444423 0.355624 -0.278322
C19   C     C_3   0.122540 0.489494 0.501054 0.037899
C20   C     C_3   0.932330 0.627837 0.529530 0.170820
C21   C     C_3   0.927460 0.446572 0.354065 -0.077705
C22   C     C_R   0.464333 0.066138 0.619946 -0.041211
C23   C     C_R   0.475420 0.129248 0.494459 0.023603
C24   C     C_R   0.463907 0.060745 0.366891 0.075468
C25   C     C_R   0.467267 0.931443 0.370984 -0.148668
C26   C     C_R   0.478885 0.870507 0.499487 -0.026332
Cu1   Cu    Cu3+1 0.499990 0.499980 0.640670 0.967073
Cu2   Cu    Cu3+1 0.500010 0.500020 0.359330 0.958087
H1    H     H_    0.898497 0.512822 0.272941 0.155701
H2    H     H_    0.900914 0.304737 0.571120 0.154646
H3    H     H_    0.120448 0.666608 0.617621 0.133901
H4    H     H_    0.107559 0.352346 0.326533 0.113948
H5    H     H_    0.075700 0.537926 0.786015 0.232986
H6    H     H_    0.093549 0.390861 0.839900 0.224091
H7    H     H_    0.904551 0.804816 0.456641 0.228097
H8    H     H_    0.929325 0.703356 0.328091 0.199879
H9    H     H_    0.366841 0.160663 0.229017 0.219015
H10   H     H_    0.458894 0.057322 0.151352 0.205996
H11   H     H_    0.371147 0.934262 0.876255 0.237846
H12   H     H_    0.111903 0.681125 0.435795 0.094763
H13   H     H_    0.502471 0.908363 0.966878 0.211627
H14   H     H_    0.626379 0.898807 0.752185 0.130648
H15   H     H_    0.627035 0.120583 0.742307 0.135252
H16   H     H_    0.217733 0.278103 0.617560 0.251285
H17   H     H_    0.097555 0.236716 0.512736 0.194846
H18   H     H_    0.619593 0.724771 0.877390 0.178779
H19   H     H_    0.885469 0.482862 0.806046 0.254352
H20   H     H_    0.890483 0.327090 0.808547 0.219313
H21   H     H_    0.801990 0.699213 0.663581 0.254657
H22   H     H_    0.943341 0.754647 0.694043 0.210070
H23   H     H_    0.466017 0.879348 0.273219 0.129722
H24   H     H_    0.104406 0.506846 0.272068 0.118408
H25   H     H_    0.923992 0.253488 0.351361 0.214216
H26   H     H_    0.880784 0.317932 0.201414 0.230157
H27   H     H_    0.476089 0.125542 0.837954 0.144267
H28   H     H_    0.324630 0.413237 0.127038 0.106762
H29   H     H_    0.326623 0.410470 0.867486 0.146976
H30   H     H_    0.769145 0.642129 0.890258 0.134115
H31   H     H_    0.761275 0.647591 0.136034 0.127003
H32   H     H_    0.609244 0.729389 0.128772 0.153379
N1    N     N_R   0.500800 0.500930 0.147930 -0.228446
N2    N     N_3   0.873690 0.326534 0.310416 -0.632797
N3    N     N_R   0.500800 0.500890 0.852020 -0.225702
N4    N     N_3   0.114546 0.452971 0.760544 -0.604415
N5    N     N_3   0.884441 0.714221 0.424012 -0.643756
N6    N     N_3   0.454658 0.121197 0.234216 -0.591200
N7    N     N_3   0.456609 0.889683 0.872060 -0.628560
N8    N     N_3   0.121222 0.277385 0.609083 -0.641580
N9    N     N_3   0.864664 0.402918 0.748986 -0.619791
N10   N     N_3   0.894869 0.673245 0.668643 -0.654385
O1    O     O_R   0.500000 0.319640 0.618810 -0.518859
O2    O     O_R   0.500010 0.319680 0.381230 -0.462592
O3    O     O_R   0.317690 0.499960 0.618790 -0.481375
O4    O     O_R   0.317700 0.500000 0.381210 -0.533686
O5    O     O_R   0.499990 0.680320 0.618770 -0.485424
O6    O     O_R   0.500000 0.680360 0.381190 -0.513051
O7    O     O_R   0.682300 0.500000 0.618790 -0.477126
O8    O     O_R   0.682310 0.500040 0.381210 -0.481371

loop_
_geom_bond_atom_site_label_1
_geom_bond_atom_site_label_2
_ccdc_geom_bond_type
C3    H14   S    
C18   C21   S    
H20   N9    S    
Cu2   O4    S    
C6    C9    A    
C18   H24   S    
C7    C8    A    
H13   N7    S    
C15   C19   S    
C1    O1    A    
C6    N1    A    
C10   H30   S    
Cu1   O5    S    
H7    N5    S    
C16   H2    S    
C15   C16   S    
C17   C20   S    
C18   C19   S    
C14   O7    A    
H19   N9    S    
C4    C19   S    
C7    N1    A    
C5    C22   S    
C12   C16   S    
C10   H18   S    
C23   C24   A    
C13   O5    A    
Cu2   O8    S    
C9    C10   S    
C4    O4    A    
C24   N6    S    
Cu2   N1    S    
C5    H15   S    
C20   N10   S    
Cu2   O2    S    
C7    H28   S    
C11   H31   S    
C1    O2    A    
H10   N6    S    
C20   N5    S    
C24   C25   A    
C6    C11   S    
H8    N5    S    
H26   N2    S    
C3    C5    S    
C25   C26   A    
C21   H1    S    
C12   C21   S    
C17   H12   S    
C25   H23   S    
C2    C22   A    
C8    H29   S    
H25   N2    S    
C13   O6    A    
C15   N4    S    
H9    N6    S    
C12   C20   S    
H17   N8    S    
H6    N4    S    
C21   N2    S    
C2    C26   A    
C4    O3    A    
Cu1   N3    S    
C12   C14   S    
C1    C23   S    
H21   N10   S    
C17   H3    S    
C13   C26   S    
H16   N8    S    
C18   H4    S    
C11   H32   S    
Cu2   O6    S    
Cu1   O1    S    
C9    N3    A    
H11   N7    S    
C5    H27   S    
C3    N7    S    
C16   N9    S    
Cu1   O7    S    
C2    C3    S    
H22   N10   S    
H5    N4    S    
C15   N8    S    
C17   C19   S    
C14   O8    A    
C10   C11   S    
C8    N3    A    
Cu1   Cu2   S    
C22   C23   A    
Cu1   O3    S    
