data_mof_unit_3350.cif
_audit_creation_date              2012-12-10T16:57:08-0500
_audit_creation_method            fapswitch 2.2
_symmetry_space_group_name_H-M    P1
_symmetry_Int_Tables_number       1
_space_group_crystal_system       triclinic
_cell_length_a                    7.768816
_cell_length_b                    8.580785
_cell_length_c                    16.564424
_cell_angle_alpha                 91.722538
_cell_angle_beta                  80.790275
_cell_angle_gamma                 93.716369
_cell_volume                      1087.48278877

loop_
_atom_site_label
_atom_site_type_symbol
_atom_type_description
_atom_site_fract_x
_atom_site_fract_y
_atom_site_fract_z
_atom_type_partial_charge
C1    C     C_R   0.546186 0.794804 0.497970 0.975679
C2    C     C_R   0.374924 0.458874 0.223464 -0.213680
C3    C     C_R   0.550089 0.269767 0.834357 -0.163775
C4    C     C_R   0.373821 0.403291 0.144098 -0.147148
C5    C     C_R   0.401104 0.300203 0.890911 0.203791
C6    C     C_R   0.525544 0.344674 0.098672 0.208313
C7    C     C_R   0.273597 0.391276 0.868810 -0.172117
C8    C     C_R   0.679461 0.348390 0.132621 -0.184479
C9    C     C_R   0.300018 0.459656 0.792365 -0.196459
C10   C     C_R   0.680799 0.404625 0.211954 -0.194151
C11   C     C_2   0.392613 0.265618 0.977263 -0.242216
C12   C     C_R   0.453804 0.205198 0.502116 0.969414
C13   C     C_2   0.534749 0.299972 0.012251 -0.226195
C14   C     C_2   0.570520 0.958261 0.496870 -0.387295
C15   C     C_2   0.429451 0.041770 0.503398 -0.379609
C16   C     C_R   0.476085 0.493225 0.654437 0.852873
C17   C     C_R   0.521688 0.493643 0.345206 0.859391
C18   C     C_R   0.454546 0.437461 0.737807 -0.031407
C19   C     C_R   0.527688 0.458101 0.258259 -0.034832
C20   C     C_R   0.577864 0.339873 0.758803 -0.206610
H1    H     H_    0.694580 0.315240 0.716344 0.161561
H2    H     H_    0.648080 0.196608 0.849796 0.131437
H3    H     H_    0.703713 0.009350 0.490656 0.179377
H4    H     H_    0.296254 0.990691 0.509633 0.179331
H5    H     H_    0.022753 0.380365 0.439316 0.188269
H6    H     H_    0.977257 0.619671 0.560659 0.190532
H7    H     H_    0.255470 0.500386 0.257857 0.155157
H8    H     H_    0.800499 0.402419 0.237537 0.154206
H9    H     H_    0.200978 0.530825 0.776225 0.151292
H10   H     H_    0.661901 0.319142 0.974509 0.147567
H11   H     H_    0.264570 0.247190 0.014024 0.142985
H12   H     H_    0.158261 0.416101 0.912196 0.122071
H13   H     H_    0.798843 0.307829 0.097615 0.120388
H14   H     H_    0.255108 0.410486 0.118487 0.121097
N1    N     N_2   0.953500 0.457650 0.478520 -0.176290
N2    N     N_2   0.046500 0.542350 0.521480 -0.174403
O1    O     O_R   0.388470 0.738640 0.505270 -0.608474
O2    O     O_R   0.611530 0.261360 0.494730 -0.612949
O3    O     O_R   0.679650 0.711510 0.491500 -0.625031
O4    O     O_R   0.320350 0.288490 0.508500 -0.627644
O5    O     O_R   0.337210 0.515200 0.623500 -0.614680
O6    O     O_R   0.662790 0.484800 0.376500 -0.619139
O7    O     O_R   0.628380 0.488060 0.609730 -0.626559
O8    O     O_R   0.371620 0.511940 0.390270 -0.623878
Zn1   Zn    Zn3+2 0.305580 0.518120 0.509190 0.939391
Zn2   Zn    Zn3+2 0.694420 0.481880 0.490810 0.934901

loop_
_geom_bond_atom_site_label_1
_geom_bond_atom_site_label_2
_ccdc_geom_bond_type
C14   H3    S    
C12   O4    A    
C2    C4    A    
C2    H7    S    
C1    C14   S    
C9    H9    S    
C9    C18   A    
N1    N2    D    
C12   C15   S    
C1    O1    A    
C10   C19   A    
C17   O8    A    
C11   H11   S    
N2    Zn1   S    
C20   H1    S    
C6    C13   S    
C11   C13   D    
C16   O7    A    
H5    N1    S    
O3    Zn2   S    
C8    C10   A    
C15   H4    S    
C17   C19   S    
C5    C11   S    
C18   C20   A    
C8    H13   S    
C12   O2    A    
O4    Zn1   S    
O7    Zn2   S    
C4    H14   S    
O2    Zn2   S    
C4    C6    A    
C1    O3    A    
O1    Zn1   S    
C7    C9    A    
C13   H10   S    
C3    C20   A    
O8    Zn1   S    
C16   C18   S    
O6    Zn2   S    
C10   H8    S    
C5    C7    A    
O5    Zn1   S    
C14   C15   D    
C3    H2    S    
C6    C8    A    
C7    H12   S    
C2    C19   A    
C17   O6    A    
N1    Zn2   S    
C16   O5    A    
H6    N2    S    
C3    C5    A    
