data_mof_unit_3620.cif
_audit_creation_date              2013-03-05T15:55:55-0500
_audit_creation_method            fapswitch 2.2
_symmetry_space_group_name_H-M    P1
_symmetry_Int_Tables_number       1
_space_group_crystal_system       triclinic
_cell_length_a                    21.630823
_cell_length_b                    7.180727
_cell_length_c                    14.863628
_cell_angle_alpha                 90.000762
_cell_angle_beta                  107.461416
_cell_angle_gamma                 90.000813
_cell_volume                      2202.30717102

loop_
_atom_site_label
_atom_site_type_symbol
_atom_site_description
_atom_site_fract_x
_atom_site_fract_y
_atom_site_fract_z
_atom_type_partial_charge
O1    O     O_R   0.335860 0.638190 0.002110 -0.600072
O2    O     O_R   0.664140 0.361810 0.997890 -0.598884
O3    O     O_R   0.164140 0.138190 0.997890 -0.598908
O4    O     O_R   0.835860 0.861810 0.002110 -0.600042
O5    O     O_R   0.217530 0.305920 0.861960 -0.584739
O6    O     O_R   0.782470 0.694080 0.138040 -0.574769
O7    O     O_R   0.282470 0.805920 0.138040 -0.574768
O8    O     O_R   0.717530 0.194080 0.861960 -0.584771
C1    C     C_R   0.205654 0.476318 0.825151 1.026166
C2    C     C_R   0.794069 0.523586 0.174910 0.997990
C3    C     C_R   0.294077 0.976417 0.174909 0.998097
C4    C     C_R   0.705656 0.023679 0.825152 1.026076
O9    O     O_R   0.338690 0.308320 0.993240 -0.596549
O10   O     O_R   0.661310 0.691680 0.006760 -0.593446
O11   O     O_R   0.161310 0.808320 0.006760 -0.593455
O12   O     O_R   0.838690 0.191680 0.993240 -0.596610
O13   O     O_R   0.286170 0.140430 0.130100 -0.571889
O14   O     O_R   0.713830 0.859570 0.869900 -0.582161
O15   O     O_R   0.213830 0.640430 0.869900 -0.582188
O16   O     O_R   0.786170 0.359570 0.130100 -0.571891
C5    C     C_R   0.365005 0.477266 0.997945 0.999799
C6    C     C_R   0.634897 0.522765 0.001568 0.990239
C7    C     C_R   0.134897 0.977233 0.001567 0.990227
C8    C     C_R   0.865005 0.022736 0.997944 0.999703
O17   O     O_3   0.232630 0.472410 0.044750 -0.278386
O18   O     O_3   0.767370 0.527590 0.955250 -0.283462
O19   O     O_3   0.267370 0.972410 0.955250 -0.283460
O20   O     O_3   0.732630 0.027590 0.044750 -0.278347
V1    V     V_3+5 0.253220 0.196620 0.991700 1.259206
V2    V     V_3+5 0.746780 0.803380 0.008300 1.263122
V3    V     V_3+5 0.246780 0.696620 0.008300 1.263053
V4    V     V_3+5 0.753220 0.303380 0.991700 1.259205
C9    C     C_R   0.030002 0.826393 0.003905 -0.018067
C10   C     C_R   0.969709 0.173545 0.994665 -0.032223
C11   C     C_R   0.469708 0.326455 0.994668 -0.032012
C12   C     C_R   0.530004 0.673606 0.003906 -0.018084
H1    H     H_    0.052004 0.690086 0.007287 0.132267
H2    H     H_    0.947681 0.309840 0.991137 0.129429
H3    H     H_    0.447678 0.190160 0.991141 0.129424
H4    H     H_    0.552007 0.809913 0.007288 0.132313
C13   C     C_R   0.965075 0.837722 0.002541 -0.041425
C14   C     C_R   0.034631 0.162211 0.995997 -0.024467
C15   C     C_R   0.534630 0.337787 0.996000 -0.024364
C16   C     C_R   0.465078 0.662278 0.002543 -0.041555
H5    H     H_    0.939377 0.709405 0.005161 0.128483
H6    H     H_    0.060293 0.290512 0.993188 0.137377
H7    H     H_    0.560290 0.209486 0.993192 0.137375
H8    H     H_    0.439381 0.790596 0.005163 0.128519
C17   C     C_R   0.933950 0.011497 0.998065 -0.123107
C18   C     C_R   0.065818 0.988456 0.000796 -0.132567
C19   C     C_R   0.565818 0.511542 0.000798 -0.132601
C20   C     C_R   0.433951 0.488504 0.998067 -0.123154
C21   C     C_R   0.678173 0.024322 0.721748 -0.287515
C22   C     C_R   0.318141 0.981529 0.278699 -0.288462
C23   C     C_R   0.818111 0.518511 0.278703 -0.288381
C24   C     C_R   0.178146 0.475661 0.721747 -0.287597
C25   C     C_R   0.676756 0.174149 0.575557 -0.143279
C26   C     C_R   0.309685 0.892705 0.431699 -0.118847
C27   C     C_R   0.809674 0.607771 0.431656 -0.118757
C28   C     C_R   0.176665 0.325733 0.575554 -0.143283
C29   C     C_R   0.711980 0.109594 0.665188 0.337820
C30   C     C_R   0.281331 0.907876 0.334103 0.354554
C31   C     C_R   0.781318 0.592418 0.334070 0.354749
C32   C     C_R   0.211927 0.390391 0.665148 0.337866
C33   C     C_R   0.611940 0.987190 0.683841 -0.164219
C34   C     C_R   0.381547 0.042179 0.322231 -0.109470
C35   C     C_R   0.881495 0.457725 0.322272 -0.109476
C36   C     C_R   0.111910 0.512814 0.683879 -0.164270
C37   C     C_R   0.574721 0.065942 0.596946 0.158231
C38   C     C_R   0.409379 0.038476 0.421511 0.164309
C39   C     C_R   0.909323 0.461606 0.421551 0.164339
C40   C     C_R   0.074659 0.434054 0.597000 0.158284
C41   C     C_R   0.608700 0.159426 0.542062 -0.092806
C42   C     C_R   0.373842 0.951556 0.475885 -0.098825
C43   C     C_R   0.873814 0.548831 0.475873 -0.098758
C44   C     C_R   0.108608 0.340425 0.542120 -0.092738
C45   C     C_R   0.505375 0.050889 0.561843 -0.133538
C46   C     C_R   0.473603 0.104147 0.466671 -0.117834
C47   C     C_R   0.973525 0.395836 0.466749 -0.117729
C48   C     C_R   0.005314 0.449242 0.561897 -0.133416
C49   C     C_R   0.506884 0.224044 0.420537 0.221790
C50   C     C_R   0.466238 0.986265 0.617576 0.247626
C51   C     C_R   0.966196 0.514196 0.617588 0.247662
C52   C     C_R   0.006768 0.275705 0.420672 0.221667
C53   C     C_R   0.574358 0.244470 0.456384 0.237806
C54   C     C_R   0.402041 0.928462 0.573795 0.261622
C55   C     C_R   0.902022 0.572144 0.573767 0.261581
C56   C     C_R   0.074238 0.255239 0.456495 0.237748
N1    N     N_R   0.607555 0.361232 0.407679 0.258653
O21   O     O_R   0.639722 0.287210 0.355489 -0.312207
O22   O     O_R   0.603596 0.541472 0.412729 -0.312254
N2    N     N_R   0.366664 0.836244 0.628642 0.258227
O23   O     O_R   0.352254 0.660842 0.613946 -0.313390
O24   O     O_R   0.353408 0.921578 0.697808 -0.281139
N3    N     N_R   0.866685 0.664770 0.628544 0.258267
O25   O     O_R   0.852363 0.840197 0.613727 -0.313409
O26   O     O_R   0.853341 0.579734 0.697719 -0.281027
N4    N     N_R   0.107405 0.138282 0.407833 0.258701
O27   O     O_R   0.139463 0.212086 0.355440 -0.312122
O28   O     O_R   0.103559 0.958063 0.413183 -0.312456
H9    H     H_    0.409991 0.079753 0.276482 0.147193
H10   H     H_    0.590771 0.900939 0.725817 0.170619
H11   H     H_    0.090772 0.599104 0.725874 0.170649
H12   H     H_    0.909933 0.419916 0.276548 0.147175
N5    N     N_R   0.215681 0.845359 0.292587 0.254581
O29   O     O_R   0.176973 0.933401 0.221267 -0.385502
O30   O     O_R   0.192395 0.711081 0.331563 -0.311135
N6    N     N_R   0.781590 0.131377 0.697367 0.264517
O31   O     O_R   0.816848 0.041260 0.770833 -0.372594
O32   O     O_R   0.810973 0.221439 0.646118 -0.317094
N7    N     N_R   0.281547 0.368752 0.697223 0.264654
O33   O     O_R   0.316812 0.458366 0.770865 -0.372780
O34   O     O_R   0.310923 0.279452 0.645720 -0.317071
N8    N     N_R   0.715680 0.654999 0.292519 0.254575
O35   O     O_R   0.676952 0.566837 0.221262 -0.385393
O36   O     O_R   0.692420 0.789441 0.331425 -0.311167
H13   H     H_    0.702893 0.241669 0.533006 0.200254
H14   H     H_    0.280528 0.836153 0.472928 0.198475
H15   H     H_    0.780533 0.664542 0.472856 0.198404
H16   H     H_    0.202772 0.258157 0.532978 0.200201
N9    N     N_R   0.471820 0.345080 0.345248 0.240236
O37   O     O_R   0.489321 0.362744 0.269177 -0.360699
O38   O     O_R   0.422918 0.441568 0.353684 -0.374253
N10   N     N_R   0.487695 0.001992 0.718622 0.241966
O39   O     O_R   0.485976 0.858735 0.771514 -0.370467
O40   O     O_R   0.509326 0.160517 0.758082 -0.381100
N11   N     N_R   0.987634 0.498668 0.718641 0.241933
O41   O     O_R   0.009199 0.340163 0.758182 -0.381064
O42   O     O_R   0.985957 0.642080 0.771459 -0.370399
N12   N     N_R   0.971665 0.154508 0.345480 0.240211
O43   O     O_R   0.922732 0.058268 0.353995 -0.374191
O44   O     O_R   0.989159 0.136448 0.269424 -0.360677

loop_
_geom_bond_atom_site_label_1
_geom_bond_atom_site_label_2
_geom_bond_distance
_ccdc_geom_bond_type
O17   V3    1.754651 S    
C51   C55   1.407736 A    
C26   C30   1.399429 A    
O19   V1    1.754647 S    
O13   V1    2.005665 S    
C37   C45   1.436754 A    
N3    O25   1.300150 A    
C10   C14   1.400867 A    
C36   H11   1.074197 S    
C26   H14   1.081746 S    
C40   C44   1.419907 A    
O15   V3    2.005651 S    
C39   C47   1.429371 A    
N8    O35   1.300712 A    
O4    V2    2.000930 S    
C30   N5    1.439788 S    
C45   C46   1.426975 A    
O1    C5    1.326658 A    
N5    O30   1.301595 A    
O9    V1    2.009091 S    
C47   C52   1.423305 A    
O4    C8    1.326653 A    
C38   C46   1.429408 A    
O1    V3    2.000941 S    
N6    O31   1.301166 A    
O2    V4    2.000938 S    
C14   H6    1.082846 S    
C25   C41   1.409359 A    
O3    V1    2.000927 S    
C29   N6    1.445068 S    
C38   C42   1.416496 A    
C31   N8    1.439780 S    
C21   C29   1.409033 A    
C1    O15   1.338578 A    
N7    O33   1.301143 A    
C2    O16   1.338506 A    
C55   N3    1.436318 S    
O2    C6    1.326533 A    
C24   C32   1.409076 A    
C37   C41   1.419913 A    
O14   V2    2.005666 S    
N1    O22   1.300737 A    
C21   C33   1.398799 A    
C44   C56   1.406692 A    
C4    C21   1.472191 S    
C36   C40   1.418522 A    
C16   C20   1.409937 A    
O11   C7    1.333083 A    
O12   C8    1.332942 A    
C34   H9    1.079289 S    
C23   C31   1.409032 A    
C33   H10   1.074244 S    
O10   V2    2.009087 S    
C48   C51   1.427971 A    
C50   N10   1.437216 S    
C35   H12   1.079296 S    
O7    C3    1.334035 A    
O5    V1    2.009319 S    
O7    V3    2.009290 S    
O8    V4    2.009291 S    
C12   H4    1.082908 S    
C53   N1    1.433403 S    
O18   V4    1.754652 S    
C32   N7    1.445152 S    
C22   C30   1.409017 A    
C9    C18   1.406429 A    
C50   C54   1.407735 A    
C28   C44   1.409334 A    
C9    H1    1.082907 S    
C49   N9    1.440009 S    
N12   O44   1.301789 A    
N11   O42   1.302001 A    
O5    C1    1.333476 A    
C23   C35   1.398866 A    
O8    C4    1.333468 A    
N2    O24   1.300574 A    
O9    C5    1.332937 A    
N7    O34   1.301114 A    
C1    C24   1.472229 S    
C42   C54   1.408814 A    
C25   C29   1.400407 A    
C2    C23   1.473212 S    
C12   C19   1.406433 A    
C41   C53   1.406714 A    
N9    O37   1.301815 A    
C3    C22   1.473198 S    
C14   C18   1.409983 A    
C43   C55   1.408786 A    
O6    V2    2.009318 S    
N4    O28   1.300739 A    
C12   C16   1.400835 A    
C25   H13   1.081349 S    
N11   O41   1.301525 A    
C27   C43   1.410237 A    
C11   C15   1.400866 A    
C26   C42   1.410253 A    
N10   O40   1.301525 A    
O16   V4    2.005650 S    
C8    C17   1.492998 S    
C3    O13   1.338490 A    
C10   C17   1.406511 A    
C27   H15   1.081750 S    
C10   H2    1.082891 S    
C52   C56   1.403123 A    
C51   N11   1.437203 S    
C7    C18   1.493017 S    
O6    C2    1.334024 A    
N8    O36   1.301597 A    
N3    O26   1.300572 A    
O11   V3    2.009108 S    
C22   C34   1.398867 A    
O12   V4    2.009113 S    
C13   C17   1.409941 A    
N5    O29   1.300712 A    
C27   C31   1.399413 A    
C28   C32   1.400407 A    
C9    C13   1.400837 A    
O10   C6    1.333077 A    
O20   V2    1.754646 S    
N12   O43   1.301679 A    
C40   C48   1.436805 A    
C24   C36   1.398842 A    
C39   C43   1.416463 A    
C46   C49   1.423353 A    
C15   C19   1.409979 A    
C34   C38   1.416881 A    
C45   C50   1.427961 A    
C33   C37   1.418493 A    
C11   H3    1.082891 S    
C52   N12   1.440026 S    
N2    O23   1.300141 A    
N6    O32   1.301162 A    
C28   H16   1.081353 S    
C35   C39   1.416892 A    
C49   C53   1.403172 A    
N9    O38   1.301656 A    
C47   C48   1.427003 A    
N4    O27   1.300853 A    
C4    O14   1.338568 A    
C11   C20   1.406515 A    
C13   H5    1.082808 S    
N10   O39   1.301999 A    
C54   N2    1.436339 S    
O3    C7    1.326529 A    
N1    O21   1.300895 A    
C15   H7    1.082846 S    
C5    C20   1.492993 S    
C56   N4    1.433390 S    
C16   H8    1.082809 S    
C6    C19   1.493015 S    
