data_mof_unit_1407.cif
_audit_creation_date              2012-10-26T20:19:15-0400
_audit_creation_method            fapswitch 2.2
_symmetry_space_group_name_H-M    P1
_symmetry_Int_Tables_number       1
_space_group_crystal_system       triclinic
_cell_length_a                    14.994827
_cell_length_b                    12.975695
_cell_length_c                    11.811813
_cell_angle_alpha                 99.521927
_cell_angle_beta                  91.672963
_cell_angle_gamma                 92.382887
_cell_volume                      2263.06273399

loop_
_atom_site_label
_atom_site_type_symbol
_atom_type_description
_atom_site_fract_x
_atom_site_fract_y
_atom_site_fract_z
_atom_type_partial_charge
C1    C     C_R   0.497798 0.299603 0.478897 0.546409
C2    C     C_R   0.541305 0.875132 0.633538 -0.118351
C3    C     C_R   0.524900 0.139533 0.557251 -0.084759
C4    C     C_R   0.472076 0.860377 0.443435 -0.088135
C5    C     C_R   0.516367 0.031372 0.551912 0.005972
C6    C     C_R   0.479172 0.968739 0.449360 0.006673
C7    C     C_R   0.410964 0.402317 0.031182 0.021419
C8    C     C_R   0.584082 0.602231 0.970050 0.023230
C9    C     C_R   0.418517 0.416501 0.151194 0.034605
C10   C     C_R   0.578195 0.587474 0.849950 0.037480
C11   C     C_R   0.542506 0.536094 0.152115 0.207141
C12   C     C_R   0.501710 0.700412 0.521153 0.556319
C13   C     C_R   0.458263 0.461598 0.846484 0.202581
C14   C     C_R   0.531223 0.536010 0.031224 -0.056774
C15   C     C_R   0.466118 0.465073 0.968478 -0.063579
C16   C     C_R   0.329123 0.500252 0.501806 0.539382
C17   C     C_R   0.670835 0.499876 0.498276 0.551122
C18   C     C_R   0.814793 0.568433 0.439514 -0.119434
C19   C     C_R   0.185052 0.433697 0.562949 -0.094213
C20   C     C_R   0.767265 0.498243 0.495648 0.009697
C21   C     C_R   0.232639 0.502396 0.504861 0.008549
C22   C     C_R   0.811964 0.430119 0.555467 -0.117696
C23   C     C_R   0.043610 0.363529 0.619330 -0.108099
C24   C     C_R   0.187916 0.570101 0.444445 -0.120122
C25   C     C_R   0.904958 0.430390 0.557749 0.018499
C26   C     C_R   0.094923 0.570565 0.443051 0.017733
C27   C     C_R   0.953152 0.500144 0.499602 0.066005
C28   C     C_R   0.046721 0.501224 0.501703 0.061790
C29   C     C_R   0.907819 0.569272 0.439978 0.014188
C30   C     C_R   0.092041 0.432581 0.561978 0.018923
C31   C     C_R   0.950522 0.362472 0.617268 -0.114178
C32   C     C_R   0.049346 0.638778 0.383914 -0.110924
C33   C     C_2   0.348637 0.315459 0.978633 0.579729
C34   C     C_R   0.956265 0.638414 0.382754 -0.116340
C35   C     C_2   0.639371 0.695187 0.025163 0.578221
C36   C     C_2   0.411326 0.956874 0.245799 0.568681
C37   C     C_2   0.579417 0.044147 0.757733 0.567787
C38   C     C_2   0.379869 0.406751 0.782540 0.639967
C39   C     C_2   0.627383 0.579822 0.209709 0.635580
C40   C     C_R   0.504953 0.813841 0.533203 -0.019091
C41   C     C_R   0.492878 0.186233 0.467238 -0.023433
C42   C     C_R   0.448708 0.016518 0.356444 0.058706
C43   C     C_R   0.545762 0.983902 0.645478 0.057376
C44   C     C_R   0.454721 0.125271 0.367837 -0.122961
Cu1   Cu    Cu3+1 0.506660 0.507730 0.615930 1.010951
Cu2   Cu    Cu3+1 0.493340 0.492270 0.384070 1.015089
H1    H     H_    0.774119 0.377021 0.599944 0.124673
H2    H     H_    0.922145 0.691815 0.336784 0.128390
H3    H     H_    0.439996 0.810779 0.369859 0.182997
H4    H     H_    0.557863 0.188763 0.630489 0.188268
H5    H     H_    0.565279 0.838057 0.703695 0.164003
H6    H     H_    0.430382 0.162583 0.298044 0.163712
H7    H     H_    0.422592 0.837125 0.115040 0.358477
H8    H     H_    0.563636 0.164350 0.886683 0.361454
H9    H     H_    0.326812 0.275165 0.684201 0.322631
H10   H     H_    0.762002 0.579285 0.204556 0.331835
H11   H     H_    0.619200 0.635817 0.803537 0.165316
H12   H     H_    0.225742 0.622528 0.399116 0.125158
H13   H     H_    0.375548 0.370830 0.198285 0.154487
H14   H     H_    0.779436 0.624476 0.399091 0.145033
H15   H     H_    0.220196 0.378938 0.605473 0.140795
H16   H     H_    0.221116 0.258489 0.955520 0.350602
H17   H     H_    0.756843 0.777837 0.031904 0.355527
H18   H     H_    0.914170 0.308640 0.662183 0.131301
H19   H     H_    0.085689 0.692419 0.338751 0.131421
H20   H     H_    0.077734 0.310449 0.665739 0.134394
N1    N     N_R   0.516670 0.519360 0.790130 -0.284840
N2    N     N_R   0.483330 0.480640 0.209870 -0.282816
O1    O     O_R   0.504720 0.354460 0.582000 -0.467908
O2    O     O_R   0.256984 0.323407 0.994145 -0.668542
O3    O     O_2   0.607736 0.760469 0.097651 -0.441225
O4    O     O_R   0.726164 0.710916 0.989279 -0.681566
O5    O     O_2   0.344769 0.986591 0.200792 -0.497967
O6    O     O_R   0.454183 0.870076 0.190181 -0.643918
O7    O     O_2   0.644406 0.015163 0.806762 -0.496391
O8    O     O_R   0.534602 0.130787 0.810121 -0.637979
O9    O     O_2   0.307465 0.446639 0.792664 -0.518819
O10   O     O_R   0.386266 0.306427 0.719632 -0.634728
O11   O     O_2   0.629141 0.657229 0.284392 -0.469842
O12   O     O_R   0.495280 0.645540 0.418000 -0.462501
O13   O     O_R   0.706877 0.536322 0.170441 -0.693808
O14   O     O_R   0.493480 0.341410 0.386200 -0.517736
O15   O     O_R   0.506520 0.658590 0.613800 -0.519581
O16   O     O_R   0.375880 0.506510 0.597910 -0.472986
O17   O     O_R   0.624120 0.493490 0.402090 -0.471172
O18   O     O_R   0.364640 0.493450 0.402110 -0.519107
O19   O     O_R   0.635360 0.506550 0.597890 -0.513822
O20   O     O_2   0.377709 0.235063 0.926924 -0.444933

loop_
_geom_bond_atom_site_label_1
_geom_bond_atom_site_label_2
_ccdc_geom_bond_type
C25   C31   A    
C26   C32   A    
C16   C21   S    
C27   C29   A    
C36   C42   S    
H7    O6    S    
H10   O13   S    
C10   N1    A    
C17   O17   A    
C23   H20   S    
Cu1   O19   S    
C33   O20   D    
C24   C26   A    
C5    C6    A    
C11   C14   A    
C39   O11   D    
C16   O16   A    
C17   C20   S    
H16   O2    S    
Cu2   O14   S    
C4    C40   A    
C22   C25   A    
Cu1   N1    S    
Cu2   O17   S    
C44   H6    S    
C7    C15   A    
C22   H1    S    
C5    C43   A    
C35   O3    D    
C16   O18   A    
C7    C33   S    
Cu1   O15   S    
C42   C44   A    
C3    H4    S    
Cu1   O1    S    
C23   C30   A    
C10   H11   S    
C39   O13   S    
C4    C6    A    
C2    H5    S    
H9    O10   S    
C38   O10   S    
C1    O14   A    
Cu1   Cu2   S    
C29   C34   A    
C1    O1    A    
C12   O15   A    
C9    H13   S    
C8    C35   S    
C23   C31   A    
C12   C40   S    
Cu2   N2    S    
C2    C43   A    
C18   C29   A    
C11   C39   S    
C13   C38   S    
C36   O6    S    
C33   O2    S    
H8    O8    S    
C18   H14   S    
C37   O8    S    
C20   C22   A    
C35   O4    S    
C13   C15   A    
C41   C44   A    
C37   C43   S    
Cu1   O16   S    
C34   H2    S    
C11   N2    A    
C13   N1    A    
C1    C41   S    
C7    C9    A    
C3    C41   A    
C8    C14   A    
C19   C21   A    
C17   O19   A    
C31   H18   S    
C8    C10   A    
C3    C5    A    
C38   O9    D    
C25   C27   A    
C26   C28   A    
C4    H3    S    
C28   C30   A    
C9    N2    A    
Cu2   O12   S    
C19   H15   S    
C12   O12   A    
C18   C20   A    
C37   O7    D    
C36   O5    D    
C2    C40   A    
H17   O4    S    
C24   H12   S    
C6    C42   A    
C21   C24   A    
C27   C28   A    
C14   C15   A    
C19   C30   A    
C32   C34   A    
C32   H19   S    
Cu2   O18   S    
