data_mof_unit_4143.cif
_audit_creation_date              2012-12-10T18:26:30-0500
_audit_creation_method            fapswitch 2.2
_symmetry_space_group_name_H-M    P1
_symmetry_Int_Tables_number       1
_space_group_crystal_system       triclinic
_cell_length_a                    15.002312
_cell_length_b                    14.14616
_cell_length_c                    22.585582
_cell_angle_alpha                 90.631861
_cell_angle_beta                  90.877923
_cell_angle_gamma                 88.506154
_cell_volume                      4790.76511926

loop_
_atom_site_label
_atom_site_type_symbol
_atom_type_description
_atom_site_fract_x
_atom_site_fract_y
_atom_site_fract_z
_atom_type_partial_charge
C1    C     C_R   0.327050 0.501575 0.500543 1.011035
C2    C     C_R   0.586153 0.562966 0.696256 0.405862
C3    C     C_3   0.079329 0.416535 0.309110 0.157142
C4    C     C_3   0.072552 0.339888 0.261023 -0.353875
C5    C     C_3   0.065654 0.382937 0.199396 -0.878096
C6    C     C_R   0.415498 0.541748 0.238030 -0.280416
C7    C     C_R   0.579868 0.611162 0.750123 -0.248563
C8    C     C_R   0.493135 0.553473 0.205214 -0.000255
C9    C     C_R   0.516115 0.585280 0.791238 -0.006771
C10   C     C_R   0.821451 0.430139 0.476524 0.433458
C11   C     C_R   0.187682 0.544304 0.551128 0.404365
C12   C     C_R   0.770974 0.498577 0.507630 -0.333005
C13   C     C_R   0.231423 0.507097 0.501468 -0.314805
C14   C     C_R   0.814755 0.569037 0.541333 0.389198
C15   C     C_R   0.673788 0.499146 0.502947 0.997644
C16   C     C_R   0.183716 0.488455 0.449220 0.404907
C17   C     C_R   0.908189 0.563612 0.546705 -0.107323
C18   C     C_R   0.092833 0.473549 0.452870 -0.082643
C19   C     C_R   0.502297 0.499297 0.388589 1.035442
C20   C     C_R   0.500266 0.500884 0.611832 1.032537
C21   C     C_R   0.955248 0.509990 0.503746 -0.132347
C22   C     C_R   0.047585 0.514046 0.501669 -0.125783
C23   C     C_R   0.910213 0.448431 0.464612 -0.092557
C24   C     C_R   0.095095 0.560577 0.547533 -0.103738
C25   C     C_R   0.955165 0.612090 0.592052 0.417855
C26   C     C_R   0.576331 0.524237 0.231272 0.489778
C27   C     C_R   0.046523 0.422483 0.408672 0.385902
C28   C     C_R   0.048412 0.617806 0.588726 0.288273
C29   C     C_R   0.955676 0.405419 0.416514 0.342826
C30   C     C_R   0.549368 0.796090 0.459276 0.378096
C31   C     C_R   0.443668 0.203818 0.536322 0.433294
C32   C     C_R   0.446344 0.799927 0.538217 0.429820
C33   C     C_R   0.550884 0.199267 0.460120 0.468542
C34   C     C_R   0.444974 0.900795 0.539473 -0.184751
C35   C     C_R   0.551545 0.098246 0.458337 -0.167736
C36   C     C_R   0.544721 0.896625 0.455038 -0.167452
C37   C     C_R   0.461000 0.507621 0.776796 0.473156
C38   C     C_R   0.439197 0.103134 0.535636 -0.192522
C39   C     C_R   0.495218 0.949185 0.497319 -0.116372
C40   C     C_R   0.495323 0.050247 0.497092 -0.115588
C41   C     C_R   0.393361 0.955031 0.580162 0.388431
C42   C     C_R   0.604095 0.044426 0.417459 0.386307
C43   C     C_R   0.589506 0.946203 0.410635 0.427432
C44   C     C_R   0.380897 0.053179 0.572275 0.393364
C45   C     C_R   0.581830 0.652356 0.882756 0.571286
C46   C     C_R   0.418076 0.566334 0.108401 0.575881
C47   C     C_R   0.424191 0.648095 0.870115 0.631881
C48   C     C_R   0.581278 0.508165 0.292538 0.258062
C49   C     C_R   0.549813 0.653266 0.127060 0.605217
C50   C     C_R   0.412311 0.650784 0.931572 -0.212109
C51   C     C_R   0.554503 0.675989 0.066627 -0.202662
C52   C     C_R   0.488101 0.663324 0.967938 -0.146487
C53   C     C_R   0.482591 0.651601 0.029321 -0.139380
C54   C     C_R   0.571567 0.678652 0.942765 -0.143668
C55   C     C_R   0.408073 0.607488 0.052331 -0.143193
C56   C     C_R   0.329775 0.631145 0.957853 0.431922
C57   C     C_R   0.629941 0.717713 0.041500 0.433309
C58   C     C_R   0.329669 0.600735 0.016896 0.334102
C59   C     C_R   0.453663 0.476731 0.717804 0.295966
C60   C     C_R   0.642074 0.710327 0.979855 0.338036
C61   C     C_3   0.216217 0.718737 0.914656 0.168436
C62   C     C_3   0.152546 0.749233 0.964126 -0.371470
C63   C     C_3   0.105661 0.843608 0.950283 -0.901713
C64   C     C_3   0.672703 0.846109 0.096857 0.161900
C65   C     C_3   0.696692 0.921367 0.051856 -0.359417
C66   C     C_3   0.680826 0.021053 0.076709 -0.975230
C67   C     C_3   0.386653 0.936519 0.681326 0.166671
C68   C     C_3   0.445832 0.854417 0.704141 -0.324024
C69   C     C_3   0.484036 0.875954 0.765689 -0.937589
C70   C     C_R   0.502280 0.499159 0.324109 -0.323529
C71   C     C_3   0.689353 0.086735 0.335823 0.229895
C72   C     C_3   0.769385 0.027204 0.314037 -0.304376
C73   C     C_3   0.777456 0.031622 0.246902 -0.986916
C74   C     C_3   0.553602 0.905561 0.314429 0.069594
C75   C     C_3   0.508134 0.810934 0.304124 -0.246377
C76   C     C_3   0.444975 0.815319 0.250520 -0.979813
C77   C     C_3   0.229270 0.079096 0.578608 0.168898
C78   C     C_3   0.201708 0.152610 0.531892 -0.377655
C79   C     C_3   0.110304 0.132366 0.504778 -0.889682
C80   C     C_3   0.648176 0.435323 0.160110 0.094489
C81   C     C_R   0.514836 0.507605 0.676261 -0.363174
C82   C     C_3   0.664546 0.342342 0.193616 -0.341597
C83   C     C_3   0.663276 0.257367 0.151438 -0.965811
C84   C     C_3   0.460822 0.412695 0.858504 0.073727
C85   C     C_3   0.479728 0.313373 0.833033 -0.334416
C86   C     C_3   0.531502 0.251643 0.877351 -0.937241
C87   C     C_3   0.349124 0.365710 0.316115 0.133760
C88   C     C_3   0.333779 0.326374 0.253209 -0.366535
C89   C     C_3   0.327477 0.218879 0.253399 -0.960812
C90   C     C_3   0.704893 0.472905 0.662803 0.127662
C91   C     C_3   0.729024 0.431600 0.724112 -0.402498
C92   C     C_R   0.420622 0.501258 0.293604 0.345987
C93   C     C_3   0.772051 0.332987 0.718436 -0.906666
C94   C     C_3   0.755500 0.720910 0.540509 0.199266
C95   C     C_3   0.803223 0.802865 0.570932 -0.355771
C96   C     C_3   0.775552 0.897282 0.543024 -0.903486
C97   C     C_3   0.235938 0.602210 0.387937 0.140713
C98   C     C_3   0.196098 0.637285 0.329197 -0.351958
C99   C     C_3   0.215388 0.741437 0.319944 -0.942189
C100  C     C_3   0.939423 0.622730 0.695825 0.157360
C101  C     C_3   0.963246 0.516217 0.701039 -0.464205
C102  C     C_3   0.979147 0.488176 0.765489 -0.805166
Cl1   Cl    Cl    0.101310 0.712576 0.625650 -0.519114
Cl2   Cl    Cl    0.367424 0.400430 0.698673 -0.420930
Cl3   Cl    Cl    0.785519 0.312435 0.471125 -0.452290
Cl4   Cl    Cl    0.247413 0.556807 0.618726 -0.417374
Cl5   Cl    Cl    0.899128 0.337719 0.362013 -0.522480
Cl6   Cl    Cl    0.625431 0.728463 0.416306 -0.563842
Cl7   Cl    Cl    0.377867 0.272580 0.584322 -0.470795
Cl8   Cl    Cl    0.374121 0.735414 0.581872 -0.463271
Cl9   Cl    Cl    0.604932 0.261863 0.405189 -0.517178
Cl10  Cl    Cl    0.228687 0.559353 0.045203 -0.536178
Cl11  Cl    Cl    0.745013 0.745405 0.951210 -0.532579
Cl12  Cl    Cl    0.686058 0.494257 0.328303 -0.467535
H1    H     H_    0.350204 0.560036 0.220056 0.222741
H2    H     H_    0.710499 0.859569 0.138670 0.191314
H3    H     H_    0.125091 0.425560 0.190596 0.278106
H4    H     H_    0.600592 0.853373 0.108020 0.109605
H5    H     H_    0.768035 0.912290 0.039953 0.273019
H6    H     H_    0.655112 0.912900 0.011112 0.230026
H7    H     H_    0.610299 0.031396 0.090166 0.265850
H8    H     H_    0.695497 0.073707 0.042327 0.284094
H9    H     H_    0.725425 0.033441 0.115529 0.274421
H10   H     H_    0.331280 0.949017 0.712793 0.180604
H11   H     H_    0.425688 0.002673 0.681468 0.128717
H12   H     H_    0.406048 0.789406 0.706423 0.293648
H13   H     H_    0.627502 0.665247 0.760181 0.230441
H14   H     H_    0.501667 0.841019 0.673113 0.221807
H15   H     H_    0.524922 0.940263 0.764696 0.265940
H16   H     H_    0.527069 0.815580 0.780722 0.278164
H17   H     H_    0.429320 0.886946 0.797854 0.268184
H18   H     H_    0.702468 0.161198 0.324455 0.216988
H19   H     H_    0.626755 0.069812 0.311667 0.071325
H20   H     H_    0.831403 0.054279 0.334929 0.247298
H21   H     H_    0.763678 0.952379 0.327132 0.273372
H22   H     H_    0.715675 0.006269 0.224940 0.253340
H23   H     H_    0.834464 0.985855 0.232413 0.285029
H24   H     H_    0.177934 0.716925 0.872168 0.200520
H25   H     H_    0.789452 0.105263 0.233132 0.277128
H26   H     H_    0.588170 0.923059 0.272974 0.163616
H27   H     H_    0.501702 0.962565 0.321578 0.085707
H28   H     H_    0.559430 0.754260 0.296252 0.288064
H29   H     H_    0.469303 0.792949 0.343736 0.212874
H30   H     H_    0.392026 0.870513 0.257443 0.262701
H31   H     H_    0.412933 0.746091 0.244109 0.275358
H32   H     H_    0.482220 0.831442 0.209872 0.275952
H33   H     H_    0.179916 0.082777 0.614779 0.179194
H34   H     H_    0.225479 0.006394 0.559209 0.149452
H35   H     H_    0.268461 0.772703 0.909363 0.112998
H36   H     H_    0.198978 0.224127 0.552709 0.280354
H37   H     H_    0.251632 0.152200 0.496044 0.221152
H38   H     H_    0.111452 0.062110 0.482308 0.265533
H39   H     H_    0.092241 0.187300 0.471612 0.290993
H40   H     H_    0.058806 0.133680 0.539619 0.273426
H41   H     H_    0.701002 0.441578 0.126552 0.188097
H42   H     H_    0.583794 0.433504 0.134951 0.125702
H43   H     H_    0.730181 0.343978 0.217066 0.277643
H44   H     H_    0.611829 0.333666 0.227013 0.219205
H45   H     H_    0.598545 0.255189 0.126971 0.272974
H46   H     H_    0.101559 0.694504 0.969576 0.282823
H47   H     H_    0.671820 0.191234 0.177092 0.269012
H48   H     H_    0.718345 0.261045 0.119299 0.276766
H49   H     H_    0.422696 0.406087 0.899977 0.190713
H50   H     H_    0.524506 0.446865 0.871355 0.119255
H51   H     H_    0.415639 0.279519 0.821478 0.268988
H52   H     H_    0.519477 0.318371 0.792115 0.217010
H53   H     H_    0.596619 0.283437 0.888626 0.269084
H54   H     H_    0.544102 0.180369 0.857659 0.272085
H55   H     H_    0.492637 0.243916 0.918411 0.269797
H56   H     H_    0.295640 0.340244 0.344957 0.211752
H57   H     H_    0.190590 0.756639 0.006437 0.232165
H58   H     H_    0.413071 0.336478 0.334706 0.152125
H59   H     H_    0.271521 0.358166 0.234082 0.250884
H60   H     H_    0.390029 0.345071 0.224504 0.240272
H61   H     H_    0.390873 0.186186 0.270343 0.261990
H62   H     H_    0.315115 0.192642 0.207571 0.280648
H63   H     H_    0.271849 0.197132 0.281683 0.265957
H64   H     H_    0.767292 0.477076 0.637719 0.178110
H65   H     H_    0.662430 0.423469 0.637116 0.124355
H66   H     H_    0.775130 0.479511 0.747835 0.251203
H67   H     H_    0.668432 0.425318 0.751300 0.215045
H68   H     H_    0.155373 0.899719 0.945333 0.259306
H69   H     H_    0.723766 0.283287 0.698352 0.272370
H70   H     H_    0.792010 0.306959 0.763031 0.274404
H71   H     H_    0.832144 0.334020 0.690454 0.264161
H72   H     H_    0.683229 0.739326 0.539680 0.186721
H73   H     H_    0.777829 0.714848 0.493602 0.154243
H74   H     H_    0.786642 0.805244 0.618741 0.267579
H75   H     H_    0.876436 0.792427 0.566528 0.251487
H76   H     H_    0.790777 0.896460 0.495023 0.287146
H77   H     H_    0.812723 0.955207 0.564892 0.281671
H78   H     H_    0.702987 0.911636 0.548705 0.261916
H79   H     H_    0.060538 0.863979 0.987059 0.283654
H80   H     H_    0.309052 0.612817 0.388066 0.183090
H81   H     H_    0.207537 0.648429 0.423889 0.123868
H82   H     H_    0.224690 0.595573 0.291847 0.250740
H83   H     H_    0.122720 0.628294 0.329056 0.209882
H84   H     H_    0.183719 0.785698 0.355119 0.270395
H85   H     H_    0.188035 0.764220 0.276274 0.276536
H86   H     H_    0.288411 0.752387 0.320914 0.266418
H87   H     H_    0.884734 0.639402 0.727184 0.185124
H88   H     H_    0.996065 0.665583 0.711389 0.199721
H89   H     H_    0.908772 0.474312 0.681605 0.225777
H90   H     H_    0.065327 0.837788 0.908803 0.277393
H91   H     H_    0.025073 0.498193 0.676549 0.249043
H92   H     H_    0.036685 0.526641 0.784537 0.288862
H93   H     H_    0.994141 0.411011 0.767821 0.273097
H94   H     H_    0.919226 0.504722 0.792293 0.258406
H95   H     H_    0.138100 0.459012 0.299402 0.185028
H96   H     H_    0.018805 0.464097 0.306440 0.143297
H97   H     H_    0.132200 0.291976 0.263450 0.230441
H98   H     H_    0.013086 0.296702 0.268204 0.273326
H99   H     H_    0.004641 0.428789 0.195501 0.282819
H100  H     H_    0.061882 0.325583 0.165560 0.275388
N1    N     N_R   0.508069 0.633524 0.848009 -0.335867
N2    N     N_R   0.486777 0.591920 0.145887 -0.332858
N3    N     N_R   0.500000 0.750030 0.500000 -0.193207
N4    N     N_R   0.500000 0.249970 0.500000 -0.188812
O1    O     O_R   0.367850 0.580280 0.500010 -0.601177
O2    O     O_2   0.363517 0.496599 0.123433 -0.527834
O3    O     O_2   0.353225 0.651903 0.832736 -0.480556
O4    O     O_2   0.608814 0.689461 0.166192 -0.499265
O5    O     O_3   0.251702 0.626256 0.924526 -0.551976
O6    O     O_3   0.697797 0.754071 0.076525 -0.556365
O7    O     O_3   0.348210 0.912677 0.625491 -0.578119
O8    O     O_3   0.683927 0.081096 0.398263 -0.573109
O9    O     O_3   0.619442 0.899120 0.360374 -0.603625
O10   O     O_3   0.313995 0.099420 0.603860 -0.586313
O11   O     O_3   0.653557 0.514873 0.198599 -0.551079
O12   O     O_R   0.632150 0.419720 0.499990 -0.557363
O13   O     O_3   0.407536 0.467314 0.818668 -0.553140
O14   O     O_3   0.344672 0.466004 0.317694 -0.622979
O15   O     O_3   0.665486 0.565559 0.665921 -0.582091
O16   O     O_3   0.766419 0.636418 0.573423 -0.562835
O17   O     O_3   0.220723 0.503748 0.394622 -0.611290
O18   O     O_3   0.908035 0.652538 0.638956 -0.604779
O19   O     O_3   0.093271 0.373452 0.364962 -0.603644
O20   O     O_R   0.632150 0.580280 0.499990 -0.577743
O21   O     O_R   0.367850 0.419720 0.500010 -0.580345
O22   O     O_R   0.499970 0.580290 0.416160 -0.598526
O23   O     O_R   0.500030 0.419710 0.583840 -0.580365
O24   O     O_R   0.500030 0.580290 0.583840 -0.564807
O25   O     O_R   0.499970 0.419710 0.416160 -0.586147
O26   O     O_2   0.664289 0.638342 0.861137 -0.516741
Zn1   Zn    Zn3+2 0.500000 0.607200 0.500000 1.045039
Zn2   Zn    Zn3+2 0.500000 0.392800 0.500000 1.068193

loop_
_geom_bond_atom_site_label_1
_geom_bond_atom_site_label_2
_ccdc_geom_bond_type
C3    H95   S    
C87   C88   S    
C90   H64   S    
C101  C102  S    
C64   H2    S    
C71   O8    S    
C49   O4    S    
C27   C29   A    
C86   H55   S    
C8    C26   A    
C95   C96   S    
C80   O11   S    
C67   H10   S    
C75   H29   S    
C97   C98   S    
C64   H4    S    
C54   C60   A    
C77   C78   S    
C1    O21   A    
C25   C28   A    
C20   O24   A    
C62   H57   S    
C15   O20   A    
C27   O19   S    
C62   C63   S    
C4    H97   S    
C32   Cl8   S    
O21   Zn2   S    
C58   Cl10  S    
C59   Cl2   S    
N4    Zn2   S    
C96   H77   S    
N3    Zn1   S    
C5    H100  S    
C67   H11   S    
C85   C86   S    
C82   H44   S    
C93   H70   S    
C61   H24   S    
C91   C93   S    
C67   O7    S    
C87   O14   S    
C97   O17   S    
C11   C24   A    
C11   C13   A    
C88   H60   S    
C64   O6    S    
C37   O13   S    
C66   H8    S    
C96   H76   S    
C84   O13   S    
C35   C42   A    
C45   N1    A    
C71   H18   S    
C68   C69   S    
C100  H88   S    
C34   C39   A    
C2    C7    A    
C25   O18   S    
C52   C54   A    
C69   H16   S    
C49   C51   A    
C47   N1    A    
C46   C55   A    
C95   H74   S    
C50   C52   A    
C63   H79   S    
C92   O14   S    
C33   Cl9   S    
C89   H63   S    
C24   C28   A    
C102  H93   S    
C68   H14   S    
C45   O26   S    
C32   N3    A    
C84   H50   S    
C26   C48   A    
C31   N4    A    
C3    H96   S    
C42   O8    S    
C47   O3    S    
C76   H32   S    
C63   H68   S    
C20   C81   S    
O20   Zn1   S    
C14   C17   A    
C60   Cl11  S    
C94   C95   S    
C34   C41   A    
C101  H91   S    
C9    C37   A    
C43   O9    S    
C78   H37   S    
C80   H42   S    
C47   C50   A    
C53   C55   A    
C26   O11   S    
C65   H5    S    
C20   O23   A    
C41   O7    S    
O24   Zn1   S    
C46   O2    S    
C63   H90   S    
C86   H53   S    
O23   Zn2   S    
C94   H72   S    
C86   H54   S    
C94   H73   S    
C80   C82   S    
C74   C75   S    
C39   C40   A    
C82   H43   S    
C78   C79   S    
C94   O16   S    
C57   C60   A    
C6    C8    A    
C73   H25   S    
C16   O17   S    
C8    N2    S    
C33   N4    A    
C87   H56   S    
C74   H26   S    
C17   C21   A    
C88   H59   S    
C67   C68   S    
C90   O15   S    
C5    H3    S    
C51   C53   A    
C32   C34   A    
C97   H80   S    
C99   H86   S    
C75   C76   S    
C61   O5    S    
C38   C44   A    
C74   O9    S    
C75   H28   S    
C79   H39   S    
C44   O10   S    
C100  H87   S    
C2    O15   S    
C72   H20   S    
C49   N2    A    
C73   H22   S    
C69   H17   S    
O25   Zn2   S    
C5    H99   S    
C91   H66   S    
C11   Cl4   S    
O1    Zn1   S    
C71   H19   S    
C31   Cl7   S    
C66   H7    S    
C98   H82   S    
C1    O1    A    
C84   C85   S    
C102  H92   S    
C77   H34   S    
C37   C59   A    
C84   H49   S    
C10   C12   A    
C3    O19   S    
C30   N3    A    
C51   C57   A    
C76   H30   S    
C16   C18   A    
C83   H48   S    
C12   C14   A    
C45   C54   A    
C82   C83   S    
C12   C15   S    
C46   N2    A    
C91   H67   S    
C15   O12   A    
C101  H89   S    
O22   Zn1   S    
C19   C70   S    
C41   C44   A    
C62   H46   S    
C100  O18   S    
C1    C13   S    
C42   C43   A    
C85   H52   S    
C3    C4    S    
C68   H12   S    
C14   O16   S    
C52   C53   A    
C78   H36   S    
C80   H41   S    
C48   Cl12  S    
C7    C9    A    
C77   H33   S    
C90   H65   S    
C98   H83   S    
C30   Cl6   S    
C18   C22   A    
C74   H27   S    
C36   C39   A    
C70   C92   A    
C18   C27   A    
C59   C81   A    
C48   C70   A    
C72   C73   S    
C2    C81   A    
O12   Zn2   S    
C76   H31   S    
C56   O5    S    
C23   C29   A    
C19   O25   A    
C10   C23   A    
C36   C43   A    
C4    H98   S    
C31   C38   A    
C30   C36   A    
C85   H51   S    
C64   C65   S    
C97   H81   S    
C21   C23   A    
C35   C40   A    
C13   C16   A    
C17   C25   A    
C71   C72   S    
C19   O22   A    
C79   H40   S    
C38   C40   A    
C9    N1    S    
C93   H69   S    
C28   Cl1   S    
C96   H78   S    
C90   C91   S    
C72   H21   S    
C73   H23   S    
C6    C92   A    
C87   H58   S    
C99   H84   S    
C100  C101  S    
C33   C35   A    
C65   H6    S    
C56   C58   A    
C22   C24   A    
C65   C66   S    
C83   H47   S    
C61   C62   S    
C50   C56   A    
C6    H1    S    
C102  H94   S    
C95   H75   S    
C4    C5    S    
C83   H45   S    
C88   C89   S    
C77   O10   S    
C69   H15   S    
C98   C99   S    
C55   C58   A    
C99   H85   S    
C89   H61   S    
C66   H9    S    
C29   Cl5   S    
C10   Cl3   S    
C89   H62   S    
C7    H13   S    
C21   C22   A    
C61   H35   S    
C79   H38   S    
C57   O6    S    
C93   H71   S    
