data_mof_unit_94.cif
_audit_creation_date              2012-12-10T19:27:36-0500
_audit_creation_method            fapswitch 2.2
_symmetry_space_group_name_H-M    P1
_symmetry_Int_Tables_number       1
_space_group_crystal_system       triclinic
_cell_length_a                    23.372439
_cell_length_b                    10.494228
_cell_length_c                    9.782892
_cell_angle_alpha                 89.268252
_cell_angle_beta                  89.258843
_cell_angle_gamma                 90.30035
_cell_volume                      2399.07421134

loop_
_atom_site_label
_atom_site_type_symbol
_atom_type_description
_atom_site_fract_x
_atom_site_fract_y
_atom_site_fract_z
_atom_type_partial_charge
C1    C     C_R   0.500572 0.257954 0.501102 0.896856
C2    C     C_R   0.700861 0.586758 0.414289 -0.292804
C3    C     C_R   0.239733 0.411561 0.594461 0.230535
C4    C     C_R   0.760342 0.588040 0.405841 0.230517
C5    C     C_R   0.209018 0.502451 0.518286 0.272956
C6    C     C_R   0.790980 0.497009 0.482011 0.272899
C7    C     C_3   0.507586 0.036176 0.629083 0.222097
C8    C     C_3   0.492415 0.963825 0.370917 0.222093
C9    C     C_3   0.549802 0.956336 0.545453 0.171563
C10   C     C_3   0.450200 0.043664 0.454547 0.171530
C11   C     C_3   0.499393 0.876666 0.496328 -0.082661
C12   C     C_R   0.499429 0.742046 0.498898 0.896887
C13   C     C_3   0.500609 0.123334 0.503673 -0.082662
C14   C     C_3   0.456601 0.955056 0.580669 -0.272668
C15   C     C_3   0.543401 0.044944 0.419331 -0.272688
C16   C     C_R   0.389757 0.501498 0.500888 0.885998
C17   C     C_R   0.610242 0.498474 0.499113 0.886035
C18   C     C_3   0.497497 0.384700 0.050537 -0.126687
C19   C     C_3   0.502503 0.615300 0.949464 -0.126684
C20   C     C_3   0.543453 0.437865 0.950458 -0.108404
C21   C     C_3   0.456548 0.562136 0.049542 -0.108417
C22   C     C_3   0.454524 0.447509 0.954997 0.280276
C23   C     C_R   0.237638 0.595180 0.439092 -0.142475
C24   C     C_3   0.545476 0.552492 0.045004 0.280239
C25   C     C_R   0.878420 0.591036 0.558173 0.539695
C26   C     C_R   0.121558 0.408261 0.442470 0.539773
C27   C     C_R   0.881398 0.407629 0.417528 0.517301
C28   C     C_R   0.118611 0.591671 0.583116 0.517328
C29   C     C_R   0.941005 0.397362 0.433339 -0.017657
C30   C     C_R   0.058989 0.601873 0.567488 -0.017652
C31   C     C_R   0.969951 0.499769 0.496818 -0.048568
C32   C     C_R   0.030038 0.499458 0.504030 -0.048594
C33   C     C_R   0.938532 0.601495 0.555037 -0.121723
C34   C     C_R   0.762280 0.404268 0.561018 -0.142435
C35   C     C_R   0.061452 0.397735 0.445787 -0.121683
C36   C     C_R   0.971879 0.288041 0.390753 0.077412
C37   C     C_R   0.028106 0.711144 0.610206 0.077384
C38   C     C_R   0.032296 0.290303 0.392775 -0.020700
C39   C     C_R   0.967687 0.708872 0.608178 -0.020648
C40   C     C_3   0.940654 0.164819 0.356710 -0.682976
C41   C     C_3   0.059322 0.834333 0.644432 -0.683095
C42   C     C_3   0.400575 0.385120 0.901674 -0.871873
C43   C     C_3   0.599425 0.614880 0.098331 -0.871755
C44   C     C_2   0.064249 0.176536 0.345967 1.000227
C45   C     C_R   0.297200 0.597800 0.431812 0.163577
C46   C     C_2   0.935732 0.822578 0.655134 1.000293
C47   C     C_3   0.326987 0.702578 0.351011 -0.886097
C48   C     C_3   0.672844 0.296986 0.648725 -0.886278
C49   C     C_3   0.210846 0.312988 0.685233 -0.783100
C50   C     C_3   0.789317 0.686613 0.315232 -0.783024
C51   C     C_3   0.606361 0.903357 0.595871 -0.877855
C52   C     C_3   0.393639 0.096638 0.404130 -0.877813
C53   C     C_3   0.516718 0.075788 0.776500 -0.876297
C54   C     C_3   0.483284 0.924212 0.223500 -0.876289
C55   C     C_R   0.702717 0.401797 0.568153 0.163641
C56   C     C_R   0.327844 0.503924 0.504138 -0.073217
C57   C     C_R   0.672151 0.495845 0.495891 -0.073205
C58   C     C_R   0.299210 0.412996 0.585878 -0.292814
H1    H     H_    0.579967 0.385744 0.904880 0.126213
H2    H     H_    0.578707 0.084934 0.354676 0.161278
H3    H     H_    0.924448 0.169867 0.250641 0.280832
H4    H     H_    0.967543 0.078625 0.366252 0.222046
H5    H     H_    0.904868 0.147487 0.430421 0.248456
H6    H     H_    0.075606 0.829075 0.750420 0.280819
H7    H     H_    0.095049 0.851863 0.570609 0.248516
H8    H     H_    0.032411 0.920522 0.635247 0.221949
H9    H     H_    0.377071 0.337652 0.987626 0.224855
H10   H     H_    0.372512 0.458640 0.855949 0.256497
H11   H     H_    0.411871 0.313105 0.824003 0.246119
H12   H     H_    0.420036 0.614265 0.095123 0.126218
H13   H     H_    0.622930 0.662349 0.012380 0.224858
H14   H     H_    0.588128 0.686894 0.176003 0.246126
H15   H     H_    0.627488 0.541361 0.144058 0.256484
H16   H     H_    0.117420 0.032761 0.394639 0.343742
H17   H     H_    0.882643 0.966541 0.606586 0.343741
H18   H     H_    0.357946 0.753032 0.416767 0.228409
H19   H     H_    0.349939 0.661690 0.262232 0.249170
H20   H     H_    0.296193 0.773972 0.311523 0.240067
H21   H     H_    0.641905 0.246676 0.582798 0.228428
H22   H     H_    0.703584 0.225485 0.688216 0.240024
H23   H     H_    0.494926 0.287786 0.097192 0.138155
H24   H     H_    0.649855 0.337802 0.737486 0.249175
H25   H     H_    0.163822 0.325405 0.691763 0.247360
H26   H     H_    0.219880 0.216401 0.645543 0.252638
H27   H     H_    0.227767 0.319805 0.790463 0.233729
H28   H     H_    0.780329 0.783187 0.355015 0.252689
H29   H     H_    0.836334 0.674055 0.308774 0.247320
H30   H     H_    0.772426 0.679954 0.209961 0.233753
H31   H     H_    0.635195 0.983138 0.623244 0.249007
H32   H     H_    0.598667 0.841633 0.687307 0.251590
H33   H     H_    0.626869 0.846405 0.514117 0.232265
H34   H     H_    0.505074 0.712215 0.902808 0.138154
H35   H     H_    0.364807 0.016854 0.376758 0.249001
H36   H     H_    0.373131 0.153588 0.485884 0.232272
H37   H     H_    0.401333 0.158363 0.312694 0.251584
H38   H     H_    0.521867 0.989599 0.842029 0.234000
H39   H     H_    0.555794 0.135878 0.782832 0.246359
H40   H     H_    0.479215 0.130221 0.813738 0.241936
H41   H     H_    0.478134 0.010401 0.157971 0.233998
H42   H     H_    0.520787 0.869780 0.186262 0.241938
H43   H     H_    0.444207 0.864121 0.217168 0.246346
H44   H     H_    0.212929 0.664789 0.382616 0.148739
H45   H     H_    0.786929 0.334541 0.617479 0.148742
H46   H     H_    0.323362 0.342420 0.642576 0.160280
H47   H     H_    0.676766 0.657449 0.357612 0.160246
H48   H     H_    0.421295 0.915066 0.645325 0.161279
N1    N     N_R   0.851927 0.499643 0.484345 -0.353262
N2    N     N_R   0.148068 0.499709 0.516182 -0.353275
N3    N     N_3   0.499960 0.500030 0.863290 -0.087270
N4    N     N_3   0.500040 0.499970 0.136710 -0.087270
O1    O     O_R   0.500000 0.313960 0.616610 -0.620226
O2    O     O_2   0.153821 0.329778 0.365567 -0.525623
O3    O     O_2   0.852644 0.328624 0.334802 -0.555748
O4    O     O_2   0.147396 0.670696 0.665757 -0.555816
O5    O     O_2   0.060650 0.142386 0.227314 -0.595210
O6    O     O_R   0.097701 0.108031 0.438482 -0.790692
O7    O     O_2   0.939255 0.856463 0.773892 -0.595165
O8    O     O_R   0.902370 0.891332 0.562641 -0.790767
O9    O     O_R   0.500000 0.686040 0.383390 -0.620222
O10   O     O_R   0.500030 0.313950 0.383350 -0.620049
O11   O     O_R   0.499970 0.686050 0.616650 -0.620046
O12   O     O_R   0.416140 0.499970 0.616650 -0.618161
O13   O     O_R   0.583860 0.500030 0.383350 -0.618165
O14   O     O_R   0.416170 0.499960 0.383400 -0.609501
O15   O     O_R   0.583830 0.500040 0.616600 -0.609499
O16   O     O_2   0.846134 0.669543 0.634989 -0.525639
Zn1   Zn    Zn3+2 0.499980 0.500010 0.655740 0.939294
Zn2   Zn    Zn3+2 0.500020 0.499990 0.344260 0.939297

loop_
_geom_bond_atom_site_label_1
_geom_bond_atom_site_label_2
_ccdc_geom_bond_type
C43   H15   S    
C48   C55   S    
C43   H14   S    
C23   C45   A    
C27   C29   A    
C15   H2    S    
C54   H43   S    
C9    C51   S    
C10   C52   S    
C21   N4    S    
C3    C49   S    
C2    C57   A    
C29   C36   A    
C33   C39   A    
C40   H5    S    
C48   H21   S    
C19   C21   S    
C47   H18   S    
O11   Zn1   S    
C51   H32   S    
C11   C14   S    
C23   H44   S    
C18   H23   S    
C40   H4    S    
C46   O8    S    
C52   H37   S    
O12   Zn1   S    
C16   O12   A    
C19   H34   S    
C51   H33   S    
N3    Zn1   S    
C7    C14   S    
C12   O11   A    
C20   C24   S    
C44   O5    D    
C48   H24   S    
C6    N1    S    
C31   C33   A    
C52   H36   S    
N4    Zn2   S    
C50   H30   S    
O14   Zn2   S    
O9    Zn2   S    
C45   C47   S    
C34   C55   A    
C21   C22   S    
C53   H38   S    
C42   H10   S    
C54   H42   S    
H17   O8    S    
C17   O13   A    
C19   N3    S    
C32   C35   A    
C49   H27   S    
C49   H25   S    
C36   C40   S    
C35   C38   A    
C24   N4    S    
C45   C56   A    
C4    C6    A    
C10   C14   S    
C26   N2    A    
C41   H7    S    
C53   H39   S    
C42   H11   S    
C40   H3    S    
C6    C34   A    
C46   O7    D    
C4    C50   S    
C1    O10   A    
C2    C4    A    
C25   O16   S    
C16   C56   S    
C38   C44   S    
C12   O9    A    
C31   C32   A    
C5    C23   A    
C13   C15   S    
C27   N1    A    
C22   N3    S    
H16   O6    S    
C52   H35   S    
C20   H1    S    
C9    C11   S    
C28   O4    S    
C50   H29   S    
C39   C46   S    
C27   O3    S    
C8    C10   S    
C8    C15   S    
C55   C57   A    
O1    Zn1   S    
C42   H9    S    
C54   H41   S    
C58   H46   S    
C47   H19   S    
C8    C54   S    
C26   O2    S    
C25   N1    A    
C49   H26   S    
C7    C9    S    
C43   H13   S    
C18   C22   S    
C18   N4    S    
C3    C5    A    
C10   C13   S    
C11   C12   S    
O10   Zn2   S    
C41   H8    S    
C53   H40   S    
C2    H47   S    
C34   H45   S    
C41   H6    S    
C21   H12   S    
C48   H22   S    
C36   C38   A    
C19   C24   S    
C16   O14   A    
C29   C31   A    
C30   C37   A    
C1    O1    A    
C30   C32   A    
C17   O15   A    
O13   Zn2   S    
C22   C42   S    
C28   N2    A    
C8    C11   S    
C28   C30   A    
C56   C58   A    
C18   C20   S    
C37   C41   S    
C50   H28   S    
C20   N3    S    
C3    C58   A    
C26   C35   A    
C7    C13   S    
C1    C13   S    
C44   O6    S    
C37   C39   A    
C14   H48   S    
C25   C33   A    
O15   Zn1   S    
C24   C43   S    
C7    C53   S    
C47   H20   S    
C51   H31   S    
C9    C15   S    
C17   C57   S    
C5    N2    S    
