data_mof_unit_978.cif
_audit_creation_date              2012-12-10T19:09:05-0500
_audit_creation_method            fapswitch 2.2
_symmetry_space_group_name_H-M    P1
_symmetry_Int_Tables_number       1
_space_group_crystal_system       triclinic
_cell_length_a                    17.69038
_cell_length_b                    10.850115
_cell_length_c                    9.548697
_cell_angle_alpha                 89.907051
_cell_angle_beta                  90.102738
_cell_angle_gamma                 90.488132
_cell_volume                      1832.73044996

loop_
_atom_site_label
_atom_site_type_symbol
_atom_type_description
_atom_site_fract_x
_atom_site_fract_y
_atom_site_fract_z
_atom_type_partial_charge
C1    C     C_R   0.499453 0.262573 0.499943 0.828775
C2    C     C_R   0.884667 0.490103 0.494916 0.055117
C3    C     C_1   0.965518 0.490891 0.493216 0.030293
C4    C     C_1   0.033300 0.492209 0.492842 0.041259
C5    C     C_R   0.152758 0.430622 0.598699 -0.219399
C6    C     C_R   0.231904 0.435075 0.604553 0.420222
C7    C     C_R   0.272346 0.498850 0.499029 -0.242496
C8    C     C_R   0.232786 0.560683 0.391435 0.428076
C9    C     C_R   0.153561 0.560059 0.392023 -0.249469
C10   C     C_R   0.114045 0.494030 0.494130 -0.010377
C11   C     C_R   0.525494 0.063593 0.614275 0.135523
C12   C     C_R   0.355552 0.499786 0.499888 0.880880
C13   C     C_R   0.501540 0.129628 0.497670 -0.149589
C14   C     C_R   0.481542 0.066197 0.375092 -0.311632
C15   C     C_R   0.480165 0.936604 0.372171 0.492906
C16   C     C_R   0.499043 0.871518 0.496130 -0.194617
C17   C     C_R   0.524468 0.936616 0.613398 0.054769
C18   C     C_3   0.497132 0.930396 0.761261 -0.466608
C19   C     C_3   0.498210 0.069998 0.761896 -0.447293
C20   C     C_R   0.530395 0.596939 0.073996 0.226719
C21   C     C_R   0.462619 0.411306 0.074394 -0.083227
C22   C     C_R   0.462540 0.411425 0.925541 -0.066102
C23   C     C_R   0.498151 0.737702 0.499443 0.836279
C24   C     C_R   0.532268 0.595384 0.926913 0.157093
C25   C     C_3   0.613117 0.638848 0.926344 0.292926
C26   C     C_3   0.609062 0.644499 0.085466 -0.556689
C27   C     C_R   0.644229 0.499378 0.499842 0.801333
C28   C     C_R   0.844577 0.420671 0.594960 0.382396
C29   C     C_R   0.765691 0.423872 0.596069 -0.230379
C30   C     C_R   0.726785 0.496332 0.498599 -0.080699
C31   C     C_R   0.767149 0.563988 0.397895 -0.192860
C32   C     C_R   0.845827 0.561132 0.396400 -0.205968
Cu1   Cu    Cu3+1 0.500000 0.499980 0.640670 0.983824
Cu2   Cu    Cu3+1 0.500000 0.500020 0.359330 0.983465
H1    H     H_    0.439374 0.889925 0.770536 0.206541
H2    H     H_    0.539924 0.890603 0.832718 0.175735
H3    H     H_    0.440947 0.110770 0.770781 0.204591
H4    H     H_    0.541508 0.109805 0.833635 0.199752
H5    H     H_    0.433489 0.338208 0.130032 0.126427
H6    H     H_    0.433459 0.338417 0.869845 0.148545
H7    H     H_    0.620332 0.729622 0.873362 0.063441
H8    H     H_    0.647205 0.578521 0.138713 0.237370
H9    H     H_    0.734749 0.369611 0.672567 0.196679
H10   H     H_    0.611400 0.740003 0.127008 0.153119
H11   H     H_    0.737923 0.620718 0.322183 0.143356
H12   H     H_    0.876409 0.614948 0.318995 0.153344
H13   H     H_    0.121476 0.377331 0.675617 0.182331
H14   H     H_    0.122939 0.611519 0.313171 0.161283
H15   H     H_    0.462132 0.117605 0.284988 0.165636
N1    N     N_R   0.500470 0.500930 0.147930 -0.161961
N2    N     N_R   0.500480 0.500890 0.852020 -0.163987
O1    O     O_R   0.500000 0.319640 0.618810 -0.579379
O2    O     O_R   0.500010 0.319680 0.381230 -0.597443
O3    O     O_R   0.391250 0.499990 0.618840 -0.563240
O4    O     O_R   0.391260 0.500020 0.381250 -0.555413
O5    O     O_R   0.499990 0.680320 0.618770 -0.605744
O6    O     O_R   0.500000 0.680360 0.381190 -0.525916
O7    O     O_R   0.608740 0.499980 0.618750 -0.528768
O8    O     O_R   0.608750 0.500010 0.381160 -0.589910
Cl1   Cl    Cl    0.891458 0.329604 0.720228 -0.638491
O9    O     O_3   0.449580 0.872476 0.258999 -0.537123
C33   C     C_3   0.477130 0.917506 0.129901 -0.307824
H16   H     H_    0.469510 0.844079 0.050515 0.175811
H17   H     H_    0.538509 0.941163 0.133845 0.139836
H18   H     H_    0.443551 0.997630 0.094068 0.168258
O10   O     O_3   0.663152 0.546240 0.881598 -0.524569
C34   C     C_3   0.737210 0.595629 0.877223 -0.268920
H19   H     H_    0.752533 0.646502 0.974586 0.147427
H20   H     H_    0.744062 0.656763 0.784468 0.162952
H21   H     H_    0.777729 0.518805 0.867839 0.216602
O11   O     O_3   0.270069 0.366698 0.704301 -0.562132
C35   C     C_3   0.259896 0.421275 0.836867 -0.305099
H22   H     H_    0.294134 0.370148 0.914652 0.167733
H23   H     H_    0.200061 0.415185 0.871720 0.158894
H24   H     H_    0.279840 0.518905 0.837381 0.159328
O12   O     O_3   0.271782 0.631787 0.294570 -0.539452
C36   C     C_3   0.265709 0.576189 0.161545 -0.253834
H25   H     H_    0.207582 0.584990 0.118511 0.142009
H26   H     H_    0.282719 0.477567 0.164346 0.140986
H27   H     H_    0.304777 0.624683 0.088822 0.186769

loop_
_geom_bond_atom_site_label_1
_geom_bond_atom_site_label_2
_ccdc_geom_bond_type
Cu1   O7    S    
C26   H10   S    
C7    C8    A    
C36   H25   S    
Cu1   O1    S    
C5    H13   S    
C11   C19   S    
C33   H16   S    
C28   C29   A    
C5    C6    A    
C14   H15   S    
C15   C16   A    
C8    O12   S    
C2    C32   A    
C18   C19   S    
C1    O2    A    
C20   N1    A    
C19   H3    S    
C20   C24   A    
C8    C9    A    
Cu2   O6    S    
C33   H17   S    
C9    C10   A    
C24   N2    A    
C28   Cl1   S    
O10   C34   S    
Cu2   O4    S    
C13   C14   A    
C29   H9    S    
C27   C30   S    
C6    O11   S    
C35   H24   S    
C21   N1    A    
C17   C18   S    
C36   H26   S    
C7    C12   S    
Cu2   N1    S    
C34   H19   S    
C23   O5    A    
O12   C36   S    
C35   H23   S    
C25   H7    S    
C16   C17   A    
C25   C26   S    
C34   H20   S    
C29   C30   A    
C19   H4    S    
C31   C32   A    
C21   H5    S    
C22   H6    S    
Cu1   Cu2   S    
C15   O9    S    
C24   C25   S    
Cu2   O2    S    
C16   C23   S    
Cu2   O8    S    
C1    C13   S    
C4    C10   S    
C3    C4    T    
C26   H8    S    
C18   H1    S    
C36   H27   S    
Cu1   O3    S    
C23   O6    A    
C11   C17   A    
C33   H18   S    
C32   H12   S    
C25   O10   S    
C35   H22   S    
C27   O7    A    
C6    C7    A    
Cu1   N2    S    
C34   H21   S    
C2    C3    S    
C5    C10   A    
C27   O8    A    
C11   C13   A    
C30   C31   A    
C20   C26   S    
Cu1   O5    S    
O9    C33   S    
C1    O1    A    
C12   O4    A    
O11   C35   S    
C9    H14   S    
C31   H11   S    
C14   C15   A    
C2    C28   A    
C21   C22   A    
C18   H2    S    
C12   O3    A    
C22   N2    A    
