data_mof_unit_4836.cif
_audit_creation_date              2012-12-10T18:09:10-0500
_audit_creation_method            fapswitch 2.2
_symmetry_space_group_name_H-M    P1
_symmetry_Int_Tables_number       1
_space_group_crystal_system       triclinic
_cell_length_a                    12.656282
_cell_length_b                    13.104911
_cell_length_c                    13.679521
_cell_angle_alpha                 90.57264
_cell_angle_beta                  96.261089
_cell_angle_gamma                 98.109519
_cell_volume                      2232.04900669

loop_
_atom_site_label
_atom_site_type_symbol
_atom_type_description
_atom_site_fract_x
_atom_site_fract_y
_atom_site_fract_z
_atom_type_partial_charge
C1    C     C_R   0.559900 0.691713 0.517185 0.945900
C2    C     C_R   0.470549 0.036429 0.512027 -0.033318
C3    C     C_R   0.364279 0.996687 0.531311 -0.179436
C4    C     C_R   0.516938 0.496696 0.318501 0.851964
C5    C     C_R   0.344310 0.901597 0.576195 0.447588
C6    C     C_R   0.426377 0.840318 0.589960 0.496513
C7    C     C_R   0.485692 0.132580 0.467293 0.567407
C8    C     C_R   0.299348 0.152077 0.468082 0.441613
C9    C     C_R   0.599060 0.802092 0.539911 -0.258174
C10   C     C_R   0.905741 0.435618 0.687488 -0.129905
C11   C     C_R   0.212421 0.607636 0.367248 -0.120845
C12   C     C_1   0.529416 0.496501 0.217831 -0.149202
C13   C     C_R   0.111496 0.635425 0.335346 0.466130
C14   C     C_R   0.026173 0.600334 0.388146 -0.227305
C15   C     C_R   0.041449 0.543465 0.474407 -0.057332
C16   C     C_R   0.440943 0.308459 0.482112 0.933083
C17   C     C_R   0.146734 0.524420 0.506991 0.061096
C18   C     C_R   0.957388 0.503944 0.530383 -0.134978
C19   C     C_R   0.985407 0.479632 0.630254 -0.078174
C20   C     C_R   0.094589 0.487573 0.666311 0.407898
C21   C     C_R   0.166880 0.476805 0.597751 -0.090020
C22   C     C_R   0.848108 0.484339 0.491332 0.620042
C23   C     C_R   0.279035 0.052547 0.504685 -0.276580
C24   C     C_R   0.799640 0.414963 0.643719 -0.095061
C25   C     C_R   0.484045 0.504957 0.681681 0.962416
C26   C     C_1   0.477861 0.515774 0.783090 -0.136828
C27   C     C_2   0.471238 0.533851 0.972866 0.418384
C28   C     C_2   0.551507 0.500335 0.029750 0.434225
C29   C     C_1   0.541772 0.497275 0.132981 -0.077982
C30   C     C_1   0.473065 0.525719 0.868942 -0.078956
C31   C     C_3   0.718435 0.441229 0.056309 -0.241855
C32   C     C_3   0.463630 0.784042 0.743833 -0.291249
C33   C     C_2   0.716993 0.359367 0.700463 1.004378
C34   C     C_R   0.406330 0.196971 0.468798 -0.313477
C35   C     C_3   0.188751 0.441005 0.809316 -0.246595
C36   C     C_2   0.933001 0.399538 0.788335 1.022345
C37   C     C_3   0.811192 0.405370 0.341719 -0.328102
C38   C     C_3   0.176268 0.766694 0.234650 -0.333323
C39   C     C_2   0.186532 0.368759 0.591937 0.968816
C40   C     C_3   0.348585 0.648726 0.970009 -0.306945
C41   C     C_3   0.138155 0.149357 0.370424 -0.233321
C42   C     C_3   0.183867 0.796749 0.557859 -0.246825
C43   C     C_3   0.545678 0.165201 0.317773 -0.398519
C44   C     C_3   0.836196 0.776544 0.467497 -0.199295
C45   C     C_R   0.709533 0.840735 0.546085 0.361249
C46   C     C_3   0.787201 0.162295 0.517213 -0.037201
C47   C     C_3   0.867619 0.984110 0.693422 -0.199310
C48   C     C_R   0.742738 0.946696 0.561739 0.284431
C49   C     C_R   0.667096 0.016651 0.546581 0.441990
C50   C     C_R   0.555217 0.976425 0.534125 -0.102765
C51   C     C_R   0.525603 0.871295 0.552281 -0.272782
H1    H     H_    0.279944 0.628998 0.326260 0.161245
H2    H     H_    0.651214 0.345671 0.828307 0.355306
H3    H     H_    0.270912 0.453897 0.787998 0.200493
H4    H     H_    0.150692 0.360122 0.791882 0.175053
H5    H     H_    0.194545 0.452334 0.890263 0.218667
H6    H     H_    0.967140 0.436086 0.932881 0.329771
H7    H     H_    0.796255 0.419538 0.262162 0.179482
H8    H     H_    0.743680 0.348187 0.361121 0.192572
H9    H     H_    0.888458 0.373284 0.353764 0.155267
H10   H     H_    0.237975 0.732329 0.198653 0.175236
H11   H     H_    0.212392 0.809769 0.303669 0.134742
H12   H     H_    0.950194 0.624252 0.362779 0.210773
H13   H     H_    0.145373 0.823514 0.183472 0.199551
H14   H     H_    0.274810 0.259580 0.642343 0.343791
H15   H     H_    0.311074 0.631652 0.893299 0.210229
H16   H     H_    0.416192 0.713382 0.972483 0.141657
H17   H     H_    0.286625 0.674305 0.012258 0.210020
H18   H     H_    0.080854 0.099547 0.411677 0.168221
H19   H     H_    0.172709 0.102582 0.316759 0.123521
H20   H     H_    0.091698 0.202832 0.327508 0.186656
H21   H     H_    0.168928 0.821040 0.480430 0.118356
H22   H     H_    0.104946 0.780552 0.587011 0.205771
H23   H     H_    0.197483 0.020072 0.514321 0.208432
H24   H     H_    0.219848 0.724420 0.560887 0.206215
H25   H     H_    0.499982 0.230194 0.299040 0.163422
H26   H     H_    0.498553 0.090696 0.288957 0.161319
H27   H     H_    0.619625 0.177827 0.280200 0.185001
H28   H     H_    0.868106 0.855955 0.446801 0.161700
H29   H     H_    0.780209 0.737258 0.405816 0.157903
H30   H     H_    0.905777 0.734053 0.480511 0.171491
H31   H     H_    0.793822 0.118785 0.448199 0.115685
H32   H     H_    0.862762 0.168212 0.567663 0.189954
H33   H     H_    0.777345 0.241950 0.496320 0.159097
H34   H     H_    0.686788 0.373026 0.097644 0.134545
H35   H     H_    0.849318 0.905891 0.723783 0.180439
H36   H     H_    0.819790 0.038411 0.725592 0.176446
H37   H     H_    0.953681 0.012402 0.716159 0.198761
H38   H     H_    0.753455 0.507230 0.106956 0.172816
H39   H     H_    0.784019 0.419122 0.016663 0.219931
H40   H     H_    0.434647 0.852997 0.774093 0.172859
H41   H     H_    0.552452 0.797657 0.744287 0.156835
H42   H     H_    0.443937 0.720109 0.793581 0.178514
N1    N     N_R   0.773270 0.445590 0.549770 -0.179567
N2    N     N_R   0.227520 0.553880 0.450750 -0.141296
O1    O     O_R   0.631100 0.627590 0.523760 -0.566001
O2    O     O_3   0.412374 0.755403 0.648816 -0.579238
O3    O     O_2   0.655773 0.285587 0.663505 -0.564900
O4    O     O_R   0.710114 0.390372 0.797414 -0.768029
O5    O     O_3   0.127974 0.513510 0.764676 -0.585759
O6    O     O_2   0.937598 0.308057 0.801589 -0.676159
O7    O     O_R   0.949632 0.469855 0.867900 -0.716753
O8    O     O_3   0.815419 0.499460 0.393905 -0.612376
O9    O     O_3   0.089892 0.690205 0.250546 -0.591499
O10   O     O_2   0.115931 0.304665 0.550378 -0.616463
O11   O     O_R   0.276637 0.337111 0.644583 -0.823601
O12   O     O_R   0.455900 0.662370 0.491970 -0.602692
O13   O     O_3   0.382240 0.560103 0.013910 -0.631446
O14   O     O_3   0.218210 0.208509 0.435820 -0.542128
O15   O     O_3   0.249084 0.874763 0.617031 -0.587969
O16   O     O_3   0.575830 0.162873 0.420000 -0.570739
O17   O     O_3   0.785943 0.774648 0.554577 -0.556009
O18   O     O_3   0.698549 0.121383 0.566717 -0.539185
O19   O     O_3   0.850219 0.981150 0.589803 -0.616692
O20   O     O_R   0.600200 0.480080 0.377830 -0.575550
O21   O     O_R   0.425000 0.514870 0.346040 -0.624910
O22   O     O_R   0.544100 0.337630 0.508030 -0.542808
O23   O     O_R   0.368900 0.372410 0.476240 -0.557053
O24   O     O_R   0.575000 0.485130 0.653960 -0.613699
O25   O     O_R   0.399800 0.519920 0.622170 -0.572283
O26   O     O_3   0.637926 0.469733 0.986696 -0.604863
Zn1   Zn    Zn3+2 0.616980 0.476780 0.521230 1.037624
Zn2   Zn    Zn3+2 0.383020 0.523220 0.478770 0.992498

loop_
_geom_bond_atom_site_label_1
_geom_bond_atom_site_label_2
_ccdc_geom_bond_type
C39   O11   S    
C49   O18   S    
C9    C45   A    
C31   H34   S    
O21   Zn2   S    
C12   C29   T    
C47   O19   S    
C15   C18   A    
C3    C23   A    
C2    C7    A    
C9    C51   A    
O12   Zn2   S    
C45   O17   S    
H2    O4    S    
C43   H27   S    
H6    O7    S    
C42   H24   S    
C41   H18   S    
C28   C29   S    
C18   C19   A    
C16   O23   A    
C5    C6    A    
O24   Zn1   S    
C32   H40   S    
C5    O15   S    
N2    Zn2   S    
C8    C23   A    
C32   O2    S    
C36   O7    S    
C33   O3    D    
C38   O9    S    
C11   H1    S    
C4    O20   A    
C16   C34   S    
C46   H31   S    
C19   C20   A    
C31   H38   S    
C40   H16   S    
C20   O5    S    
C17   N2    A    
C6    C51   A    
C4    C12   S    
C2    C50   A    
C37   H7    S    
O25   Zn2   S    
C41   H20   S    
C38   H10   S    
C32   H42   S    
O20   Zn1   S    
C41   O14   S    
C13   C14   A    
C35   H3    S    
C22   N1    A    
C43   O16   S    
C25   O24   A    
C38   H13   S    
C35   H4    S    
C6    O2    S    
C44   H29   S    
C1    C9    S    
C31   O26   S    
C44   H30   S    
C37   O8    S    
C27   C30   S    
C28   O26   S    
C10   C24   A    
C25   C26   S    
C17   C21   A    
C22   O8    S    
C36   O6    D    
C33   O4    S    
C47   H36   S    
O22   Zn1   S    
C47   H35   S    
C24   N1    A    
C21   C39   S    
C10   C19   A    
C31   H39   S    
C42   H21   S    
C50   C51   A    
C8    C34   A    
C13   O9    S    
C37   H8    S    
C1    O12   A    
C46   H33   S    
C44   O17   S    
C48   C49   A    
C26   C30   T    
C7    C34   A    
C23   H23   S    
C35   O5    S    
C25   O25   A    
N1    Zn1   S    
H14   O11   S    
C48   O19   S    
C45   C48   A    
C11   N2    A    
C43   H25   S    
C39   O10   D    
C42   H22   S    
C46   O18   S    
C35   H5    S    
C18   C22   A    
C4    O21   A    
C44   H28   S    
C3    C5    A    
C10   C36   S    
C15   C17   A    
C43   H26   S    
C24   C33   S    
O1    Zn1   S    
C47   H37   S    
C2    C3    A    
C42   O15   S    
C8    O14   S    
C11   C13   A    
C32   H41   S    
C27   O13   S    
C1    O1    A    
C14   H12   S    
C7    O16   S    
O23   Zn2   S    
C37   H9    S    
C46   H32   S    
C40   O13   S    
C20   C21   A    
C49   C50   A    
C40   H17   S    
C27   C28   D    
C14   C15   A    
C40   H15   S    
C16   O22   A    
C41   H19   S    
C38   H11   S    
