data_mof_unit_3291.cif
_audit_creation_date              2012-10-26T20:19:07-0400
_audit_creation_method            fapswitch 2.2
_symmetry_space_group_name_H-M    P1
_symmetry_Int_Tables_number       1
_space_group_crystal_system       triclinic
_cell_length_a                    14.977549
_cell_length_b                    13.008778
_cell_length_c                    11.673022
_cell_angle_alpha                 99.740974
_cell_angle_beta                  93.361728
_cell_angle_gamma                 90.660508
_cell_volume                      2237.18780145

loop_
_atom_site_label
_atom_site_type_symbol
_atom_type_description
_atom_site_fract_x
_atom_site_fract_y
_atom_site_fract_z
_atom_type_partial_charge
C1    C     C_R   0.498774 0.299085 0.478710 0.543431
C2    C     C_R   0.507768 0.876621 0.644550 -0.141138
C3    C     C_R   0.503500 0.139224 0.566346 -0.135690
C4    C     C_R   0.496833 0.860797 0.433717 -0.128922
C5    C     C_R   0.503074 0.031220 0.555958 0.046811
C6    C     C_R   0.497296 0.968800 0.444115 0.049378
C7    C     C_R   0.417533 0.399581 0.022318 -0.175112
C8    C     C_R   0.582466 0.600415 0.977675 -0.175718
C9    C     C_R   0.425221 0.409468 0.144436 0.048202
C10   C     C_R   0.574786 0.590523 0.855559 0.045309
C11   C     C_R   0.535335 0.543754 0.156762 0.049204
C12   C     C_R   0.501278 0.700917 0.521299 0.543405
C13   C     C_R   0.464656 0.456252 0.843233 0.046531
C14   C     C_R   0.529873 0.536574 0.034008 0.007636
C15   C     C_R   0.470120 0.463428 0.965986 0.007141
C16   C     C_R   0.328929 0.499498 0.500690 0.545566
C17   C     C_R   0.671072 0.500500 0.499356 0.545263
C18   C     C_R   0.814760 0.594821 0.511220 -0.135511
C19   C     C_R   0.185448 0.405406 0.493157 -0.136062
C20   C     C_R   0.767293 0.500307 0.498278 -0.005709
C21   C     C_R   0.232754 0.499721 0.502630 -0.006037
C22   C     C_R   0.811442 0.405747 0.489526 -0.124911
C23   C     C_R   0.044372 0.310886 0.486148 -0.106620
C24   C     C_R   0.188767 0.594513 0.515348 -0.124453
C25   C     C_R   0.904977 0.404503 0.494940 0.021710
C26   C     C_R   0.095614 0.596292 0.519271 0.022378
C27   C     C_R   0.953403 0.500167 0.505938 0.001651
C28   C     C_R   0.047150 0.500566 0.507182 0.001623
C29   C     C_R   0.907974 0.595489 0.514878 -0.029395
C30   C     C_R   0.092465 0.405071 0.495204 -0.030110
C31   C     C_R   0.951289 0.310011 0.490000 0.271210
C32   C     C_R   0.049733 0.691418 0.534690 0.272043
C33   C     C_3   0.882194 0.201243 0.594307 0.002960
C34   C     C_R   0.956254 0.689954 0.528533 -0.105779
C35   C     C_3   0.959745 0.157454 0.661654 -0.272976
C36   C     C_3   0.930738 0.132568 0.777275 -0.487213
C37   C     C_3   0.127638 0.815758 0.666518 0.000268
C38   C     C_3   0.055311 0.869106 0.741853 -0.274890
C39   C     C_3   0.093707 0.914000 0.864306 -0.481489
C40   C     C_R   0.501997 0.814311 0.533602 -0.001271
C41   C     C_R   0.498201 0.185698 0.466444 -0.001383
C42   C     C_R   0.492018 0.015328 0.344412 -0.135714
C43   C     C_R   0.508305 0.984682 0.655658 -0.143160
C44   C     C_R   0.492439 0.123381 0.355507 -0.133966
Cu1   Cu    Cu3+1 0.506660 0.507730 0.615930 0.928664
Cu2   Cu    Cu3+1 0.493340 0.492270 0.384070 0.939882
H1    H     H_    0.778939 0.667465 0.519039 0.099221
H2    H     H_    0.507920 0.186850 0.652323 0.119204
H3    H     H_    0.511837 0.841978 0.722738 0.128267
H4    H     H_    0.488276 0.158014 0.277313 0.129912
H5    H     H_    0.487553 0.968294 0.258182 0.103526
H6    H     H_    0.512763 0.031711 0.741890 0.101790
H7    H     H_    0.418779 0.400353 0.790043 0.114848
H8    H     H_    0.581207 0.599660 0.209951 0.116171
H9    H     H_    0.615502 0.640154 0.813024 0.124213
H10   H     H_    0.384513 0.359826 0.186968 0.124936
H11   H     H_    0.825286 0.144099 0.581893 0.158531
H12   H     H_    0.221216 0.332691 0.484093 0.100088
H13   H     H_    0.857857 0.274018 0.646998 0.120336
H14   H     H_    0.983916 0.085433 0.608216 0.178701
H15   H     H_    0.015878 0.215553 0.679991 0.154935
H16   H     H_    0.903843 0.203081 0.830446 0.155453
H17   H     H_    0.989225 0.106491 0.826823 0.149342
H18   H     H_    0.878695 0.069398 0.761789 0.146719
H19   H     H_    0.184171 0.872130 0.668041 0.157290
H20   H     H_    0.155308 0.749049 0.704987 0.120522
H21   H     H_    0.026045 0.932822 0.700496 0.173307
H22   H     H_    0.001166 0.811794 0.748676 0.154266
H23   H     H_    0.370886 0.342423 0.972484 0.084464
H24   H     H_    0.124098 0.851379 0.906689 0.154960
H25   H     H_    0.039381 0.949348 0.917668 0.150253
H26   H     H_    0.145269 0.975271 0.860787 0.144977
H27   H     H_    0.629115 0.657569 0.027508 0.087756
H28   H     H_    0.772360 0.333769 0.479490 0.138877
H29   H     H_    0.227674 0.666311 0.522061 0.139621
H30   H     H_    0.079117 0.237596 0.477950 0.124920
H31   H     H_    0.921505 0.763229 0.536272 0.121725
H32   H     H_    0.492427 0.813178 0.347735 0.121230
N1    N     N_R   0.516670 0.519360 0.790130 -0.229480
N2    N     N_R   0.483330 0.480640 0.209870 -0.229247
O1    O     O_R   0.504720 0.354460 0.582000 -0.512662
O2    O     O_3   0.094892 0.786620 0.548949 -0.574904
O3    O     O_R   0.495280 0.645540 0.418000 -0.510860
O4    O     O_R   0.493480 0.341410 0.386200 -0.509773
O5    O     O_R   0.506520 0.658590 0.613800 -0.511429
O6    O     O_R   0.375880 0.506510 0.597910 -0.502284
O7    O     O_R   0.624120 0.493490 0.402090 -0.496443
O8    O     O_R   0.364640 0.493450 0.402110 -0.495659
O9    O     O_R   0.635360 0.506550 0.597890 -0.501788
O10   O     O_3   0.906472 0.215150 0.482286 -0.572874

loop_
_geom_bond_atom_site_label_1
_geom_bond_atom_site_label_2
_ccdc_geom_bond_type
C25   C31   A    
C13   N1    A    
C26   C32   A    
C16   C21   S    
C27   C29   A    
C35   C36   S    
C23   H30   S    
C18   H1    S    
Cu1   Cu2   S    
C1    O4    A    
C12   O5    A    
C19   C21   A    
C24   C26   A    
C34   H31   S    
C5    C6    A    
C11   C14   A    
C43   H6    S    
C1    O1    A    
C3    H2    S    
C17   C20   S    
C4    C40   A    
C22   C25   A    
C37   H19   S    
C8    C14   A    
C39   H26   S    
C36   H17   S    
Cu1   O9    S    
C13   H7    S    
C42   H5    S    
C7    C15   A    
C5    C43   A    
C33   H13   S    
C16   O6    A    
C42   C44   A    
C36   H16   S    
Cu2   O8    S    
C19   H12   S    
C23   C30   A    
C17   O9    A    
C35   H15   S    
C18   C29   A    
C29   C34   A    
C12   O3    A    
C35   H14   S    
C9    N2    A    
C23   C31   A    
C12   C40   S    
Cu1   O5    S    
C4    H32   S    
C37   C38   S    
C2    H3    S    
C2    C43   A    
C31   O10   S    
C37   H20   S    
Cu1   N1    S    
C9    H10   S    
C10   H9    S    
C11   H8    S    
Cu2   O4    S    
C1    C41   S    
C20   C22   A    
C13   C15   A    
C41   C44   A    
C37   O2    S    
C4    C6    A    
C22   H28   S    
Cu2   O7    S    
C44   H4    S    
C7    C9    A    
C3    C41   A    
C33   H11   S    
C17   O7    A    
Cu1   O1    S    
C38   H22   S    
C3    C5    A    
C7    H23   S    
C10   N1    A    
C24   H29   S    
C25   C27   A    
C32   O2    S    
C26   C28   A    
C28   C30   A    
Cu1   O6    S    
C33   O10   S    
Cu2   N2    S    
C38   C39   S    
C8    H27   S    
C33   C35   S    
C39   H24   S    
C18   C20   A    
C11   N2    A    
Cu2   O3    S    
C2    C40   A    
C38   H21   S    
C8    C10   A    
C6    C42   A    
C21   C24   A    
C27   C28   A    
C16   O8    A    
C39   H25   S    
C14   C15   A    
C36   H18   S    
C19   C30   A    
C32   C34   A    
