data_mof_unit_4300.cif
_audit_creation_date              2012-12-10T16:42:59-0500
_audit_creation_method            fapswitch 2.2
_symmetry_space_group_name_H-M    P1
_symmetry_Int_Tables_number       1
_space_group_crystal_system       triclinic
_cell_length_a                    7.563827
_cell_length_b                    8.681748
_cell_length_c                    12.973284
_cell_angle_alpha                 86.632331
_cell_angle_beta                  78.412159
_cell_angle_gamma                 102.428261
_cell_volume                      810.355769224

loop_
_atom_site_label
_atom_site_type_symbol
_atom_type_description
_atom_site_fract_x
_atom_site_fract_y
_atom_site_fract_z
_atom_type_partial_charge
C1    C     C_R   0.453129 0.200131 0.504919 0.878911
C2    C     C_R   0.546871 0.799869 0.495084 0.878905
C3    C     C_R   0.465532 0.495845 0.701310 0.789367
C4    C     C_R   0.534469 0.504157 0.298691 0.789370
C5    C     C_R   0.554204 0.507466 0.184511 -0.044842
C6    C     C_R   0.445797 0.492542 0.815488 -0.044843
C7    C     C_R   0.251971 0.457641 0.991829 -0.222500
C8    C     C_R   0.748028 0.542373 0.008171 -0.222500
C9    C     C_R   0.269233 0.461872 0.882987 -0.197973
C10   C     C_R   0.730768 0.538136 0.117014 -0.197970
C11   C     C_R   0.605117 0.519230 0.857519 -0.272589
C12   C     C_R   0.394882 0.480784 0.142480 -0.272585
C13   C     C_R   0.588975 0.515528 0.966171 0.177480
C14   C     C_R   0.411025 0.484489 0.033828 0.177481
C15   C     C_2   0.427395 0.031812 0.513207 -0.374184
C16   C     C_2   0.572605 0.968186 0.486804 -0.374172
Cu1   Cu    Cu3+1 0.686350 0.517570 0.488220 0.936090
Cu2   Cu    Cu3+1 0.313650 0.482430 0.511780 0.936058
H1    H     H_    0.257923 0.456919 0.194044 0.157376
H2    H     H_    0.742075 0.543095 0.805954 0.157376
H3    H     H_    0.855421 0.559700 0.148151 0.154214
H4    H     H_    0.144582 0.440302 0.851851 0.154212
H5    H     H_    0.114840 0.433070 0.043032 0.136914
H6    H     H_    0.885160 0.566945 0.956968 0.136915
H7    H     H_    0.288130 0.960142 0.543563 0.162815
H8    H     H_    0.711874 0.039857 0.456461 0.162826
N1    N     N_2   0.033570 0.455950 0.529530 -0.055814
N2    N     N_2   0.966430 0.544050 0.470470 -0.055774
O1    O     O_R   0.621060 0.286250 0.492350 -0.591599
O2    O     O_R   0.378940 0.713750 0.507650 -0.591625
O3    O     O_R   0.306310 0.256580 0.512240 -0.594433
O4    O     O_R   0.693690 0.743420 0.487760 -0.594414
O5    O     O_R   0.631800 0.512400 0.642670 -0.597341
O6    O     O_R   0.368200 0.487600 0.357330 -0.597356
O7    O     O_R   0.317060 0.482730 0.662570 -0.588175
O8    O     O_R   0.682940 0.517270 0.337430 -0.588161
C17   C     C_3   0.923121 0.303941 0.580063 -0.362632
H9    H     H_    0.997734 0.257046 0.635441 0.154722
H10   H     H_    0.789861 0.311603 0.629655 0.187336
H11   H     H_    0.908804 0.219501 0.520139 0.166858
C18   C     C_3   0.076939 0.696061 0.419931 -0.362731
H12   H     H_    0.002347 0.743008 0.364573 0.154711
H13   H     H_    0.091310 0.780511 0.479864 0.166859
H14   H     H_    0.210170 0.688362 0.370361 0.187417

loop_
_geom_bond_atom_site_label_1
_geom_bond_atom_site_label_2
_ccdc_geom_bond_type
C4    O8    A    
C17   H9    S    
C1    C15   S    
Cu1   O8    S    
C2    C16   S    
C11   C13   A    
Cu2   O7    S    
C3    O7    A    
C2    O2    A    
C3    C6    S    
C6    C9    A    
C1    O1    A    
Cu1   Cu2   S    
C5    C10   A    
C17   H10   S    
C13   C14   A    
C18   H13   S    
C8    C13   A    
Cu1   O5    S    
N1    C17   S    
C7    H5    S    
C12   H1    S    
C2    O4    A    
C8    H6    S    
C12   C14   A    
C17   H11   S    
Cu2   O6    S    
C10   H3    S    
C16   H8    S    
Cu2   O2    S    
C11   H2    S    
C18   H14   S    
C4    O6    A    
C9    H4    S    
C15   H7    S    
C3    O5    A    
C15   C16   D    
N2    C18   S    
C1    O3    A    
Cu1   O1    S    
C5    C12   A    
C8    C10   A    
C18   H12   S    
C6    C11   A    
C7    C9    A    
Cu1   O4    S    
Cu2   O3    S    
Cu1   N2    S    
C7    C14   A    
Cu2   N1    S    
C4    C5    S    
N1    N2    D    
