data_mof_unit_4481.cif
_audit_creation_date              2013-03-05T15:40:26-0500
_audit_creation_method            fapswitch 2.2
_symmetry_space_group_name_H-M    P1
_symmetry_Int_Tables_number       1
_space_group_crystal_system       triclinic
_cell_length_a                    7.763512
_cell_length_b                    8.595501
_cell_length_c                    10.62785
_cell_angle_alpha                 91.217238
_cell_angle_beta                  85.686601
_cell_angle_gamma                 93.712137
_cell_volume                      705.621889972

loop_
_atom_site_label
_atom_site_type_symbol
_atom_site_description
_atom_site_fract_x
_atom_site_fract_y
_atom_site_fract_z
_atom_type_partial_charge
O1    O     O_R   0.389250 0.738570 0.508280 -0.638443
O2    O     O_R   0.678390 0.711630 0.486650 -0.659455
C1    C     C_R   0.546451 0.794449 0.485942 0.779651
O3    O     O_R   0.355400 0.513470 0.694050 -0.583901
O4    O     O_R   0.644540 0.486530 0.672420 -0.627702
C2    C     C_R   0.502824 0.506255 0.739350 0.903311
Zn1   Zn    Zn3+2 0.306930 0.517990 0.514440 0.967000
Zn2   Zn    Zn3+2 0.693070 0.482010 0.485560 0.974503
O5    O     O_R   0.321610 0.288370 0.513350 -0.619543
O6    O     O_R   0.610750 0.261430 0.491720 -0.543902
O7    O     O_R   0.355460 0.513470 0.327580 -0.633647
O8    O     O_R   0.644600 0.486530 0.305950 -0.614849
C3    C     C_R   0.454392 0.205325 0.495557 1.034259
C4    C     C_R   0.498858 0.502186 0.260524 0.848784
H1    H     H_    0.610069 0.289315 0.875335 0.169108
C5    C     C_R   0.401927 0.784342 0.880520 -0.268987
H2    H     H_    0.403475 0.788824 0.778868 0.178325
C6    C     C_R   0.351102 0.915336 0.952097 0.374501
C7    C     C_R   0.356412 0.913548 0.083192 -0.225923
H3    H     H_    0.325207 0.015331 0.139771 0.175631
C8    C     C_R   0.403537 0.781639 0.142598 -0.233487
H4    H     H_    0.405541 0.786698 0.244051 0.157678
C9    C     C_R   0.449515 0.647828 0.071726 0.108266
C10   C     C_R   0.451875 0.649933 0.939875 0.034855
C11   C     C_R   0.508245 0.517491 0.871496 -0.077663
C12   C     C_R   0.566101 0.389362 0.929705 -0.102742
H5    H     H_    0.601029 0.284447 0.103918 0.161631
C13   C     C_R   0.560144 0.386276 0.058433 -0.170505
C14   C     C_R   0.499050 0.512477 0.128392 -0.078850
C15   C     C_2   0.570559 0.957620 0.457425 0.277012
C16   C     C_2   0.433008 0.041126 0.490868 -0.439544
H6    H     H_    0.308879 0.990531 0.529675 0.184917
N1    N     N_2   0.950330 0.457950 0.466250 -0.166514
H7    H     H_    0.014916 0.396579 0.395630 0.199527
N2    N     N_2   0.049670 0.542050 0.533750 -0.174537
H8    H     H_    0.985540 0.610193 0.600379 0.196177
N3    N     N_R   0.293941 0.049646 0.892416 0.195466
O9    O     O_R   0.302437 0.058607 0.770157 -0.447245
O10   O     O_R   0.225337 0.161160 0.959807 -0.411007
O11   O     O_3   0.714232 0.027100 0.385329 -0.599182
C17   C     C_3   0.867160 0.946229 0.383543 0.159502
H9    H     H_    0.855885 0.840698 0.321412 0.170726
H10   H     H_    0.897319 0.917224 0.480869 0.161860
C18   C     C_3   0.020205 0.048075 0.328985 -0.825576
H11   H     H_    0.049517 0.144589 0.395937 0.252400
H12   H     H_    0.135149 0.977589 0.317022 0.198625
H13   H     H_    0.993133 0.094817 0.236313 0.279491

loop_
_geom_bond_atom_site_label_1
_geom_bond_atom_site_label_2
_geom_bond_distance
_ccdc_geom_bond_type
O4    Zn2   1.993340 S    
C9    C10   1.400525 A    
O6    C3    1.274889 A    
N3    O9    1.299732 A    
C1    C15   1.438583 S    
C17   H9    1.113309 S    
C12   C13   1.366162 A    
C7    H3    1.081139 S    
C18   H13   1.111091 S    
Zn2   O8    1.974837 S    
C17   C18   1.515768 S    
O2    C1    1.285240 A    
C15   O11   1.411569 S    
C5    C10   1.417326 A    
C5    C6    1.406467 A    
C8    H4    1.079417 S    
C18   H11   1.105062 S    
Zn1   O7    1.993340 S    
C17   H10   1.114376 S    
O4    C2    1.283164 A    
O3    Zn1   1.974837 S    
C9    C14   1.409490 A    
O3    C2    1.280205 A    
C13   C14   1.390609 A    
N1    N2    1.273179 D    
C6    N3    1.439377 S    
C18   H12   1.108701 S    
N1    H7    1.026553 S    
Zn2   N1    2.015907 S    
C8    C9    1.411927 A    
C15   C16   1.346556 D    
N3    O10   1.301914 A    
O7    C4    1.283887 A    
C2    C11   1.409295 S    
C4    C14   1.408818 S    
C10   C11   1.413197 A    
Zn2   O6    1.962040 S    
C6    C7    1.397406 A    
H5    C13   1.085152 S    
Zn1   O5    1.984079 S    
O5    C3    1.291575 A    
O11   C17   1.412820 S    
H1    C12   1.084973 S    
C7    C8    1.391727 A    
C11   C12   1.390033 A    
O1    Zn1   1.962040 S    
Zn1   N2    2.015907 S    
C3    C16   1.410648 S    
O2    Zn2   1.984079 S    
C16   H6    1.086961 S    
O8    C4    1.279084 A    
C5    H2    1.080983 S    
O1    C1    1.289134 A    
N2    H8    1.029320 S    
