data_mof_unit_4101.cif
_audit_creation_date              2012-12-10T20:42:37-0500
_audit_creation_method            fapswitch 2.2
_symmetry_space_group_name_H-M    P1
_symmetry_Int_Tables_number       1
_space_group_crystal_system       triclinic
_cell_length_a                    8.967066
_cell_length_b                    10.690655
_cell_length_c                    9.972466
_cell_angle_alpha                 89.560922
_cell_angle_beta                  90.280739
_cell_angle_gamma                 90.330706
_cell_volume                      955.943310063

loop_
_atom_site_label
_atom_site_type_symbol
_atom_type_description
_atom_site_fract_x
_atom_site_fract_y
_atom_site_fract_z
_atom_type_partial_charge
C1    C     C_R   0.497254 0.260338 0.500254 0.852877
C2    C     C_R   0.424636 0.935773 0.387198 -0.225964
C3    C     C_R   0.475394 0.871117 0.500689 -0.121017
C4    C     C_R   0.500133 0.935287 0.618679 0.000234
C5    C     C_3   0.624412 0.924958 0.719518 0.346200
C6    C     C_3   0.631038 0.066755 0.716633 -0.550714
C7    C     C_R   0.368581 0.489384 0.070866 0.006132
C8    C     C_R   0.626417 0.527682 0.070846 0.487732
C9    C     C_R   0.625768 0.525657 0.927808 -0.222633
C10   C     C_R   0.372572 0.477849 0.929864 0.156984
C11   C     C_3   0.281834 0.359119 0.935300 0.624317
C12   C     C_R   0.218946 0.500228 0.499820 0.907717
C13   C     C_3   0.254420 0.386793 0.083757 -0.163080
C14   C     C_R   0.495412 0.739545 0.499592 0.840072
C15   C     C_R   0.781059 0.499851 0.500258 0.911135
C16   C     C_1   0.065341 0.499993 0.499971 -0.186860
C17   C     C_1   0.934658 0.499825 0.500481 -0.199341
C18   C     C_R   0.503116 0.062505 0.619590 0.015567
C19   C     C_R   0.478697 0.128504 0.501283 -0.060296
C20   C     C_R   0.426710 0.065605 0.386826 -0.214921
H1    H     H_    0.395070 0.115608 0.296264 0.159384
H2    H     H_    0.289025 0.311556 0.154946 0.175518
H3    H     H_    0.390483 0.886372 0.298662 0.173682
H4    H     H_    0.726338 0.880757 0.678598 0.095459
H5    H     H_    0.605623 0.108341 0.814962 0.229092
H6    H     H_    0.731587 0.105897 0.668851 0.176691
H7    H     H_    0.728167 0.543629 0.874065 0.178826
N1    N     N_R   0.499010 0.499140 0.142800 -0.157767
N2    N     N_R   0.499010 0.499180 0.857150 -0.141740
O1    O     O_R   0.500020 0.316790 0.614690 -0.625386
O2    O     O_R   0.500000 0.316760 0.385350 -0.621507
O3    O     O_R   0.285350 0.500020 0.614650 -0.578403
O4    O     O_R   0.285340 0.499980 0.385310 -0.624236
O5    O     O_R   0.500000 0.683240 0.614650 -0.617176
O6    O     O_R   0.499980 0.683210 0.385310 -0.640872
O7    O     O_R   0.714660 0.500020 0.614690 -0.619575
O8    O     O_R   0.714650 0.499980 0.385350 -0.569341
Zn1   Zn    Zn3+2 0.500010 0.500020 0.653130 0.956718
Zn2   Zn    Zn3+2 0.499990 0.499980 0.346870 0.950889
C21   C     C_3   0.381312 0.242959 0.920802 -1.034494
H8    H     H_    0.486264 0.252678 0.979805 0.223826
H9    H     H_    0.323675 0.157562 0.958042 0.217579
H10   H     H_    0.411099 0.232208 0.815557 0.285413
C22   C     C_3   0.097404 0.436526 0.112047 -0.735591
H11   H     H_    0.090398 0.474694 0.214391 0.261898
H12   H     H_    0.066419 0.511927 0.040110 0.254103
H13   H     H_    0.014996 0.359081 0.103443 0.237699
O9    O     O_3   0.587866 0.877265 0.849341 -0.638048
C23   C     C_3   0.432883 0.868931 0.874517 0.133091
H14   H     H_    0.381612 0.794899 0.811289 0.175857
H15   H     H_    0.376940 0.959819 0.855008 0.134457
C24   C     C_3   0.408743 0.834806 0.020611 -0.363838
H16   H     H_    0.469432 0.747712 0.043972 0.224026
H17   H     H_    0.453364 0.911592 0.083658 0.215432
C25   C     C_3   0.243916 0.813562 0.048984 -0.992637
H18   H     H_    0.181431 0.901831 0.033128 0.268552
H19   H     H_    0.228168 0.780948 0.153850 0.275181
H20   H     H_    0.199567 0.740323 0.981020 0.265259
O10   O     O_3   0.759508 0.552535 0.135731 -0.630952
C26   C     C_3   0.769309 0.681605 0.166165 0.117805
H21   H     H_    0.840549 0.691440 0.256978 0.165786
H22   H     H_    0.660179 0.723674 0.191487 0.148705
C27   C     C_3   0.843073 0.755352 0.052233 -0.412416
H23   H     H_    0.955083 0.716724 0.034127 0.226076
H24   H     H_    0.777719 0.745218 0.958746 0.262511
C28   C     C_3   0.855934 0.894148 0.085542 -0.893129
H25   H     H_    0.743921 0.933884 0.104710 0.276219
H26   H     H_    0.906370 0.945438 0.999597 0.263045
H27   H     H_    0.927556 0.907577 0.175550 0.250517
O11   O     O_3   0.156705 0.370332 0.847072 -0.617140
C29   C     C_3   0.078966 0.256571 0.823429 0.134294
H28   H     H_    0.960943 0.281610 0.802690 0.172750
H29   H     H_    0.076203 0.194026 0.913151 0.101684
C30   C     C_3   0.143375 0.188942 0.700354 -0.335445
H30   H     H_    0.201288 0.257052 0.633998 0.252080
H31   H     H_    0.224395 0.117307 0.733700 0.202307
C31   C     C_3   0.026279 0.121133 0.617307 -1.000904
H32   H     H_    0.972119 0.047345 0.679335 0.261711
H33   H     H_    0.080776 0.075416 0.530862 0.274319
H34   H     H_    0.943346 0.188840 0.577558 0.268012

loop_
_geom_bond_atom_site_label_1
_geom_bond_atom_site_label_2
_ccdc_geom_bond_type
C7    C10   A    
C28   H26   S    
C25   H18   S    
C27   H24   S    
C19   C20   A    
C11   O11   S    
C31   H32   S    
C22   H11   S    
O4    Zn2   S    
C30   H31   S    
C26   C27   S    
C8    O10   S    
C5    C6    S    
C28   H27   S    
C1    O2    A    
O1    Zn1   S    
C26   H22   S    
C18   C19   A    
C15   O8    A    
C21   H10   S    
C12   C16   S    
C24   H17   S    
C8    C9    A    
C23   H15   S    
C30   C31   S    
N2    Zn1   S    
O11   C29   S    
O3    Zn1   S    
C22   H13   S    
C9    N2    A    
C4    C18   A    
C21   H9    S    
C28   H25   S    
C27   C28   S    
O10   C26   S    
C12   O3    A    
C22   H12   S    
C31   H33   S    
C6    C18   S    
C5    O9    S    
C1    C19   S    
C30   H30   S    
C2    C20   A    
C14   O6    A    
C29   H29   S    
C16   C17   T    
N1    Zn2   S    
C7    N1    A    
C26   H21   S    
O6    Zn2   S    
C23   C24   S    
C3    C14   S    
C21   H8    S    
C25   H19   S    
C8    N1    A    
C3    C4    A    
C15   O7    A    
C24   H16   S    
C9    H7    S    
C31   H34   S    
C15   C17   S    
O9    C23   S    
O5    Zn1   S    
C4    C5    S    
C14   O5    A    
C29   C30   S    
C24   C25   S    
O7    Zn1   S    
C2    C3    A    
C29   H28   S    
O8    Zn2   S    
C11   C13   S    
C10   N2    A    
C6    H6    S    
C5    H4    S    
C1    O1    A    
O2    Zn2   S    
C13   H2    S    
C11   C21   S    
C10   C11   S    
C27   H23   S    
C6    H5    S    
C7    C13   S    
C20   H1    S    
C23   H14   S    
C25   H20   S    
C2    H3    S    
C12   O4    A    
C13   C22   S    
