data_mof_unit_2557.cif
_audit_creation_date              2012-12-10T18:43:08-0500
_audit_creation_method            fapswitch 2.2
_symmetry_space_group_name_H-M    P1
_symmetry_Int_Tables_number       1
_space_group_crystal_system       triclinic
_cell_length_a                    10.727408
_cell_length_b                    9.852995
_cell_length_c                    10.742088
_cell_angle_alpha                 89.998606
_cell_angle_beta                  90.176741
_cell_angle_gamma                 89.999841
_cell_volume                      1135.40211918

loop_
_atom_site_label
_atom_site_type_symbol
_atom_type_description
_atom_site_fract_x
_atom_site_fract_y
_atom_site_fract_z
_atom_type_partial_charge
C1    C     C_R   0.259904 0.499974 0.500323 0.849239
C2    C     C_R   0.740097 0.499973 0.499657 0.849268
C3    C     C_R   0.496936 0.499802 0.262567 0.934238
C4    C     C_R   0.503069 0.499801 0.737433 0.934307
C5    C     C_2   0.496643 0.385110 0.933028 -0.156527
C6    C     C_2   0.503419 0.385115 0.066977 -0.156443
C7    C     C_2   0.515066 0.499414 0.868972 -0.337664
C8    C     C_2   0.484951 0.499414 0.131026 -0.337647
C9    C     C_R   0.063785 0.376425 0.501198 -0.204152
C10   C     C_R   0.936220 0.376421 0.499308 -0.204302
C11   C     C_R   0.872589 0.500107 0.499307 -0.009884
C12   C     C_R   0.127412 0.500109 0.500612 -0.009913
C13   C     C_R   0.936152 0.623923 0.499507 -0.198377
C14   C     C_R   0.063845 0.623923 0.499760 -0.198384
C15   C     C_R   0.561020 0.072440 0.591865 0.454595
C16   C     C_R   0.438974 0.072440 0.408144 0.454501
C17   C     C_R   0.558367 0.927664 0.592500 -0.229637
C18   C     C_R   0.441625 0.927670 0.407505 -0.229594
H1    H     H_    0.477334 0.289046 0.887153 0.203213
H2    H     H_    0.522761 0.289062 0.112859 0.203159
H3    H     H_    0.542088 0.594567 0.911911 0.147964
H4    H     H_    0.457899 0.594555 0.088083 0.147961
H5    H     H_    0.112050 0.279968 0.502746 0.155952
H6    H     H_    0.887959 0.279957 0.498256 0.156069
H7    H     H_    0.887744 0.720452 0.499351 0.153136
H8    H     H_    0.112249 0.720450 0.499405 0.153073
H9    H     H_    0.601876 0.871481 0.667295 0.151506
H10   H     H_    0.398092 0.871500 0.332717 0.151529
N1    N     N_R   0.500000 0.857200 0.500000 -0.103865
N2    N     N_R   0.500000 0.142810 0.500000 -0.148083
O1    O     O_R   0.316770 0.614620 0.499990 -0.625644
O2    O     O_R   0.683230 0.614620 0.500010 -0.625664
O3    O     O_R   0.316800 0.385290 0.500000 -0.612948
O4    O     O_R   0.683200 0.385290 0.500000 -0.612907
O5    O     O_R   0.500000 0.614630 0.319080 -0.628318
O6    O     O_R   0.500000 0.614630 0.680920 -0.628301
O7    O     O_R   0.500030 0.385300 0.319080 -0.561308
O8    O     O_R   0.499970 0.385300 0.680920 -0.561285
Zn1   Zn    Zn3+2 0.500000 0.653120 0.500000 0.939700
Zn2   Zn    Zn3+2 0.500000 0.346880 0.500000 1.015895
O9    O     O_3   0.615069 0.144849 0.688425 -0.583350
C19   C     C_3   0.740677 0.106246 0.705986 0.084158
H11   H     H_    0.790863 0.095771 0.615744 0.117914
H12   H     H_    0.746283 0.009123 0.758310 0.129288
C20   C     C_3   0.806209 0.214711 0.782893 -0.794621
H13   H     H_    0.906013 0.187738 0.795081 0.199659
H14   H     H_    0.799741 0.314534 0.735382 0.258932
H15   H     H_    0.761941 0.222900 0.875941 0.250657
O10   O     O_3   0.384857 0.144835 0.311617 -0.583391
C21   C     C_3   0.259183 0.106429 0.294351 0.084382
H16   H     H_    0.209175 0.096187 0.384696 0.117998
H17   H     H_    0.253340 0.009239 0.242193 0.129180
C22   C     C_3   0.193645 0.214875 0.217418 -0.794499
H18   H     H_    0.093811 0.188023 0.205409 0.199658
H19   H     H_    0.200279 0.314731 0.264807 0.258951
H20   H     H_    0.237758 0.222898 0.124302 0.250626

loop_
_geom_bond_atom_site_label_1
_geom_bond_atom_site_label_2
_ccdc_geom_bond_type
O5    Zn1   S    
C4    O6    A    
C15   C17   A    
C5    H1    S    
C6    H2    S    
O9    C19   S    
C21   H17   S    
C3    O5    A    
N1    Zn1   S    
C22   H19   S    
C21   H16   S    
C12   C14   A    
C1    O3    A    
C18   N1    A    
C7    H3    S    
C22   H18   S    
C14   H8    S    
O8    Zn2   S    
C11   C13   A    
C13   H7    S    
C1    C12   S    
C19   H12   S    
C4    C7    S    
O4    Zn2   S    
C2    C11   S    
C9    C10   A    
C16   C18   A    
O1    Zn1   S    
C3    C8    S    
O7    Zn2   S    
C20   H14   S    
C5    C6    S    
C9    C12   A    
O2    Zn1   S    
O3    Zn2   S    
C19   H11   S    
N2    Zn2   S    
C21   C22   S    
C20   H13   S    
C17   N1    A    
C1    O1    A    
C18   H10   S    
C16   O10   S    
C15   O9    S    
C15   N2    A    
C2    O2    A    
O10   C21   S    
C10   C11   A    
C22   H20   S    
C5    C7    D    
C9    H5    S    
C6    C8    D    
C20   H15   S    
C10   H6    S    
C2    O4    A    
C13   C14   A    
C16   N2    A    
C8    H4    S    
O6    Zn1   S    
C3    O7    A    
C4    O8    A    
C19   C20   S    
C17   H9    S    
