data_mof_unit_1628.cif
_audit_creation_date              2012-12-10T17:44:38-0500
_audit_creation_method            fapswitch 2.2
_symmetry_space_group_name_H-M    P1
_symmetry_Int_Tables_number       1
_space_group_crystal_system       triclinic
_cell_length_a                    9.899202
_cell_length_b                    10.723335
_cell_length_c                    15.581909
_cell_angle_alpha                 90.857319
_cell_angle_beta                  68.132839
_cell_angle_gamma                 89.394953
_cell_volume                      1534.64447247

loop_
_atom_site_label
_atom_site_type_symbol
_atom_type_description
_atom_site_fract_x
_atom_site_fract_y
_atom_site_fract_z
_atom_type_partial_charge
C1    C     C_R   0.503479 0.739631 0.490951 0.915126
C2    C     C_R   0.713066 0.399734 0.041338 -0.036367
C3    C     C_R   0.576696 0.459182 0.090929 -0.110867
C4    C     C_R   0.409129 0.498466 0.675474 0.835420
C5    C     C_R   0.813929 0.381072 0.084241 -0.165336
C6    C     C_R   0.778870 0.417893 0.176296 -0.322685
C7    C     C_R   0.553731 0.510039 0.178614 0.535801
C8    C     C_R   0.251404 0.895469 0.476048 0.415926
C9    C     C_R   0.115324 0.955341 0.515845 0.603348
C10   C     C_R   0.099762 0.062851 0.569803 -0.325373
C11   C     C_R   0.222682 0.118020 0.575789 -0.181546
C12   C     C_R   0.407302 0.459901 0.913695 0.132238
C13   C     C_R   0.362294 0.062909 0.530084 0.038993
C14   C     C_R   0.372470 0.941121 0.495176 -0.197021
C15   C     C_R   0.504239 0.873295 0.479473 -0.251909
C16   C     C_R   0.496269 0.260406 0.507292 0.903380
C17   C     C_R   0.632070 0.936310 0.469976 0.639095
C18   C     C_R   0.626959 0.063044 0.483696 -0.285710
C19   C     C_R   0.493188 0.126914 0.513397 -0.175935
C20   C     C_R   0.789991 0.666376 0.619216 -0.030464
C21   C     C_R   0.824984 0.744543 0.679672 -0.125175
C22   C     C_R   0.963853 0.741219 0.681087 -0.198126
C23   C     C_R   0.261437 0.494963 0.967889 0.170822
C24   C     C_R   0.068902 0.660678 0.621316 -0.118147
C25   C     C_R   0.037460 0.580758 0.558876 0.106001
C26   C     C_R   0.893285 0.582070 0.558235 0.175155
C27   C     C_R   0.959855 0.418806 0.446783 -0.269200
C28   C     C_R   0.591121 0.498412 0.324332 0.914836
C29   C     C_R   0.105759 0.419451 0.444825 0.554305
C30   C     C_R   0.352828 0.490963 0.775844 -0.064041
C31   C     C_R   0.646767 0.480482 0.224004 -0.143248
C32   C     C_R   0.161034 0.519180 0.925831 -0.173655
C33   C     C_R   0.206545 0.516763 0.829838 -0.157370
C34   C     C_R   0.508255 0.434659 0.956497 -0.026118
C35   C     C_R   0.450596 0.460074 0.817752 -0.265653
C36   C     C_3   0.345851 0.846687 0.320974 0.143250
C37   C     C_3   0.255447 0.828023 0.260855 -0.240439
C38   C     C_3   0.341621 0.859741 0.160156 -0.937168
C39   C     C_3   0.209925 0.310389 0.303958 0.080665
C40   C     C_3   0.155660 0.179610 0.295407 -0.366412
C41   C     C_3   0.141263 0.159991 0.201950 -0.934696
C42   C     C_R   0.468861 0.466361 0.051180 0.085937
C43   C     C_R   0.321353 0.498337 0.103644 -0.150528
C44   C     C_R   0.218968 0.509220 0.062990 -0.288710
C45   C     C_R   0.646230 0.377947 0.908003 -0.323488
C46   C     C_R   0.745823 0.358935 0.950262 0.617908
F1    F     F_    0.762938 0.876166 0.444909 -0.607796
F2    F     F_    0.998993 0.910603 0.500013 -0.611495
F3    F     F_    0.444982 0.593562 0.220082 -0.729763
F4    F     F_    0.875343 0.301498 0.901265 -0.684190
H1    H     H_    0.107289 0.533703 0.105874 0.157011
H2    H     H_    0.173203 0.663151 0.626215 0.189996
H3    H     H_    0.852712 0.394793 0.210629 0.176338
H4    H     H_    0.048937 0.544404 0.966983 0.151694
H5    H     H_    0.129168 0.539544 0.798075 0.163984
H6    H     H_    0.562984 0.443521 0.774124 0.164185
H7    H     H_    0.279514 0.511406 0.177204 0.201187
H8    H     H_    0.677600 0.341626 0.838226 0.174573
H9    H     H_    0.449614 0.792666 0.291763 0.205390
H10   H     H_    0.376766 0.946833 0.318565 0.072394
H11   H     H_    0.219426 0.729826 0.264449 0.269184
H12   H     H_    0.917377 0.333843 0.047987 0.206212
H13   H     H_    0.156223 0.888537 0.288197 0.232423
H14   H     H_    0.377746 0.957969 0.155009 0.258381
H15   H     H_    0.271771 0.847521 0.119121 0.266777
H16   H     H_    0.438619 0.797170 0.130371 0.303437
H17   H     H_    0.324194 0.316389 0.254279 0.170229
H18   H     H_    0.146152 0.381113 0.282593 0.110848
H19   H     H_    0.233913 0.110026 0.302746 0.224259
H20   H     H_    0.048455 0.164427 0.351432 0.237046
H21   H     H_    0.061519 0.228058 0.194038 0.260520
H22   H     H_    0.102218 0.064467 0.197198 0.279438
H23   H     H_    0.993871 0.107493 0.602552 0.191889
H24   H     H_    0.248291 0.171685 0.144808 0.267784
H25   H     H_    0.207768 0.204004 0.615744 0.193543
H26   H     H_    0.728495 0.111035 0.470003 0.198175
H27   H     H_    0.927714 0.352048 0.405732 0.157184
H28   H     H_    0.680612 0.674625 0.623555 0.184995
H29   H     H_    0.743449 0.807849 0.725945 0.143800
H30   H     H_    0.990790 0.801930 0.728327 0.149122
N1    N     N_R   0.856800 0.501200 0.500850 -0.132111
N2    N     N_R   0.142390 0.501280 0.500880 -0.145134
O1    O     O_R   0.385310 0.683220 0.500000 -0.600882
O2    O     O_3   0.209733 0.331181 0.393982 -0.607317
O3    O     O_R   0.614640 0.683250 0.500010 -0.575456
O4    O     O_R   0.319840 0.499980 0.632240 -0.653619
O5    O     O_R   0.549160 0.500000 0.632250 -0.649054
O6    O     O_R   0.385360 0.316750 0.499990 -0.578976
O7    O     O_R   0.614690 0.316780 0.500000 -0.629063
O8    O     O_R   0.450840 0.500000 0.367750 -0.523991
O9    O     O_R   0.680160 0.500020 0.367760 -0.622268
O10   O     O_3   0.266576 0.802309 0.410676 -0.586162
Zn1   Zn    Zn3+2 0.346880 0.499980 0.499990 1.011092
Zn2   Zn    Zn3+2 0.653120 0.500020 0.500010 0.961370

loop_
_geom_bond_atom_site_label_1
_geom_bond_atom_site_label_2
_ccdc_geom_bond_type
C33   H5    S    
C3    C42   A    
C24   H2    S    
C27   C29   A    
C39   H18   S    
C34   C42   A    
C36   H9    S    
C4    O5    A    
C45   C46   A    
C2    C46   A    
C12   C23   A    
C40   H20   S    
C30   C35   A    
C36   C37   S    
C39   O2    S    
C3    C7    A    
C5    C6    A    
C10   H23   S    
C4    O4    A    
O1    Zn1   S    
O5    Zn2   S    
C18   C19   A    
O7    Zn2   S    
C41   H24   S    
C38   H16   S    
C8    C9    A    
C18   H26   S    
C1    C15   S    
C9    C10   A    
C41   H21   S    
C36   O10   S    
C6    C31   A    
C16   O7    A    
N2    Zn1   S    
C21   C22   A    
C32   H4    S    
C37   H13   S    
C38   H14   S    
C1    O3    A    
C45   H8    S    
C7    C31   A    
C40   H19   S    
C13   C19   A    
C27   N1    A    
C24   C25   A    
C7    F3    S    
C29   O2    S    
C39   C40   S    
C36   H10   S    
C25   C26   A    
C23   C44   A    
C43   C44   A    
C37   C38   S    
O4    Zn1   S    
O3    Zn2   S    
C38   H15   S    
C21   H29   S    
C17   C18   A    
C34   C45   A    
C12   C35   A    
C41   H22   S    
C8    O10   S    
C44   H1    S    
C40   C41   S    
C26   N1    A    
C25   N2    A    
C22   C24   A    
C2    C5    A    
C42   C43   A    
C6    H3    S    
C12   C34   A    
O8    Zn1   S    
C15   C17   A    
O6    Zn1   S    
C8    C14   A    
C30   C33   A    
C35   H6    S    
C39   H17   S    
C28   C31   S    
C17   F1    S    
C27   H27   S    
C37   H11   S    
C1    O1    A    
C46   F4    S    
C20   H28   S    
C23   C32   A    
C2    C3    A    
C22   H30   S    
C29   N2    A    
C11   H25   S    
C32   C33   A    
O9    Zn2   S    
N1    Zn2   S    
C11   C13   A    
C20   C26   A    
C16   C19   S    
C5    H12   S    
C28   O9    A    
C10   C11   A    
C43   H7    S    
C20   C21   A    
C9    F2    S    
C16   O6    A    
C14   C15   A    
C28   O8    A    
C13   C14   A    
C4    C30   S    
