data_mof_unit_4983.cif
_audit_creation_date              2012-12-11T14:13:25-0500
_audit_creation_method            fapswitch 2.2
_symmetry_space_group_name_H-M    P1
_symmetry_Int_Tables_number       1
_space_group_crystal_system       triclinic
_cell_length_a                    17.24892
_cell_length_b                    17.248936
_cell_length_c                    17.394983
_cell_angle_alpha                 90.000591
_cell_angle_beta                  90.000252
_cell_angle_gamma                 89.999895
_cell_volume                      5175.45131254

loop_
_atom_site_label
_atom_site_type_symbol
_atom_type_description
_atom_site_fract_x
_atom_site_fract_y
_atom_site_fract_z
_atom_type_partial_charge
C1    C     C_R   0.593561 0.315766 0.128799 -0.144126
C2    C     C_R   0.183021 0.092530 0.630357 -0.151827
C3    C     C_R   0.907470 0.183022 0.630356 -0.151820
C4    C     C_R   0.816980 0.907473 0.630358 -0.151821
C5    C     C_R   0.105790 0.196539 0.398665 -0.186505
C6    C     C_R   0.196539 0.894209 0.398666 -0.186505
C7    C     C_R   0.894209 0.803460 0.398666 -0.186502
C8    C     C_R   0.803461 0.105790 0.398666 -0.186504
C9    C     C_R   0.591347 0.683906 0.129007 -0.052058
C10   C     C_R   0.316094 0.591348 0.129006 -0.052063
C11   C     C_R   0.408652 0.316094 0.129005 -0.052057
C12   C     C_R   0.684234 0.593561 0.128800 -0.144104
C13   C     C_R   0.683907 0.408652 0.129006 -0.052065
C14   C     C_R   0.605148 0.303485 0.898194 -0.110131
C15   C     C_R   0.303485 0.394852 0.898194 -0.110134
C16   C     C_R   0.394852 0.696514 0.898192 -0.110161
C17   C     C_R   0.696515 0.605144 0.898195 -0.110071
C18   C     C_R   0.090866 0.183333 0.629877 -0.066130
C19   C     C_R   0.816667 0.090867 0.629876 -0.066132
C20   C     C_R   0.909135 0.816670 0.629879 -0.066132
C21   C     C_R   0.183334 0.909133 0.629876 -0.066132
C22   C     C_R   0.105100 0.803388 0.398582 -0.101356
C23   C     C_R   0.406439 0.684234 0.128799 -0.144142
C24   C     C_R   0.803388 0.894899 0.398582 -0.101357
C25   C     C_R   0.894900 0.196611 0.398581 -0.101355
C26   C     C_R   0.196611 0.105099 0.398581 -0.101356
C27   C     C_R   0.659863 0.341873 0.164732 0.246670
C28   C     C_R   0.658127 0.659862 0.164735 0.246667
C29   C     C_R   0.340138 0.658128 0.164734 0.246667
C30   C     C_R   0.341872 0.340138 0.164732 0.246668
C31   C     C_R   0.683200 0.683151 0.885074 0.233912
C32   C     C_R   0.683155 0.316802 0.885075 0.233878
C33   C     C_R   0.316802 0.316845 0.885076 0.233873
C34   C     C_R   0.315766 0.406439 0.128798 -0.144128
C35   C     C_R   0.316844 0.683196 0.885074 0.233864
C36   C     C_R   0.158219 0.843520 0.667196 0.211578
C37   C     C_R   0.156479 0.158217 0.667199 0.211573
C38   C     C_R   0.841783 0.156481 0.667198 0.211570
C39   C     C_R   0.843523 0.841788 0.667201 0.211561
C40   C     C_R   0.183281 0.182984 0.385000 0.216181
C41   C     C_R   0.182985 0.816718 0.385002 0.216178
C42   C     C_R   0.816718 0.817015 0.385003 0.216175
C43   C     C_R   0.817016 0.183281 0.385001 0.216180
C44   C     C_2   0.814221 0.731136 0.852847 0.545641
C45   C     C_R   0.605734 0.696609 0.898797 -0.167616
C46   C     C_2   0.268846 0.814216 0.852864 0.545658
C47   C     C_2   0.185782 0.268849 0.852863 0.545646
C48   C     C_2   0.731151 0.185782 0.852860 0.545647
C49   C     C_2   0.716122 0.349204 0.292125 0.508774
C50   C     C_2   0.349204 0.283876 0.292123 0.508772
C51   C     C_2   0.283879 0.650795 0.292125 0.508772
C52   C     C_2   0.650795 0.716121 0.292127 0.508770
C53   C     C_2   0.312893 0.229905 0.347998 0.500768
C54   C     C_2   0.770094 0.312894 0.348000 0.500768
C55   C     C_2   0.687105 0.770092 0.348005 0.500766
C56   C     C_R   0.696610 0.394269 0.898797 -0.167584
C57   C     C_2   0.229907 0.687105 0.348001 0.500767
C58   C     C_2   0.222790 0.852128 0.792376 0.547347
C59   C     C_2   0.852134 0.777213 0.792376 0.547363
C60   C     C_2   0.777214 0.147870 0.792377 0.547354
C61   C     C_2   0.147870 0.222787 0.792379 0.547356
C62   C     C_2   0.738970 0.744432 0.868652 -0.511000
C63   C     C_2   0.255559 0.738960 0.868651 -0.511037
C64   C     C_2   0.261037 0.255560 0.868656 -0.511009
C65   C     C_2   0.744440 0.261037 0.868654 -0.511012
C66   C     C_2   0.697955 0.307003 0.229494 -0.452736
C67   C     C_R   0.394269 0.303390 0.898797 -0.167581
C68   C     C_2   0.307002 0.302046 0.229494 -0.452738
C69   C     C_2   0.302047 0.692997 0.229497 -0.452735
C70   C     C_2   0.692996 0.697954 0.229498 -0.452738
C71   C     C_2   0.238886 0.243929 0.367203 -0.412133
C72   C     C_2   0.756070 0.238887 0.367205 -0.412133
C73   C     C_2   0.761112 0.756069 0.367209 -0.412125
C74   C     C_2   0.243931 0.761112 0.367207 -0.412130
C75   C     C_2   0.193417 0.809025 0.734216 -0.459518
C76   C     C_2   0.809029 0.806595 0.734222 -0.459479
C77   C     C_2   0.806588 0.190975 0.734219 -0.459504
C78   C     C_R   0.303390 0.605730 0.898796 -0.167571
C79   C     C_2   0.190974 0.193413 0.734220 -0.459510
C80   C     C_3   0.872577 0.677633 0.956954 -0.240849
C81   C     C_3   0.322311 0.872472 0.957054 -0.240747
C82   C     C_3   0.127492 0.322321 0.957027 -0.240794
C83   C     C_3   0.677678 0.127488 0.957020 -0.240788
C84   C     C_3   0.678621 0.448837 0.372767 -0.200989
C85   C     C_3   0.448837 0.321381 0.372763 -0.200980
C86   C     C_3   0.321385 0.551163 0.372764 -0.200986
C87   C     C_3   0.551162 0.678616 0.372766 -0.200981
C88   C     C_3   0.391511 0.126307 0.315846 -0.299080
C89   C     C_R   0.092531 0.816978 0.630355 -0.151824
C90   C     C_3   0.873690 0.391513 0.315848 -0.299086
C91   C     C_3   0.608484 0.873689 0.315855 -0.299082
C92   C     C_3   0.126312 0.608484 0.315848 -0.299073
C93   C     C_3   0.157760 0.961808 0.824066 -0.290624
C94   C     C_3   0.961812 0.842251 0.824053 -0.290851
C95   C     C_3   0.842251 0.038193 0.824057 -0.290703
C96   C     C_3   0.038194 0.157750 0.824061 -0.290694
H1    H     H_    0.564529 0.261349 0.138719 0.096753
H2    H     H_    0.237036 0.063152 0.641132 0.126301
H3    H     H_    0.936848 0.237037 0.641132 0.126300
H4    H     H_    0.762965 0.936851 0.641134 0.126303
H5    H     H_    0.078258 0.252744 0.402958 0.106432
H6    H     H_    0.252744 0.921742 0.402960 0.106432
H7    H     H_    0.921741 0.747255 0.402960 0.106432
H8    H     H_    0.747255 0.078258 0.402958 0.106431
H9    H     H_    0.561087 0.737747 0.138392 0.090373
H10   H     H_    0.262254 0.561088 0.138391 0.090373
H11   H     H_    0.438912 0.262253 0.138389 0.090375
H12   H     H_    0.738650 0.564528 0.138721 0.096749
H13   H     H_    0.737747 0.438912 0.138390 0.090369
H14   H     H_    0.575537 0.248558 0.901686 0.155987
H15   H     H_    0.248558 0.424463 0.901687 0.155985
H16   H     H_    0.424462 0.751442 0.901682 0.155981
H17   H     H_    0.751440 0.575530 0.901692 0.155998
H18   H     H_    0.061239 0.237583 0.638578 0.132234
H19   H     H_    0.762417 0.061241 0.638576 0.132235
H20   H     H_    0.938762 0.762420 0.638580 0.132246
H21   H     H_    0.237584 0.938760 0.638576 0.132234
H22   H     H_    0.075518 0.748528 0.402899 0.158673
H23   H     H_    0.435471 0.738651 0.138720 0.096753
H24   H     H_    0.748528 0.924482 0.402899 0.158672
H25   H     H_    0.924482 0.251472 0.402898 0.158674
H26   H     H_    0.251472 0.075517 0.402897 0.158673
H27   H     H_    0.714020 0.800852 0.855946 0.133650
H28   H     H_    0.199147 0.714002 0.855922 0.133664
H29   H     H_    0.285991 0.199145 0.855934 0.133663
H30   H     H_    0.800854 0.285992 0.855933 0.133661
H31   H     H_    0.713857 0.246302 0.224011 0.113300
H32   H     H_    0.246301 0.286146 0.224011 0.113300
H33   H     H_    0.286146 0.753698 0.224015 0.113298
H34   H     H_    0.261349 0.435471 0.138719 0.096751
H35   H     H_    0.753697 0.713855 0.224016 0.113302
H36   H     H_    0.213721 0.300240 0.353955 0.109919
H37   H     H_    0.699759 0.213722 0.353956 0.109920
H38   H     H_    0.786277 0.699757 0.353961 0.109918
H39   H     H_    0.300242 0.786277 0.353960 0.109919
H40   H     H_    0.194520 0.746185 0.734825 0.141495
H41   H     H_    0.746189 0.805493 0.734835 0.141490
H42   H     H_    0.805484 0.253814 0.734830 0.141494
H43   H     H_    0.253813 0.194517 0.734831 0.141494
H44   H     H_    0.820054 0.683610 0.993679 0.128570
H45   H     H_    0.578271 0.752808 0.903559 0.109523
H46   H     H_    0.910971 0.729021 0.963991 0.135597
H47   H     H_    0.905027 0.626139 0.977539 0.161960
H48   H     H_    0.316502 0.819891 0.993716 0.128637
H49   H     H_    0.270824 0.910714 0.964173 0.135387
H50   H     H_    0.373726 0.905038 0.977648 0.161966
H51   H     H_    0.180051 0.316469 0.993710 0.128625
H52   H     H_    0.089214 0.270861 0.964116 0.135455
H53   H     H_    0.094953 0.373752 0.977619 0.161960
H54   H     H_    0.683533 0.180045 0.993706 0.128619
H55   H     H_    0.729136 0.089208 0.964107 0.135459
H56   H     H_    0.752808 0.421733 0.903560 0.109515
H57   H     H_    0.626246 0.094951 0.977611 0.161966
H58   H     H_    0.733282 0.458513 0.405071 0.168726
H59   H     H_    0.641326 0.405743 0.402882 0.106005
H60   H     H_    0.646684 0.504631 0.371944 0.165249
H61   H     H_    0.458507 0.266723 0.405074 0.168724
H62   H     H_    0.405744 0.358683 0.402873 0.106000
H63   H     H_    0.504633 0.353313 0.371939 0.165253
H64   H     H_    0.266726 0.541491 0.405074 0.168721
H65   H     H_    0.358685 0.594256 0.402876 0.106001
H66   H     H_    0.353318 0.495367 0.371939 0.165251
H67   H     H_    0.421733 0.247192 0.903561 0.109519
H68   H     H_    0.541489 0.733275 0.405076 0.168722
H69   H     H_    0.594255 0.641316 0.402877 0.106001
H70   H     H_    0.495366 0.646682 0.371940 0.165251
H71   H     H_    0.446131 0.157195 0.301622 0.181591
H72   H     H_    0.354925 0.118903 0.263568 0.124890
H73   H     H_    0.407624 0.067511 0.336141 0.164471
H74   H     H_    0.842802 0.446134 0.301627 0.181588
H75   H     H_    0.881092 0.354928 0.263569 0.124890
H76   H     H_    0.932487 0.407624 0.336142 0.164473
H77   H     H_    0.553864 0.842801 0.301632 0.181591
H78   H     H_    0.247192 0.578265 0.903559 0.109512
H79   H     H_    0.645069 0.881093 0.263577 0.124890
H80   H     H_    0.592372 0.932485 0.336151 0.164472
H81   H     H_    0.157200 0.553863 0.301628 0.181590
H82   H     H_    0.118911 0.645067 0.263568 0.124886
H83   H     H_    0.067514 0.592373 0.336140 0.164469
H84   H     H_    0.150091 0.938358 0.883255 0.106237
H85   H     H_    0.105421 0.950039 0.788635 0.141164
H86   H     H_    0.163960 0.025599 0.829078 0.173083
H87   H     H_    0.938361 0.849933 0.883241 0.106238
H88   H     H_    0.950043 0.894583 0.788612 0.141238
H89   H     H_    0.063154 0.762963 0.641129 0.126301
H90   H     H_    0.025603 0.836053 0.829067 0.173109
H91   H     H_    0.849929 0.061646 0.883245 0.106236
H92   H     H_    0.894584 0.049961 0.788619 0.141194
H93   H     H_    0.836053 0.974403 0.829072 0.173097
H94   H     H_    0.061644 0.150077 0.883251 0.106239
H95   H     H_    0.049965 0.105415 0.788626 0.141188
H96   H     H_    0.974402 0.163946 0.829074 0.173092
N1    N     N_R   0.574080 0.369570 0.076720 -0.048040
N2    N     N_R   0.130430 0.074080 0.576720 -0.050510
N3    N     N_R   0.925920 0.130430 0.576720 -0.050511
N4    N     N_R   0.869570 0.925920 0.576720 -0.050511
N5    N     N_R   0.074080 0.130430 0.423280 -0.044433
N6    N     N_R   0.130430 0.925920 0.423280 -0.044433
N7    N     N_R   0.925920 0.869570 0.423280 -0.044432
N8    N     N_R   0.869570 0.074080 0.423280 -0.044433
N9    N     N_R   0.574050 0.630410 0.076720 -0.054429
N10   N     N_R   0.369590 0.574050 0.076720 -0.054429
N11   N     N_R   0.425950 0.369590 0.076720 -0.054430
N12   N     N_R   0.630430 0.574080 0.076720 -0.048043
N13   N     N_R   0.630410 0.425950 0.076720 -0.054430
N14   N     N_R   0.574050 0.369590 0.923280 -0.056743
N15   N     N_R   0.369590 0.425950 0.923280 -0.056743
N16   N     N_R   0.425950 0.630410 0.923280 -0.056736
N17   N     N_R   0.630410 0.574050 0.923280 -0.056756
N18   N     N_R   0.074050 0.130410 0.576720 -0.059277
N19   N     N_R   0.869590 0.074050 0.576720 -0.059277
N20   N     N_R   0.925950 0.869590 0.576720 -0.059277
N21   N     N_R   0.130410 0.925950 0.576720 -0.059277
N22   N     N_R   0.074050 0.869590 0.423280 -0.056926
N23   N     N_R   0.425920 0.630430 0.076720 -0.048039
N24   N     N_R   0.869590 0.925950 0.423280 -0.056926
N25   N     N_R   0.925950 0.130410 0.423280 -0.056927
N26   N     N_R   0.130410 0.074050 0.423280 -0.056926
N27   N     N_R   0.369570 0.425920 0.076720 -0.048040
N28   N     N_R   0.574080 0.630430 0.923280 -0.046602
N29   N     N_R   0.630430 0.425920 0.923280 -0.046604
N30   N     N_R   0.425920 0.369570 0.923280 -0.046602
N31   N     N_R   0.369570 0.574080 0.923280 -0.046602
N32   N     N_R   0.074080 0.869570 0.576720 -0.050511
Ni1   Ni    Ni4+2 0.500000 0.370760 0.000000 0.209231
Ni2   Ni    Ni4+2 0.629240 0.500000 0.000000 0.209228
Ni3   Ni    Ni4+2 0.500000 0.629240 0.000000 0.209229
Ni4   Ni    Ni4+2 0.370760 0.500000 0.000000 0.209228
Ni5   Ni    Ni4+2 0.000000 0.870760 0.500000 0.209457
Ni6   Ni    Ni4+2 0.129240 1.000000 0.500000 0.209456
Ni7   Ni    Ni4+2 0.000000 0.129240 0.500000 0.209457
Ni8   Ni    Ni4+2 0.870760 1.000000 0.500000 0.209457
O1    O     O_3   0.852858 0.665995 0.879106 -0.589867
O2    O     O_3   0.835566 0.351079 0.375452 -0.617491
O3    O     O_3   0.648919 0.835563 0.375458 -0.617488
O4    O     O_3   0.164435 0.648920 0.375452 -0.617490
O5    O     O_3   0.224710 0.932294 0.788129 -0.582115
O6    O     O_3   0.932300 0.775293 0.788130 -0.582130
O7    O     O_3   0.775296 0.067705 0.788129 -0.582121
O8    O     O_3   0.067704 0.224705 0.788132 -0.582120
O9    O     O_3   0.333957 0.852873 0.879176 -0.589841
O10   O     O_3   0.147130 0.333968 0.879161 -0.589852
O11   O     O_3   0.666031 0.147131 0.879155 -0.589851
O12   O     O_3   0.694154 0.426891 0.296195 -0.608575
O13   O     O_3   0.426891 0.305841 0.296192 -0.608577
O14   O     O_3   0.305845 0.573108 0.296193 -0.608575
O15   O     O_3   0.573107 0.694155 0.296195 -0.608575
O16   O     O_3   0.351079 0.164434 0.375450 -0.617490

loop_
_geom_bond_atom_site_label_1
_geom_bond_atom_site_label_2
_ccdc_geom_bond_type
C36   C89   A    
C14   H14   S    
C79   H43   S    
C53   C71   D    
C43   C72   S    
C40   C71   S    
C91   O3    S    
C26   N26   A    
C24   C42   A    
N2    Ni6   S    
C25   N25   A    
C2    C37   A    
C8    C43   A    
C55   O3    S    
C25   C43   A    
C89   N32   A    
C82   H51   S    
C95   H91   S    
C21   C36   A    
C23   N23   A    
C76   H41   S    
N16   N31   A    
C37   C79   S    
C82   O10   S    
C94   H88   S    
C12   C28   A    
C19   N19   A    
C23   C29   A    
C96   H95   S    
C18   N18   A    
C18   C37   A    
C17   N17   A    
N16   Ni3   S    
C23   H23   S    
C56   N29   A    
N21   N32   A    
C87   H70   S    
C88   O16   S    
C44   C59   S    
C81   O9    S    
C49   C54   S    
C83   O11   S    
C66   H31   S    
C91   H77   S    
C90   O2    S    
N9    Ni3   S    
C7    C42   A    
C96   H94   S    
C5    N5    A    
N26   Ni6   S    
C21   H21   S    
C50   C68   D    
C71   H36   S    
C84   H58   S    
C94   O6    S    
C81   H48   S    
N4    Ni8   S    
C3    C38   A    
C93   O5    S    
C88   H72   S    
C6    C41   A    
C90   H75   S    
C58   C75   D    
C13   H13   S    
N18   Ni7   S    
C26   C40   A    
C48   C60   S    
C51   C57   S    
N10   N23   A    
C56   H56   S    
C58   O5    S    
C90   H76   S    
C68   H32   S    
C83   H55   S    
C52   C55   S    
C78   N31   A    
C83   H54   S    
C80   H47   S    
C6    H6    S    
C87   H68   S    
C41   C74   S    
C12   H12   S    
C86   O14   S    
C7    H7    S    
C46   C58   S    
C85   O13   S    
N8    N25   A    
C96   O8    S    
C31   C62   S    
C18   H18   S    
C85   H61   S    
C48   O11   S    
C13   N13   A    
C62   H27   S    
C93   H84   S    
C95   H92   S    
C63   H28   S    
C29   C69   S    
N5    Ni7   S    
C5    H5    S    
C60   C77   D    
C24   H24   S    
C50   C53   S    
N1    N13   A    
C49   C66   D    
C30   C34   A    
C17   H17   S    
N7    N24   A    
C15   H15   S    
N3    Ni7   S    
C51   O14   S    
C52   C70   D    
C77   H42   S    
C11   C30   A    
N19   Ni8   S    
C1    H1    S    
N14   N29   A    
C6    N6    A    
C20   C39   A    
N31   Ni4   S    
C24   N24   A    
C95   O7    S    
N30   Ni1   S    
C44   C62   D    
C92   H83   S    
C80   H44   S    
N29   Ni2   S    
C92   O4    S    
C3    N3    A    
N28   Ni3   S    
C85   H63   S    
C57   O4    S    
C2    N2    A    
C55   C73   D    
C57   C74   D    
C67   N30   A    
C1    N1    A    
N3    N19   A    
C36   C75   S    
C67   H67   S    
C22   C41   A    
N2    N18   A    
C10   N10   A    
C93   H86   S    
C4    C39   A    
C19   H19   S    
C88   H71   S    
C74   H39   S    
C59   O6    S    
N14   Ni1   S    
N6    Ni6   S    
C91   H79   S    
N13   Ni2   S    
C84   O12   S    
C86   H65   S    
C11   N11   A    
C39   C76   S    
C75   H40   S    
C8    H8    S    
C12   N12   A    
C9    N9    A    
C45   H45   S    
C86   H66   S    
C92   H82   S    
C31   C45   A    
N10   Ni4   S    
C64   H29   S    
C81   H49   S    
C22   N22   A    
C11   H11   S    
C48   C65   D    
N9    N12   A    
C21   N21   A    
C10   H10   S    
N27   Ni4   S    
N17   Ni2   S    
C54   O2    S    
N12   Ni2   S    
N5    N26   A    
C50   O13   S    
C52   O15   S    
N11   Ni1   S    
C49   O12   S    
C33   C67   A    
C20   H20   S    
C4    N4    A    
C22   H22   S    
C42   C73   S    
C16   H16   S    
C34   N27   A    
C61   O8    S    
C89   H89   S    
C80   O1    S    
C28   C70   S    
C88   H73   S    
C14   C32   A    
C16   N16   A    
C47   C61   S    
C47   O10   S    
C82   H52   S    
C47   C64   D    
C87   O15   S    
C83   H57   S    
C38   C77   S    
N8    Ni8   S    
C86   H64   S    
C35   C78   A    
C80   H46   S    
C94   H90   S    
N11   N27   A    
C46   C63   D    
C65   H30   S    
N17   N28   A    
C4    H4    S    
N7    Ni5   S    
C53   O16   S    
N1    Ni1   S    
C90   H74   S    
C16   C35   A    
C27   C66   S    
N32   Ni5   S    
N25   Ni7   S    
N20   Ni5   S    
C84   H60   S    
C10   C29   A    
C96   H96   S    
C72   H37   S    
C87   H69   S    
C25   H25   S    
C2    H2    S    
C61   C79   D    
C33   C64   S    
C17   C31   A    
C14   N14   A    
C26   H26   S    
C70   H35   S    
N24   Ni8   S    
N23   Ni3   S    
C15   C33   A    
C91   H80   S    
C93   H85   S    
C20   N20   A    
C7    N7    A    
C30   C68   S    
C82   H53   S    
C8    N8    A    
C92   H81   S    
C95   H93   S    
N4    N20   A    
C3    H3    S    
N15   Ni4   S    
C19   C38   A    
C54   C72   D    
C73   H38   S    
C34   H34   S    
N15   N30   A    
C69   H33   S    
C81   H50   S    
C85   H62   S    
C5    C40   A    
C60   O7    S    
C84   H59   S    
C1    C27   A    
C45   N28   A    
C78   H78   S    
C13   C27   A    
C35   C63   S    
C51   C69   D    
C46   O9    S    
C94   H87   S    
C44   O1    S    
N22   Ni5   S    
C9    H9    S    
C59   C76   D    
C32   C56   A    
C15   N15   A    
N21   Ni6   S    
C9    C28   A    
C32   C65   S    
N6    N22   A    
