data_mof_unit_3688.cif
_audit_creation_date              2012-12-11T14:40:25-0500
_audit_creation_method            fapswitch 2.2
_symmetry_space_group_name_H-M    P1
_symmetry_Int_Tables_number       1
_space_group_crystal_system       triclinic
_cell_length_a                    20.034764
_cell_length_b                    11.138979
_cell_length_c                    19.42701
_cell_angle_alpha                 89.999863
_cell_angle_beta                  97.091351
_cell_angle_gamma                 90.000292
_cell_volume                      4302.30019117

loop_
_atom_site_label
_atom_site_type_symbol
_atom_type_description
_atom_site_fract_x
_atom_site_fract_y
_atom_site_fract_z
_atom_type_partial_charge
C1    C     C_R   0.723724 0.957018 0.362124 0.581114
C2    C     C_3   0.246529 0.409589 0.569144 0.031537
C3    C     C_1   0.833274 0.083998 0.575998 0.212364
C4    C     C_1   0.863211 0.275217 0.470261 0.261721
C5    C     C_1   0.136813 0.275186 0.529733 0.261737
C6    C     C_1   0.380551 0.932921 0.448535 0.219853
C7    C     C_1   0.619454 0.932982 0.551475 0.219840
C8    C     C_1   0.639189 0.158284 0.033747 0.181582
C9    C     C_1   0.360811 0.158283 0.966253 0.181582
C10   C     C_1   0.139190 0.658284 0.033733 0.182493
C11   C     C_1   0.860810 0.658284 0.966268 0.182492
C12   C     C_3   0.567856 0.371645 0.953174 -0.252713
C13   C     C_3   0.248691 0.906402 0.430225 0.027175
C14   C     C_3   0.587824 0.450465 0.017300 -0.294347
C15   C     C_3   0.618027 0.567780 0.999333 -0.462258
C16   C     C_3   0.432144 0.371644 0.046825 -0.252713
C17   C     C_3   0.412176 0.450464 0.982699 -0.294346
C18   C     C_3   0.381973 0.567779 0.000665 -0.462258
C19   C     C_3   0.067844 0.871636 0.953155 -0.252380
C20   C     C_3   0.087819 0.950474 0.017272 -0.294687
C21   C     C_3   0.118012 0.067784 0.999281 -0.461892
C22   C     C_3   0.932155 0.871636 0.046844 -0.252381
C23   C     C_3   0.912180 0.950474 0.982727 -0.294686
C24   C     C_3   0.751309 0.906407 0.569776 0.027177
C25   C     C_3   0.881988 0.067783 0.000717 -0.461891
C26   C     C_3   0.459448 0.965875 0.075077 -0.248371
C27   C     C_3   0.414278 0.868780 0.043536 -0.326736
C28   C     C_3   0.394666 0.790548 0.102817 -0.431212
C29   C     C_3   0.540552 0.965877 0.924923 -0.248371
C30   C     C_3   0.585721 0.868780 0.956464 -0.326736
C31   C     C_3   0.605333 0.790552 0.897182 -0.431210
C32   C     C_3   0.959458 0.465873 0.075087 -0.248188
C33   C     C_3   0.914285 0.368770 0.043560 -0.327285
C34   C     C_3   0.894675 0.290565 0.102854 -0.430213
C35   C     C_3   0.771394 0.536461 0.454099 -0.037140
C36   C     C_3   0.040542 0.465875 0.924914 -0.248188
C37   C     C_3   0.085714 0.368770 0.956439 -0.327285
C38   C     C_3   0.105324 0.290569 0.897144 -0.430212
C39   C     C_3   0.228604 0.536434 0.545893 -0.037133
C40   C     C_3   0.213879 0.005056 0.466345 -0.027779
C41   C     C_3   0.786138 0.005035 0.533649 -0.027766
C42   C     C_3   0.828568 0.487857 0.507548 -0.151064
C43   C     C_3   0.171444 0.487807 0.492443 -0.151043
C44   C     C_3   0.281583 0.031951 0.511591 -0.147621
C45   C     C_R   0.276277 0.957021 0.637876 0.581096
C46   C     C_3   0.718436 0.031962 0.488407 -0.147618
C47   C     C_3   0.810070 0.359971 0.483763 0.001244
C48   C     C_3   0.189951 0.359938 0.516235 0.001254
C49   C     C_3   0.315172 0.929673 0.475003 -0.020873
C50   C     C_3   0.684830 0.929708 0.525000 -0.020880
C51   C     C_3   0.759691 0.347125 0.536751 -0.109283
C52   C     C_3   0.240334 0.347103 0.463253 -0.109296
C53   C     C_3   0.296596 0.836430 0.527385 -0.110652
C54   C     C_3   0.703387 0.836442 0.472620 -0.110639
C55   C     C_3   0.777571 0.475629 0.560211 0.027974
C56   C     C_R   0.207295 0.500199 0.365919 0.551512
C57   C     C_3   0.222444 0.475590 0.439786 0.027996
C58   C     C_3   0.262175 0.936399 0.563885 0.050087
C59   C     C_3   0.737826 0.936389 0.436115 0.050095
C60   C     C_3   0.527178 0.264853 0.974823 -0.010547
C61   C     C_3   0.472822 0.264853 0.025176 -0.010547
C62   C     C_3   0.027175 0.764847 0.974820 -0.010957
C63   C     C_3   0.972824 0.764847 0.025179 -0.010957
C64   C     C_3   0.566231 0.164450 0.016076 -0.008141
C65   C     C_3   0.433769 0.164448 0.983924 -0.008142
C66   C     C_3   0.066232 0.664446 0.016070 -0.008400
C67   C     C_R   0.792709 0.500210 0.634087 0.551548
C68   C     C_3   0.933768 0.664444 0.983930 -0.008400
C69   C     C_3   0.513046 0.168145 0.067229 0.016900
C70   C     C_3   0.486954 0.168144 0.932771 0.016899
C71   C     C_3   0.013052 0.668141 0.067228 0.016349
C72   C     C_3   0.986948 0.668140 0.932772 0.016349
C73   C     C_R   0.536214 0.180500 0.338024 0.539989
C74   C     C_R   0.463784 0.180500 0.661975 0.539995
C75   C     C_R   0.035897 0.680317 0.337863 0.537686
C76   C     C_R   0.964103 0.680317 0.662138 0.537691
C77   C     C_3   0.474047 0.066335 0.026195 -0.025118
C78   C     C_3   0.702837 0.398317 0.483783 -0.147867
C79   C     C_3   0.525953 0.066335 0.973806 -0.025118
C80   C     C_3   0.974049 0.566329 0.026198 -0.025190
C81   C     C_3   0.025951 0.566330 0.973803 -0.025189
C82   C     C_1   0.760178 0.416280 0.901538 -0.004886
C83   C     C_1   0.239822 0.416280 0.098462 -0.004889
C84   C     C_1   0.260170 0.916260 0.901528 -0.001053
C85   C     C_1   0.739830 0.916260 0.098472 -0.001053
C86   C     C_1   0.747338 0.402533 0.033659 -0.025013
C87   C     C_1   0.252661 0.402534 0.966341 -0.025011
C88   C     C_1   0.247330 0.902515 0.033648 -0.025335
C89   C     C_3   0.297173 0.398316 0.516225 -0.147899
C90   C     C_1   0.752669 0.902516 0.966351 -0.025334
C91   C     C_1   0.751609 0.404437 0.961484 -0.042316
C92   C     C_1   0.248391 0.404438 0.038516 -0.042316
C93   C     C_1   0.251599 0.904417 0.961473 -0.042151
C94   C     C_1   0.748401 0.904417 0.038527 -0.042151
C95   C     C_1   0.743823 0.393897 0.095048 -0.007971
C96   C     C_1   0.256176 0.393898 0.904952 -0.007974
C97   C     C_1   0.243817 0.893880 0.095038 -0.009072
C98   C     C_1   0.756183 0.893880 0.904961 -0.009074
C99   C     C_R   0.739512 0.361735 0.361426 0.548037
C100  C     C_3   0.228590 0.813901 0.482430 -0.129750
C101  C     C_R   0.260489 0.361732 0.638574 0.548047
C102  C     C_R   0.240121 0.865945 0.359537 0.535248
C103  C     C_R   0.759879 0.865949 0.640464 0.535244
C104  C     C_R   0.722436 0.950896 0.165013 0.564485
C105  C     C_R   0.277564 0.950896 0.834987 0.564478
C106  C     C_R   0.222431 0.450908 0.165008 0.563683
C107  C     C_R   0.777568 0.450908 0.834993 0.563680
C108  C     C_R   0.533102 0.178867 0.140576 0.535404
C109  C     C_R   0.466898 0.178866 0.859424 0.535407
C110  C     C_R   0.033106 0.678867 0.140575 0.537317
C111  C     C_3   0.771391 0.813883 0.517572 -0.129771
C112  C     C_R   0.966894 0.678866 0.859425 0.537319
C113  C     C_R   0.736150 0.360155 0.164816 0.550276
C114  C     C_R   0.263850 0.360156 0.835184 0.550274
C115  C     C_R   0.236145 0.860140 0.164808 0.545685
C116  C     C_R   0.763854 0.860140 0.835191 0.545684
C117  C     C_1   0.484920 0.174263 0.594719 0.016814
C118  C     C_1   0.515075 0.174261 0.405278 0.016802
C119  C     C_1   0.985764 0.673083 0.595033 0.004813
C120  C     C_1   0.014238 0.673082 0.404968 0.004793
C121  C     C_1   0.504637 0.172748 0.464789 -0.020503
C122  C     C_3   0.753478 0.409602 0.430857 0.031528
C123  C     C_1   0.495355 0.172749 0.535207 -0.020497
C124  C     C_1   0.004064 0.670344 0.464599 -0.048054
C125  C     C_1   0.995939 0.670344 0.535403 -0.048044
C126  C     C_3   0.720475 0.528135 0.507946 -0.131182
C127  C     C_3   0.279525 0.528117 0.492052 -0.131219
C128  C     C_3   0.194044 0.913842 0.519863 -0.105090
C129  C     C_3   0.805955 0.913798 0.480134 -0.105109
C130  C     C_1   0.780561 0.627087 0.401270 0.180593
C131  C     C_1   0.219408 0.627065 0.598704 0.180601
C132  C     C_1   0.166761 0.084027 0.423987 0.212350
Cr1   Cr    Cr6+3 0.765830 0.160660 0.268180 1.049464
Cr2   Cr    Cr6+3 0.384070 0.324050 0.751550 1.021991
Cr3   Cr    Cr6+3 0.115930 0.824050 0.248450 1.034696
Cr4   Cr    Cr6+3 0.884070 0.824050 0.751550 1.034693
Cr5   Cr    Cr6+3 0.234170 0.160660 0.731820 1.049467
Cr6   Cr    Cr6+3 0.265830 0.660660 0.268180 1.028202
Cr7   Cr    Cr6+3 0.734170 0.660660 0.731820 1.028200
Cr8   Cr    Cr6+3 0.612110 0.009150 0.248770 1.029320
Cr9   Cr    Cr6+3 0.387890 0.009150 0.751230 1.029313
Cr10  Cr    Cr6+3 0.112110 0.509150 0.248770 1.027519
Cr11  Cr    Cr6+3 0.887890 0.509150 0.751230 1.027510
Cr12  Cr    Cr6+3 0.615930 0.324050 0.248450 1.021999
H1    H     H_    0.651306 0.360751 0.472403 0.126960
H2    H     H_    0.696511 0.121352 0.473997 0.101981
H3    H     H_    0.880055 0.524934 0.518918 0.119285
H4    H     H_    0.119956 0.524873 0.481062 0.119286
H5    H     H_    0.752470 0.272153 0.572527 0.137293
H6    H     H_    0.247572 0.272140 0.427482 0.137283
H7    H     H_    0.330798 0.768083 0.554170 0.136771
H8    H     H_    0.669174 0.768099 0.445846 0.136766
H9    H     H_    0.653411 0.555558 0.960604 0.185180
H10   H     H_    0.575303 0.623400 0.977328 0.146275
H11   H     H_    0.643750 0.611988 0.046576 0.164904
H12   H     H_    0.348706 0.360778 0.527617 0.126977
H13   H     H_    0.544827 0.475475 0.043744 0.171674
H14   H     H_    0.620926 0.400164 0.056152 0.201010
H15   H     H_    0.613740 0.337756 0.932905 0.149365
H16   H     H_    0.539949 0.423010 0.910064 0.157936
H17   H     H_    0.346589 0.555558 0.039396 0.185179
H18   H     H_    0.424697 0.623402 0.022668 0.146275
H19   H     H_    0.356248 0.611985 0.953422 0.164903
H20   H     H_    0.455172 0.475474 0.956255 0.171673
H21   H     H_    0.379073 0.400163 0.943847 0.201011
H22   H     H_    0.386259 0.337756 0.067094 0.149365
H23   H     H_    0.203465 0.728986 0.464959 0.112136
H24   H     H_    0.460050 0.423010 0.089935 0.157935
H25   H     H_    0.153406 0.055547 0.960563 0.185131
H26   H     H_    0.075282 0.123371 0.977252 0.146555
H27   H     H_    0.143720 0.112035 0.046517 0.164548
H28   H     H_    0.044828 0.975490 0.043723 0.171965
H29   H     H_    0.120929 0.900188 0.056124 0.201019
H30   H     H_    0.113725 0.837749 0.932879 0.150792
H31   H     H_    0.039926 0.922991 0.910047 0.159333
H32   H     H_    0.846595 0.055546 0.039437 0.185129
H33   H     H_    0.924717 0.123372 0.022745 0.146554
H34   H     H_    0.796498 0.728956 0.535047 0.112137
H35   H     H_    0.856278 0.112032 0.953481 0.164547
H36   H     H_    0.955171 0.975489 0.956275 0.171964
H37   H     H_    0.879071 0.900187 0.943875 0.201020
H38   H     H_    0.886275 0.837748 0.067120 0.150792
H39   H     H_    0.960073 0.922990 0.089953 0.159332
H40   H     H_    0.436796 0.730133 0.122671 0.140235
H41   H     H_    0.382991 0.846122 0.147094 0.182797
H42   H     H_    0.349153 0.737785 0.085189 0.185077
H43   H     H_    0.370489 0.911613 0.014662 0.196741
H44   H     H_    0.440200 0.816184 0.006362 0.153035
H45   H     H_    0.683687 0.596392 0.520817 0.135002
H46   H     H_    0.507656 0.922671 0.096312 0.182137
H47   H     H_    0.435848 0.008244 0.118036 0.150527
H48   H     H_    0.563204 0.730138 0.877326 0.140235
H49   H     H_    0.617010 0.846128 0.852906 0.182796
H50   H     H_    0.650846 0.737788 0.914809 0.185077
H51   H     H_    0.629511 0.911612 0.985339 0.196741
H52   H     H_    0.559798 0.816182 0.993636 0.153034
H53   H     H_    0.492344 0.922674 0.903687 0.182138
H54   H     H_    0.564152 0.008247 0.881965 0.150527
H55   H     H_    0.936808 0.230167 0.122723 0.142827
H56   H     H_    0.316312 0.596358 0.479170 0.135025
H57   H     H_    0.882993 0.346161 0.147120 0.183570
H58   H     H_    0.849167 0.237786 0.085234 0.184267
H59   H     H_    0.870496 0.411595 0.014683 0.196929
H60   H     H_    0.940205 0.316154 0.006392 0.153185
H61   H     H_    0.007669 0.422672 0.096315 0.182672
H62   H     H_    0.935865 0.508248 0.118048 0.152151
H63   H     H_    0.063191 0.230172 0.877274 0.142828
H64   H     H_    0.117007 0.346167 0.852880 0.183570
H65   H     H_    0.150832 0.237788 0.914764 0.184267
H66   H     H_    0.129503 0.411592 0.985319 0.196929
H67   H     H_    0.144818 0.906616 0.540252 0.148596
H68   H     H_    0.059793 0.316152 0.993606 0.153184
H69   H     H_    0.992332 0.422674 0.903684 0.182673
H70   H     H_    0.064137 0.508251 0.881953 0.152150
H71   H     H_    0.855181 0.906534 0.459744 0.148569
H72   H     H_    0.303522 0.121332 0.525994 0.101979
N1    N     N_1   0.788307 0.696870 0.358873 -0.308638
N2    N     N_1   0.303089 0.153807 0.953387 -0.331019
N3    N     N_1   0.196912 0.653811 0.046592 -0.329327
N4    N     N_1   0.803087 0.653811 0.953408 -0.329326
N5    N     N_1   0.211633 0.696851 0.641084 -0.308658
N6    N     N_1   0.129394 0.144508 0.389472 -0.259908
N7    N     N_1   0.870656 0.144473 0.610507 -0.259904
N8    N     N_1   0.905222 0.209291 0.459085 -0.252943
N9    N     N_1   0.094804 0.209265 0.540907 -0.252962
N10   N     N_1   0.431972 0.933345 0.427264 -0.282400
N11   N     N_1   0.568036 0.933421 0.572751 -0.282406
N12   N     N_1   0.696910 0.153807 0.046614 -0.331020
O1    O     O_R   0.783230 0.287800 0.346510 -0.513920
O2    O     O_R   0.454570 0.285140 0.836900 -0.530848
O3    O     O_R   0.045430 0.785140 0.163100 -0.528633
O4    O     O_R   0.954570 0.785140 0.836900 -0.528632
O5    O     O_R   0.677850 0.374730 0.185500 -0.502426
O6    O     O_R   0.322150 0.374730 0.814500 -0.502428
O7    O     O_R   0.177850 0.874730 0.185500 -0.502223
O8    O     O_R   0.822150 0.874730 0.814500 -0.502225
O9    O     O_3   0.664630 0.164620 0.255130 -0.271765
O10   O     O_3   0.335370 0.164620 0.744870 -0.271765
O11   O     O_3   0.164630 0.664620 0.255130 -0.287879
O12   O     O_R   0.216770 0.287800 0.653490 -0.513918
O13   O     O_3   0.835370 0.664620 0.744870 -0.287888
O14   O     O_R   0.760130 0.037060 0.338610 -0.499944
O15   O     O_R   0.239870 0.037060 0.661390 -0.499944
O16   O     O_R   0.260130 0.537060 0.338610 -0.503208
O17   O     O_R   0.739870 0.537060 0.661390 -0.503214
O18   O     O_R   0.666620 0.921370 0.332440 -0.507912
O19   O     O_R   0.333380 0.921370 0.667560 -0.507929
O20   O     O_R   0.166620 0.421370 0.332440 -0.489170
O21   O     O_R   0.833380 0.421370 0.667560 -0.489201
O22   O     O_R   0.557170 0.082420 0.312350 -0.489306
O23   O     O_R   0.283230 0.787800 0.346510 -0.519834
O24   O     O_R   0.442830 0.082420 0.687650 -0.489301
O25   O     O_R   0.057170 0.582420 0.312350 -0.513250
O26   O     O_R   0.942830 0.582420 0.687650 -0.513252
O27   O     O_R   0.548310 0.285980 0.316250 -0.516019
O28   O     O_R   0.451690 0.285980 0.683750 -0.516025
O29   O     O_R   0.048310 0.785980 0.316250 -0.495686
O30   O     O_R   0.951690 0.785980 0.683750 -0.495683
O31   O     O_R   0.680520 0.375500 0.327470 -0.499786
O32   O     O_R   0.319480 0.375500 0.672530 -0.499799
O33   O     O_R   0.180520 0.875500 0.327470 -0.494800
O34   O     O_R   0.716770 0.787800 0.653490 -0.519831
O35   O     O_R   0.819480 0.875500 0.672530 -0.494805
O36   O     O_R   0.780350 0.286970 0.193350 -0.519363
O37   O     O_R   0.219650 0.286970 0.806650 -0.519361
O38   O     O_R   0.280350 0.786970 0.193350 -0.519693
O39   O     O_R   0.719650 0.786970 0.806650 -0.519692
O40   O     O_R   0.757460 0.036290 0.196640 -0.486148
O41   O     O_R   0.242540 0.036290 0.803360 -0.486147
O42   O     O_R   0.257460 0.536290 0.196640 -0.483935
O43   O     O_R   0.742540 0.536290 0.803360 -0.483936
O44   O     O_R   0.663740 0.920540 0.179290 -0.516507
O45   O     O_R   0.554500 0.081650 0.170370 -0.520711
O46   O     O_R   0.336260 0.920540 0.820710 -0.516511
O47   O     O_R   0.163740 0.420540 0.179290 -0.513046
O48   O     O_R   0.836260 0.420540 0.820710 -0.513049
O49   O     O_R   0.445500 0.081650 0.829630 -0.520711
O50   O     O_R   0.054500 0.581650 0.170370 -0.519363
O51   O     O_R   0.945500 0.581650 0.829630 -0.519363
O52   O     O_R   0.545430 0.285140 0.163100 -0.530848

loop_
_geom_bond_atom_site_label_1
_geom_bond_atom_site_label_2
_ccdc_geom_bond_type
C9    N2    T    
Cr1   O36   S    
C72   C112  S    
C19   C20   S    
C116  O39   A    
C127  H56   S    
C114  O6    A    
C56   O20   A    
Cr10  O25   S    
Cr12  O5    S    
C14   H14   S    
C105  O46   A    
C89   C127  S    
C34   H57   S    
C21   H26   S    
C40   C128  S    
C56   C57   S    
C35   C42   S    
C15   H10   S    
Cr11  O26   S    
C97   C115  S    
C45   O15   A    
C88   C97   T    
C101  O12   A    
C24   C41   S    
Cr2   O10   S    
C96   C114  S    
C52   C89   S    
C42   H3    S    
C77   C79   S    
Cr10  O11   S    
Cr12  O27   S    
C65   C77   S    
C26   C77   S    
C108  O45   A    
Cr5   O41   S    
C54   H8    S    
C31   H48   S    
C33   H59   S    
C82   C91   T    
C37   C38   S    
C17   H20   S    
C42   C55   S    
C32   C80   S    
C18   H19   S    
C30   H51   S    
C55   C126  S    
C68   C72   S    
C84   C105  S    
C27   H43   S    
C67   O21   A    
C20   H28   S    
C63   C71   S    
Cr11  O48   S    
C64   C79   S    
C32   H62   S    
Cr7   O17   S    
Cr6   O42   S    
Cr7   O39   S    
C59   C129  S    
Cr11  O21   S    
C70   C79   S    
C44   H72   S    
C35   C122  S    
C106  O47   A    
C53   C58   S    
C60   C64   S    
C19   H30   S    
C46   H2    S    
C7    N11   T    
Cr7   O43   S    
C5    N9    T    
C51   C55   S    
C84   C93   T    
C12   H15   S    
C9    C65   S    
C51   C78   S    
C86   C95   T    
Cr5   O15   S    
C61   C65   S    
C48   C52   S    
C20   C21   S    
C22   C23   S    
Cr10  O47   S    
C58   C128  S    
C35   C126  S    
C69   C77   S    
C8    N12   T    
C39   C131  S    
Cr4   O13   S    
Cr8   O18   S    
C36   C37   S    
C128  H67   S    
C18   H17   S    
C49   C53   S    
C65   C70   S    
C36   H70   S    
C22   C63   S    
C54   C111  S    
C76   O26   A    
C15   H11   S    
C115  O38   A    
C56   O16   A    
Cr4   O35   S    
Cr1   O9    S    
C99   O1    A    
C10   N3    T    
C54   C59   S    
C10   C66   S    
C24   C50   S    
C5    C48   S    
C121  C123  S    
C38   H63   S    
C62   C66   S    
C102  O23   A    
Cr8   O22   S    
C31   H49   S    
Cr8   O45   S    
C29   C30   S    
C28   H42   S    
Cr1   O14   S    
C99   O31   A    
C36   C81   S    
C17   C18   S    
Cr2   O6    S    
Cr6   O11   S    
C64   C69   S    
C35   C130  S    
C8    C64   S    
C16   C61   S    
C11   C68   S    
C63   C68   S    
C3    N7    T    
C73   C118  S    
C100  C128  S    
C75   C120  S    
C7    C50   S    
C75   O25   A    
C57   C127  S    
C109  O49   A    
C106  O42   A    
C29   H53   S    
C24   C103  S    
C28   H40   S    
C22   H38   S    
C67   O17   A    
C34   H58   S    
C21   H25   S    
Cr4   O8    S    
Cr8   O9    S    
Cr9   O19   S    
Cr2   O2    S    
Cr7   O13   S    
C19   H31   S    
C37   H66   S    
C15   H9    S    
C1    O14   A    
C43   C57   S    
C40   C44   S    
C52   H6    S    
C29   H54   S    
C53   H7    S    
C14   C15   S    
C13   C102  S    
C4    C47   S    
Cr9   O10   S    
Cr10  O50   S    
C115  O7    A    
C113  O5    A    
C26   C27   S    
C50   C54   S    
C100  H23   S    
C132  N6    T    
C23   H37   S    
C86   C91   S    
C1    C59   S    
C30   C31   S    
C25   H33   S    
C71   C110  S    
Cr12  O31   S    
C13   C40   S    
C43   H4    S    
C111  C129  S    
C30   H52   S    
C75   O29   A    
C44   C58   S    
C16   C17   S    
Cr11  O13   S    
C72   C81   S    
Cr3   O3    S    
C87   C92   S    
C90   C94   S    
C53   C100  S    
C105  O41   A    
C45   C58   S    
Cr3   O29   S    
C14   H13   S    
C107  O43   A    
C89   H12   S    
C47   C51   S    
C2    C48   S    
C21   H27   S    
C60   C61   S    
C113  O36   A    
C129  H71   S    
C2    C89   S    
C104  O44   A    
C37   H68   S    
C62   C63   S    
C66   C71   S    
C29   C79   S    
C116  O8    A    
C102  O33   A    
C131  N5    T    
C12   H16   S    
C107  O48   A    
C23   H36   S    
C85   C104  S    
C99   C122  S    
C119  C125  T    
Cr3   O7    S    
C78   C126  S    
Cr6   O16   S    
C74   O24   A    
C25   H35   S    
C33   H60   S    
C112  O4    A    
C83   C106  S    
C32   C33   S    
Cr2   O28   S    
C17   H21   S    
C66   C81   S    
C18   H18   S    
C13   C100  S    
C6    N10   T    
C103  O34   A    
Cr12  O9    S    
C27   H44   S    
Cr1   O1    S    
C52   C57   S    
C51   H5    S    
Cr9   O24   S    
C32   H61   S    
C110  O50   A    
C44   C49   S    
C68   C80   S    
C46   C59   S    
C45   O19   A    
C26   H46   S    
C83   C92   T    
Cr4   O4    S    
C38   H64   S    
C16   H24   S    
C1    O18   A    
C19   C62   S    
C101  O32   A    
C109  O2    A    
Cr5   O10   S    
C78   H1    S    
C73   O27   A    
Cr5   O37   S    
C34   H55   S    
C16   H22   S    
C111  H34   S    
C41   C46   S    
C43   C48   S    
C40   C132  S    
C6    C49   S    
C24   C111  S    
Cr9   O46   S    
C2    C39   S    
C71   C80   S    
C69   C108  S    
C76   C119  S    
C39   C127  S    
Cr6   O23   S    
C110  O3    A    
C114  O37   A    
C47   C122  S    
C39   C43   S    
Cr6   O38   S    
C2    C101  S    
C4    N8    T    
C76   O30   A    
Cr8   O44   S    
C118  C121  T    
C126  H45   S    
C22   H39   S    
C70   C109  S    
C36   H69   S    
C85   C94   T    
C98   C116  S    
C20   H29   S    
C60   C70   S    
C87   C96   T    
Cr11  O51   S    
C33   C34   S    
C62   C72   S    
Cr12  O52   S    
C82   C107  S    
C13   C49   S    
C130  N1    T    
C12   C14   S    
Cr3   O33   S    
Cr10  O20   S    
Cr4   O30   S    
Cr1   O40   S    
C73   O22   A    
C61   C69   S    
C74   C117  S    
C88   C93   S    
C3    C41   S    
C104  O40   A    
C80   C81   S    
C31   H50   S    
C55   C67   S    
C26   H47   S    
C46   C50   S    
Cr5   O12   S    
C117  C123  T    
C112  O51   A    
Cr9   O49   S    
C28   H41   S    
C41   C129  S    
C25   H32   S    
C95   C113  S    
Cr3   O11   S    
C42   C47   S    
C23   C25   S    
C38   H65   S    
C78   C122  S    
C12   C60   S    
Cr2   O32   S    
Cr7   O34   S    
C27   C28   S    
C103  O35   A    
C108  O52   A    
C11   N4    T    
C90   C98   T    
C74   O28   A    
C120  C124  T    
C124  C125  S    
