data_mof_unit_4911.cif
_audit_creation_date              2012-12-10T18:58:43-0500
_audit_creation_method            fapswitch 2.2
_symmetry_space_group_name_H-M    P1
_symmetry_Int_Tables_number       1
_space_group_crystal_system       triclinic
_cell_length_a                    10.815512
_cell_length_b                    10.012454
_cell_length_c                    17.799733
_cell_angle_alpha                 90.945119
_cell_angle_beta                  101.179298
_cell_angle_gamma                 91.709028
_cell_volume                      1889.62650661

loop_
_atom_site_label
_atom_site_type_symbol
_atom_type_description
_atom_site_fract_x
_atom_site_fract_y
_atom_site_fract_z
_atom_type_partial_charge
C1    C     C_R   0.261671 0.498144 0.506467 0.970644
C2    C     C_R   0.494360 0.499637 0.645723 1.015078
C3    C     C_R   0.869306 0.504240 0.483384 -0.431903
C4    C     C_R   0.129747 0.494905 0.515318 -0.422133
C5    C     C_R   0.522883 0.604123 0.852269 0.262214
C6    C     C_R   0.523621 0.365023 0.155503 0.199116
C7    C     C_R   0.496074 0.606668 0.150522 0.192312
C8    C     C_R   0.456056 0.368117 0.839539 0.212104
C9    C     C_R   0.495100 0.612304 0.772333 0.336927
C10   C     C_R   0.507359 0.368152 0.232065 0.340600
C11   C     C_R   0.515464 0.612075 0.230821 0.292339
C12   C     C_R   0.737991 0.501591 0.493217 1.003536
C13   C     C_R   0.464585 0.370472 0.761630 0.310958
C14   C     C_R   0.483913 0.494612 0.727436 -0.237804
C15   C     C_R   0.507879 0.493010 0.271070 -0.235597
C16   C     C_R   0.586238 0.078266 0.554158 0.313913
C17   C     C_R   0.414348 0.922931 0.445609 0.328219
C18   C     C_R   0.413909 0.068599 0.446149 0.305375
C19   C     C_R   0.585376 0.932496 0.554791 0.306172
C20   C     C_R   0.495872 0.482988 0.885583 -0.246262
C21   C     C_R   0.508353 0.483522 0.113794 -0.233287
C22   C     C_1   0.502406 0.479208 0.966126 0.279740
C23   C     C_1   0.505864 0.479446 0.033555 0.273429
C24   C     C_R   0.056936 0.374382 0.502425 0.323041
C25   C     C_R   0.941427 0.623912 0.494737 0.262225
C26   C     C_R   0.927443 0.382982 0.474548 0.335164
C27   C     C_R   0.070753 0.617497 0.520598 0.341404
C28   C     C_R   0.502367 0.498485 0.353710 1.024232
H1    H     H_    0.725833 0.904648 0.886220 0.418019
H2    H     H_    0.233101 0.642472 0.315150 0.356603
H3    H     H_    0.197879 0.330612 0.339738 0.370820
H4    H     H_    0.762288 0.670061 0.684091 0.376720
H5    H     H_    0.030819 0.033178 0.564985 0.432785
H6    H     H_    0.821196 0.669100 0.337000 0.352566
H7    H     H_    0.901681 0.121219 0.325871 0.414402
H8    H     H_    0.097259 0.870888 0.671978 0.406575
H9    H     H_    0.728138 0.177236 0.203960 0.379329
H10   H     H_    0.284345 0.797400 0.143392 0.378808
H11   H     H_    0.225304 0.199186 0.789095 0.393212
H12   H     H_    0.451312 0.798957 0.773593 0.401693
H13   H     H_    0.455884 0.180725 0.233232 0.410463
H14   H     H_    0.580690 0.796214 0.239367 0.411153
H15   H     H_    0.484313 0.179801 0.750045 0.403220
H16   H     H_    0.798818 0.360109 0.668076 0.376521
N1    N     N_R   0.500000 0.857200 0.500000 -0.215148
N2    N     N_R   0.500000 0.142800 0.500000 -0.214657
O1    O     O_R   0.316770 0.614620 0.500000 -0.527459
O2    O     O_2   0.677964 0.698678 0.981782 -0.249508
O3    O     O_3   0.698969 0.819585 0.857700 -0.468972
O4    O     O_2   0.450429 0.135307 0.077974 -0.113296
O5    O     O_2   0.645800 0.242507 0.055020 -0.246366
O6    O     O_3   0.652140 0.121001 0.182646 -0.453134
O7    O     O_2   0.565772 0.832259 0.088600 -0.122312
O8    O     O_2   0.371244 0.717999 0.020528 -0.251826
O9    O     O_3   0.364379 0.849247 0.145229 -0.419279
O10   O     O_2   0.499700 0.135427 0.909865 -0.146932
O11   O     O_2   0.323267 0.260334 0.939567 -0.241806
O12   O     O_R   0.683230 0.385380 0.500000 -0.537432
O13   O     O_3   0.292528 0.136294 0.808466 -0.461178
O14   O     O_3   0.474151 0.732808 0.737045 -0.608081
O15   O     O_3   0.496175 0.251045 0.270482 -0.619275
O16   O     O_3   0.544154 0.731345 0.271081 -0.610361
O17   O     O_3   0.448867 0.254163 0.717565 -0.636701
O18   O     O_2   0.713724 0.123827 0.701578 -0.218815
O19   O     O_2   0.831021 0.142471 0.597991 -0.198164
O20   O     O_3   0.716452 0.338561 0.634031 -0.542020
O21   O     O_2   0.176844 0.882728 0.358519 -0.166178
O22   O     O_2   0.355214 0.861173 0.296508 -0.211197
O23   O     O_R   0.683230 0.614620 0.500000 -0.529543
O24   O     O_3   0.281290 0.665980 0.367150 -0.547615
O25   O     O_2   0.271934 0.093224 0.301810 -0.202463
O26   O     O_2   0.171214 0.114755 0.412501 -0.160547
O27   O     O_3   0.283911 0.313849 0.368389 -0.535539
O28   O     O_2   0.821685 0.913997 0.645419 -0.160932
O29   O     O_2   0.641163 0.883555 0.704398 -0.194842
O30   O     O_3   0.716283 0.690058 0.631946 -0.517563
O31   O     O_2   0.240770 0.209092 0.576629 -0.217543
O32   O     O_2   0.066264 0.263996 0.637683 -0.288277
O33   O     O_3   0.024292 0.096200 0.522452 -0.366476
O34   O     O_R   0.316770 0.385380 0.500000 -0.543206
O35   O     O_2   0.818496 0.854358 0.497441 -0.171485
O36   O     O_2   0.983756 0.852045 0.423188 -0.165686
O37   O     O_3   0.774465 0.723865 0.368264 -0.503150
O38   O     O_2   0.784338 0.155161 0.441321 -0.183367
O39   O     O_2   0.750632 0.334278 0.348748 -0.337863
O40   O     O_3   0.949251 0.197338 0.355457 -0.476127
O41   O     O_2   0.251988 0.689408 0.640185 -0.288496
O42   O     O_2   0.201719 0.853431 0.539009 -0.227440
O43   O     O_3   0.045048 0.814059 0.631021 -0.491115
O44   O     O_R   0.500010 0.614710 0.389120 -0.517422
O45   O     O_R   0.499990 0.385290 0.610880 -0.520258
O46   O     O_R   0.499990 0.614710 0.610880 -0.520369
O47   O     O_R   0.500010 0.385290 0.389120 -0.512986
O48   O     O_2   0.505136 0.839851 0.922261 -0.157933
S1    S     S_3+6 0.601209 0.742764 0.907261 0.116279
S2    S     S_3+6 0.880924 0.769432 0.446924 0.146404
S3    S     S_3+6 0.848150 0.264460 0.404623 0.114611
S4    S     S_3+6 0.147942 0.747040 0.583054 0.110380
S5    S     S_3+6 0.567675 0.214011 0.114506 0.136200
S6    S     S_3+6 0.449866 0.753039 0.097967 0.134417
S7    S     S_3+6 0.392972 0.223048 0.877402 0.122396
S8    S     S_3+6 0.709486 0.172435 0.621905 0.164396
S9    S     S_3+6 0.307171 0.831442 0.368011 0.167395
S10   S     S_3+6 0.287166 0.149347 0.381826 0.174843
S11   S     S_3+6 0.691007 0.853651 0.633496 0.194857
S12   S     S_3+6 0.102426 0.235274 0.561796 0.145381
Zn1   Zn    Zn3+2 0.500000 0.653120 0.500000 1.196407
Zn2   Zn    Zn3+2 0.500000 0.346880 0.500000 1.189730

loop_
_geom_bond_atom_site_label_1
_geom_bond_atom_site_label_2
_ccdc_geom_bond_type
H8    O43   S    
O25   S10   D    
C27   S4    S    
O30   S11   S    
H12   O14   S    
O2    S1    D    
O20   S8    S    
H16   O20   S    
O22   S9    D    
H13   O15   S    
C12   O23   A    
C11   O16   S    
O23   Zn1   S    
H15   O17   S    
C5    C20   A    
H1    O3    S    
O18   S8    D    
O4    S5    D    
C8    C20   A    
O38   S3    D    
O31   S12   D    
C24   C26   A    
O10   S7    D    
C10   C15   A    
O47   Zn2   S    
C4    C24   A    
H7    O40   S    
H3    O27   S    
O40   S3    S    
C3    C12   S    
H2    O24   S    
C11   C15   A    
O27   S10   S    
H10   O9    S    
N2    Zn2   S    
O9    S6    S    
C8    S7    S    
H14   O16   S    
O41   S4    D    
C12   O12   A    
C13   C14   A    
O8    S6    D    
C2    O45   A    
O19   S8    D    
C18   N2    A    
C5    S1    S    
O7    S6    D    
O5    S5    D    
O36   S2    D    
C7    S6    S    
O21   S9    D    
O13   S7    S    
C3    C25   A    
C16   N2    A    
O35   S2    D    
O24   S9    S    
C1    O1    A    
O26   S10   D    
C7    C21   A    
C6    C21   A    
O33   S12   S    
C28   O47   A    
C7    C11   A    
C9    C14   A    
H4    O30   S    
O46   Zn1   S    
C13   O17   S    
H11   O13   S    
C17   C18   A    
C18   S10   S    
O3    S1    S    
C2    O46   A    
C19   S11   S    
C16   S8    S    
C20   C22   S    
O29   S11   D    
O1    Zn1   S    
C21   C23   S    
O44   Zn1   S    
C10   O15   S    
C24   S12   S    
H6    O37   S    
C4    C27   A    
H9    O6    S    
O45   Zn2   S    
C3    C26   A    
H5    O33   S    
C17   N1    A    
C6    C10   A    
C19   N1    A    
C25   C27   A    
O11   S7    D    
O34   Zn2   S    
O6    S5    S    
O43   S4    S    
O32   S12   D    
C1    C4    S    
C6    S5    S    
C9    O14   S    
C17   S9    S    
O28   S11   D    
C15   C28   S    
C16   C19   A    
O37   S2    S    
O12   Zn2   S    
O48   S1    D    
C2    C14   S    
O39   S3    D    
C26   S3    S    
C8    C13   A    
C25   S2    S    
C1    O34   A    
C22   C23   T    
C28   O44   A    
C5    C9    A    
O42   S4    D    
N1    Zn1   S    
