data_mof_unit_4527.cif
_audit_creation_date              2012-12-10T17:31:12-0500
_audit_creation_method            fapswitch 2.2
_symmetry_space_group_name_H-M    P1
_symmetry_Int_Tables_number       1
_space_group_crystal_system       triclinic
_cell_length_a                    12.148517
_cell_length_b                    12.823238
_cell_length_c                    15.370873
_cell_angle_alpha                 84.780789
_cell_angle_beta                  116.122432
_cell_angle_gamma                 94.212836
_cell_volume                      2139.52860092

loop_
_atom_site_label
_atom_site_type_symbol
_atom_type_description
_atom_site_fract_x
_atom_site_fract_y
_atom_site_fract_z
_atom_type_partial_charge
C1    C     C_R   0.476373 0.300141 0.497534 0.910809
C2    C     C_R   0.574107 0.970445 0.421862 -0.228446
C3    C     C_R   0.418371 0.136657 0.561449 -0.269214
C4    C     C_R   0.582318 0.863294 0.439035 -0.249690
C5    C     C_R   0.509244 0.134702 0.448233 0.019500
C6    C     C_R   0.490588 0.865216 0.551697 0.026143
C7    C     C_R   0.520702 0.026448 0.466842 0.116872
C8    C     C_R   0.479339 0.973473 0.533204 0.120895
C9    C     C_R   0.019706 0.620459 0.432149 -0.384219
C10   C     C_R   0.985604 0.384156 0.573308 -0.273409
C11   C     C_R   0.135429 0.606683 0.435600 0.250112
C12   C     C_R   0.523638 0.699848 0.502479 0.909405
C13   C     C_R   0.869547 0.396249 0.569006 0.197145
C14   C     C_R   0.151669 0.444908 0.527614 0.151261
C15   C     C_R   0.846750 0.553955 0.469251 0.186847
C16   C     C_R   0.577502 0.497867 0.681950 0.865651
C17   C     C_R   0.423700 0.508245 0.318859 0.920568
C18   C     C_R   0.035591 0.457785 0.526531 0.027401
C19   C     C_R   0.967188 0.545088 0.476347 0.038518
C20   C     C_R   0.629623 0.510059 0.789183 -0.167846
C21   C     C_R   0.381744 0.538121 0.214501 -0.088827
C22   C     C_R   0.799181 0.495477 0.953860 0.114008
C23   C     C_R   0.671758 0.539532 0.128097 -0.311582
C24   C     C_R   0.273691 0.659749 0.074882 0.066684
C25   C     C_R   0.753603 0.487200 0.853196 0.007606
C26   C     C_R   0.288030 0.609719 0.164816 -0.008780
C27   C     C_R   0.555220 0.547525 0.829011 0.019673
C28   C     C_R   0.456000 0.512280 0.172052 0.012198
C29   C     C_R   0.604366 0.563699 0.929023 0.008932
C30   C     C_R   0.458526 0.576227 0.093132 -0.030062
C31   C     C_R   0.723091 0.528602 0.993120 0.062076
C32   C     C_R   0.361125 0.645499 0.039457 0.101497
C33   C     C_R   0.530604 0.602144 0.968461 0.093787
C34   C     C_R   0.438161 0.674062 0.917108 -0.260339
C35   C     C_R   0.552840 0.569645 0.063725 0.053997
C36   C     C_R   0.758960 0.524211 0.094660 0.108074
C37   C     C_R   0.355636 0.698118 0.952409 0.105186
C38   C     C_R   0.537559 0.811324 0.501128 -0.041057
C39   C     C_R   0.462546 0.188625 0.498984 -0.044833
C40   C     C_R   0.426272 0.029491 0.578407 -0.222340
H1    H     H_    0.700537 0.533671 0.205385 0.148918
H2    H     H_    0.196907 0.754328 0.422697 0.169934
H3    H     H_    0.972225 0.690889 0.394399 0.167933
H4    H     H_    0.036052 0.315844 0.613781 0.184804
H5    H     H_    0.513500 0.379185 0.141422 0.197346
H6    H     H_    0.601595 0.418991 0.255853 0.205911
H7    H     H_    0.382715 0.485108 0.748597 0.210851
H8    H     H_    0.407028 0.615499 0.715627 0.222579
H9    H     H_    0.218620 0.714056 0.216487 0.175769
H10   H     H_    0.118724 0.614741 0.159799 0.195353
H11   H     H_    0.849613 0.502500 0.771859 0.225516
H12   H     H_    0.432015 0.715403 0.850590 0.157701
H13   H     H_    0.796001 0.376886 0.788342 0.189444
H14   H     H_    0.930972 0.387409 0.007632 0.204771
H15   H     H_    0.982517 0.511867 0.995115 0.193285
H16   H     H_    0.090774 0.685029 0.006303 0.179845
H17   H     H_    0.179778 0.789050 0.064318 0.181036
H18   H     H_    0.360793 0.817012 0.598256 0.179828
H19   H     H_    0.504487 0.838362 0.688730 0.173955
H20   H     H_    0.638505 0.182988 0.401132 0.181211
H21   H     H_    0.494712 0.161211 0.311053 0.183239
H22   H     H_    0.617943 0.820310 0.400015 0.160476
H23   H     H_    0.916878 0.560637 0.210657 0.180993
H24   H     H_    0.383555 0.179616 0.601006 0.153230
H25   H     H_    0.393140 0.991979 0.628731 0.142647
H26   H     H_    0.607468 0.007979 0.371691 0.144836
H27   H     H_    0.685871 0.630506 0.397556 0.246119
H28   H     H_    0.770705 0.637093 0.340101 0.141285
H29   H     H_    0.304504 0.367077 0.619201 0.215904
H30   H     H_    0.208800 0.305078 0.517127 0.209164
H31   H     H_    0.875339 0.431750 0.206472 0.188085
H32   H     H_    0.213800 0.748540 0.827797 0.189980
H33   H     H_    0.311329 0.844668 0.891308 0.175907
H34   H     H_    0.777320 0.259346 0.569599 0.203246
H35   H     H_    0.771302 0.347461 0.643616 0.229025
H36   H     H_    0.116129 0.698299 0.317100 0.150383
N1    N     N_R   0.799120 0.480200 0.517090 -0.128177
N2    N     N_3   0.834486 0.447205 0.820071 -0.470207
N3    N     N_3   0.922621 0.465947 0.016273 -0.429827
N4    N     N_3   0.173227 0.727610 0.021857 -0.430264
N5    N     N_3   0.454460 0.808215 0.620645 -0.469130
N6    N     N_3   0.544874 0.191663 0.378983 -0.447642
N7    N     N_3   0.776076 0.640299 0.409527 -0.462418
N8    N     N_3   0.213520 0.349985 0.572041 -0.490892
N9    N     N_R   0.200880 0.519800 0.482910 -0.104008
N10   N     N_3   0.880812 0.499122 0.164566 -0.433942
N11   N     N_3   0.265544 0.774168 0.897583 -0.428916
N12   N     N_3   0.827132 0.315812 0.618567 -0.470475
N13   N     N_3   0.183571 0.684776 0.388114 -0.386849
N14   N     N_3   0.512501 0.411949 0.200909 -0.451945
N15   N     N_3   0.425198 0.557710 0.772237 -0.458883
N16   N     N_3   0.209578 0.633679 0.207077 -0.426339
O1    O     O_R   0.580150 0.341050 0.504560 -0.618000
O2    O     O_R   0.419850 0.658950 0.495440 -0.578070
O3    O     O_R   0.388090 0.353760 0.493600 -0.643272
O4    O     O_R   0.611910 0.646240 0.506400 -0.639028
O5    O     O_R   0.650890 0.490020 0.640860 -0.630377
O6    O     O_R   0.349110 0.509980 0.359140 -0.567095
O7    O     O_R   0.458830 0.502730 0.629890 -0.632243
O8    O     O_R   0.541170 0.497270 0.370110 -0.637553
Zn1   Zn    Zn3+2 0.628240 0.491510 0.507320 0.914510
Zn2   Zn    Zn3+2 0.371760 0.508490 0.492680 0.946330

loop_
_geom_bond_atom_site_label_1
_geom_bond_atom_site_label_2
_ccdc_geom_bond_type
C21   C26   A    
H27   N7    S    
C29   C33   A    
C27   C29   A    
C34   C37   A    
C14   C18   A    
N1    Zn1   S    
C2    C7    A    
C14   N8    S    
C7    C8    A    
C3    H24   S    
C15   C19   A    
C30   C35   A    
C24   C26   A    
C22   N3    S    
H21   N6    S    
C16   O5    A    
C20   C25   A    
C26   N16   S    
C4    H22   S    
C18   C19   A    
H33   N11   S    
H20   N6    S    
C9    C19   A    
C22   C25   A    
C6    C38   A    
C27   N15   S    
H30   N8    S    
C17   O6    A    
O3    Zn2   S    
C16   C20   S    
H36   N13   S    
C11   N9    A    
C3    C39   A    
C6    N5    S    
O4    Zn1   S    
H17   N4    S    
C12   O2    A    
C24   N4    S    
C13   N1    A    
C9    H3    S    
C22   C31   A    
C10   H4    S    
C25   N2    S    
H18   N5    S    
O1    Zn1   S    
C5    C7    A    
C6    C8    A    
C36   N10   S    
O6    Zn2   S    
H8    N15   S    
C17   C21   S    
C2    C4    A    
C24   C32   A    
H31   N10   S    
H15   N3    S    
C11   N13   S    
C1    O3    A    
C33   C34   A    
C32   C37   A    
H5    N14   S    
C9    C11   A    
H10   N16   S    
C21   C28   A    
C4    C38   A    
C3    C40   A    
C23   C35   A    
C40   H25   S    
C5    C39   A    
H23   N10   S    
H9    N16   S    
H32   N11   S    
H14   N3    S    
H28   N7    S    
H7    N15   S    
C37   N11   S    
H19   N5    S    
C14   N9    A    
C2    H26   S    
C10   C13   A    
C23   H1    S    
C15   N7    S    
C16   O7    A    
H6    N14   S    
C20   C27   A    
C34   H12   S    
H16   N4    S    
H2    N13   S    
C28   C30   A    
H13   N2    S    
H11   N2    S    
C29   C31   A    
H29   N8    S    
C30   C32   A    
C5    N6    S    
C15   N1    A    
C10   C18   A    
C13   N12   S    
O8    Zn1   S    
C33   C35   A    
C12   C38   S    
C17   O8    A    
C1    C39   S    
H35   N12   S    
O7    Zn2   S    
O2    Zn2   S    
C1    O1    A    
C23   C36   A    
C31   C36   A    
C12   O4    A    
C28   N14   S    
C8    C40   A    
H34   N12   S    
O5    Zn1   S    
N9    Zn2   S    
