data_mof_unit_3440.cif
_audit_creation_date              2012-12-10T17:20:26-0500
_audit_creation_method            fapswitch 2.2
_symmetry_space_group_name_H-M    P1
_symmetry_Int_Tables_number       1
_space_group_crystal_system       triclinic
_cell_length_a                    11.691592
_cell_length_b                    10.79406
_cell_length_c                    9.687841
_cell_angle_alpha                 89.857229
_cell_angle_beta                  89.283694
_cell_angle_gamma                 94.606993
_cell_volume                      1218.55020873

loop_
_atom_site_label
_atom_site_type_symbol
_atom_type_description
_atom_site_fract_x
_atom_site_fract_y
_atom_site_fract_z
_atom_type_partial_charge
C1    C     C_R   0.507480 0.262952 0.501353 0.805582
C2    C     C_R   0.480480 0.041138 0.882586 -0.369963
C3    C     C_R   0.409326 0.931660 0.868968 0.138865
C4    C     C_R   0.394006 0.877925 0.737708 0.412192
C5    C     C_R   0.454654 0.934125 0.622094 -0.139016
C6    C     C_R   0.498987 0.058657 0.631896 0.019294
C7    C     C_R   0.515068 0.128066 0.506381 -0.048439
C8    C     C_R   0.520302 0.065081 0.380632 -0.219324
C9    C     C_R   0.509339 0.936859 0.378429 -0.191041
C10   C     C_R   0.478524 0.869942 0.499073 -0.085104
C11   C     C_R   0.676210 0.634429 0.142532 -0.279266
C12   C     C_R   0.284324 0.499343 0.500670 0.796185
C13   C     C_R   0.784124 0.653687 0.078617 0.381985
C14   C     C_R   0.791798 0.637133 0.936145 0.110283
C15   C     C_R   0.688794 0.629009 0.861473 0.156535
C16   C     C_R   0.588864 0.566250 0.925601 0.100828
C17   C     C_R   0.585735 0.568096 0.073900 0.069458
C18   C     C_R   0.420436 0.427512 0.075136 0.256630
C19   C     C_R   0.417532 0.431589 0.927002 0.253365
C20   C     C_R   0.491028 0.736346 0.499775 0.778639
C21   C     C_R   0.715653 0.500394 0.499305 0.805321
C22   C     C_1   0.162498 0.499599 0.501653 -0.169173
C23   C     C_1   0.059929 0.499839 0.500738 0.017005
C24   C     C_1   0.940036 0.500028 0.498901 0.008195
C25   C     C_1   0.837462 0.500198 0.498165 -0.179032
C26   C     C_R   0.526954 0.105124 0.765465 0.406385
Cu1   Cu    Cu3+1 0.499990 0.499990 0.640660 0.979324
Cu2   Cu    Cu3+1 0.500010 0.500010 0.359340 0.928952
H1    H     H_    0.535889 0.114694 0.283990 0.163629
H2    H     H_    0.499427 0.076943 0.984937 0.157645
H3    H     H_    0.525522 0.890359 0.282105 0.158923
H4    H     H_    0.666946 0.667103 0.245830 0.197638
N1    N     N_R   0.501070 0.501210 0.147910 -0.187333
N2    N     N_R   0.501110 0.501290 0.852040 -0.177234
O1    O     O_R   0.499990 0.319640 0.618810 -0.543191
O2    O     O_R   0.500000 0.319660 0.381240 -0.602778
O3    O     O_R   0.337190 0.500000 0.618790 -0.560172
O4    O     O_R   0.337200 0.500030 0.381210 -0.575168
O5    O     O_R   0.500000 0.680340 0.618760 -0.548078
O6    O     O_R   0.500010 0.680360 0.381190 -0.600851
O7    O     O_R   0.662800 0.499970 0.618790 -0.547991
O8    O     O_R   0.662810 0.500000 0.381210 -0.585074
C27   C     C_3   0.906153 0.660123 0.863156 -0.729167
H5    H     H_    0.965567 0.592306 0.900051 0.243321
H6    H     H_    0.897190 0.648919 0.749863 0.214139
H7    H     H_    0.943719 0.755867 0.884348 0.247624
C28   C     C_3   0.678458 0.745376 0.777355 -0.740565
H8    H     H_    0.594966 0.783004 0.798613 0.239640
H9    H     H_    0.741609 0.822686 0.808274 0.203483
H10   H     H_    0.696293 0.729210 0.666655 0.227401
C29   C     C_3   0.317636 0.361965 0.853795 -0.747849
H11   H     H_    0.342823 0.320979 0.756205 0.257306
H12   H     H_    0.278429 0.279416 0.909088 0.185381
H13   H     H_    0.248750 0.425367 0.838048 0.234652
O9    O     O_3   0.610636 0.201994 0.780270 -0.696803
H14   H     H_    0.619532 0.222159 0.879590 0.317801
C30   C     C_3   0.355819 0.871212 0.996972 -0.757196
H15   H     H_    0.302930 0.937461 0.051087 0.219360
H16   H     H_    0.300167 0.785778 0.974208 0.274064
H17   H     H_    0.424530 0.845166 0.066839 0.210217
O10   O     O_3   0.316673 0.775032 0.724572 -0.710200
H18   H     H_    0.292219 0.768750 0.627089 0.311247
C31   C     C_3   0.334635 0.335554 0.147621 -0.775192
H19   H     H_    0.245846 0.359603 0.126850 0.214802
H20   H     H_    0.347047 0.240191 0.110640 0.185774
H21   H     H_    0.340715 0.326912 0.258463 0.275310
O11   O     O_3   0.880874 0.694247 0.151256 -0.716969
H22   H     H_    0.860186 0.699791 0.250528 0.317787

loop_
_geom_bond_atom_site_label_1
_geom_bond_atom_site_label_2
_ccdc_geom_bond_type
Cu2   N1    S    
C23   C24   S    
C31   H20   S    
C6    C7    A    
Cu2   O4    S    
C11   C13   A    
C9    C10   A    
Cu1   O7    S    
C28   H8    S    
C15   C28   S    
O9    H14   S    
C29   H13   S    
Cu1   O1    S    
C26   O9    S    
C14   C27   S    
C2    C3    A    
C31   H21   S    
C5    C10   A    
C2    C26   A    
C13   C14   A    
C27   H5    S    
C5    C6    A    
C27   H6    S    
C1    O1    A    
C30   H15   S    
C6    C26   A    
C17   N1    A    
Cu1   O3    S    
O11   H22   S    
C21   O7    A    
C8    H1    S    
C3    C30   S    
Cu2   O8    S    
C27   H7    S    
C11   H4    S    
C28   H10   S    
C22   C23   T    
Cu1   N2    S    
C12   O4    A    
O10   H18   S    
C20   O6    A    
C18   N1    A    
C18   C31   S    
C30   H16   S    
C7    C8    A    
C2    H2    S    
Cu2   O6    S    
C31   H19   S    
C29   H11   S    
C19   C29   S    
C12   O3    A    
C12   C22   S    
C24   C25   T    
Cu2   O2    S    
C28   H9    S    
C18   C19   A    
C13   O11   S    
C10   C20   S    
Cu1   Cu2   S    
C20   O5    A    
C9    H3    S    
C14   C15   A    
C16   C17   A    
C30   H17   S    
C21   C25   S    
C21   O8    A    
C16   N2    A    
C1    C7    S    
C4    C5    A    
C4    O10   S    
C11   C17   A    
C3    C4    A    
C15   C16   A    
C1    O2    A    
Cu1   O5    S    
C8    C9    A    
C29   H12   S    
C19   N2    A    
