data_mof_unit_3477.cif
_audit_creation_date              2012-12-10T16:47:57-0500
_audit_creation_method            fapswitch 2.2
_symmetry_space_group_name_H-M    P1
_symmetry_Int_Tables_number       1
_space_group_crystal_system       triclinic
_cell_length_a                    7.813771
_cell_length_b                    8.617074
_cell_length_c                    10.644934
_cell_angle_alpha                 91.104039
_cell_angle_beta                  86.154277
_cell_angle_gamma                 93.42222
_cell_volume                      713.77001272

loop_
_atom_site_label
_atom_site_type_symbol
_atom_type_description
_atom_site_fract_x
_atom_site_fract_y
_atom_site_fract_z
_atom_type_partial_charge
C1    C     C_R   0.544813 0.794068 0.495705 0.867975
C2    C     C_2   0.566516 0.955956 0.483299 0.306637
C3    C     C_2   0.305564 0.391624 0.090319 0.968684
C4    C     C_2   0.998081 0.303964 0.445354 1.117337
C5    C     C_2   0.431626 0.043630 0.510855 0.303092
C6    C     C_R   0.503537 0.503295 0.737302 0.912635
C7    C     C_R   0.454857 0.205858 0.502368 0.847810
C8    C     C_R   0.494875 0.486675 0.262613 0.844702
C9    C     C_2   0.624843 0.425200 0.059152 -0.200678
C10   C     C_2   0.479787 0.438454 0.133069 -0.201034
C11   C     C_2   0.623188 0.423479 0.923540 -0.111217
C12   C     C_2   0.513313 0.509870 0.869619 -0.251640
F1    F     F_    0.722962 0.013753 0.435331 -0.610391
F2    F     F_    0.273276 0.985333 0.555155 -0.573129
F3    F     F_    0.987529 0.677660 0.570368 -0.461257
H1    H     H_    0.750620 0.435909 0.096851 0.196949
H2    H     H_    0.716274 0.356859 0.868488 0.196536
H3    H     H_    0.425827 0.583287 0.923293 0.156580
H4    H     H_    0.055971 0.437773 0.090071 0.349586
H5    H     H_    0.087089 0.143471 0.321388 0.371346
N1    N     N_2   0.950320 0.457950 0.466680 -0.111699
N2    N     N_2   0.049680 0.542050 0.533320 0.173312
O1    O     O_R   0.389250 0.738570 0.508180 -0.556259
O2    O     O_R   0.166056 0.480466 0.126350 -0.751627
O3    O     O_2   0.978443 0.210797 0.531081 -0.507710
O4    O     O_R   0.059091 0.256905 0.325207 -0.794046
O5    O     O_R   0.678390 0.711630 0.486820 -0.510304
O6    O     O_R   0.355470 0.513470 0.691600 -0.593747
O7    O     O_R   0.644610 0.486520 0.670240 -0.606063
O8    O     O_R   0.321610 0.288370 0.513180 -0.616539
O9    O     O_R   0.610750 0.261430 0.491820 -0.605073
O10   O     O_R   0.355390 0.513480 0.329760 -0.592608
O11   O     O_R   0.644530 0.486530 0.308400 -0.624877
O12   O     O_2   0.285132 0.276139 0.023078 -0.578774
Zn1   Zn    Zn3+2 0.306940 0.517990 0.514260 1.135234
Zn2   Zn    Zn3+2 0.693060 0.482010 0.485740 1.110258

loop_
_geom_bond_atom_site_label_1
_geom_bond_atom_site_label_2
_ccdc_geom_bond_type
C4    O4    S    
C11   C12   D    
N2    Zn1   S    
O5    Zn2   S    
C5    C7    S    
C9    C10   D    
C6    O7    A    
C4    O3    D    
C3    O2    S    
C7    O8    A    
N1    N2    D    
N1    Zn2   S    
C4    N1    S    
C9    C11   S    
O7    Zn2   S    
C5    F2    S    
H5    O4    S    
O8    Zn1   S    
C3    C10   S    
C9    H1    S    
C1    O1    A    
O1    Zn1   S    
C8    O11   A    
C6    C12   S    
C2    C5    D    
C7    O9    A    
C8    O10   A    
O10   Zn1   S    
O11   Zn2   S    
C8    C10   S    
C1    C2    S    
C12   H3    S    
C1    O5    A    
C2    F1    S    
O9    Zn2   S    
C11   H2    S    
C3    O12   D    
H4    O2    S    
F3    N2    S    
C6    O6    A    
O6    Zn1   S    
