data_mof_unit_2262.cif
_audit_creation_date              2012-12-10T18:58:12-0500
_audit_creation_method            fapswitch 2.2
_symmetry_space_group_name_H-M    P1
_symmetry_Int_Tables_number       1
_space_group_crystal_system       triclinic
_cell_length_a                    10.975784
_cell_length_b                    10.79533
_cell_length_c                    9.599861
_cell_angle_alpha                 90.525138
_cell_angle_beta                  102.323288
_cell_angle_gamma                 90.954778
_cell_volume                      1111.0038907

loop_
_atom_site_label
_atom_site_type_symbol
_atom_type_description
_atom_site_fract_x
_atom_site_fract_y
_atom_site_fract_z
_atom_type_partial_charge
C1    C     C_R   0.500558 0.262649 0.499950 0.782594
C2    C     C_R   0.506383 0.129521 0.503239 -0.090898
C3    C     C_R   0.575210 0.065134 0.419277 -0.205056
C4    C     C_R   0.573928 0.935726 0.418518 -0.222777
C5    C     C_R   0.507155 0.870735 0.505042 -0.077809
C6    C     C_R   0.455566 0.936491 0.603129 0.086735
C7    C     C_3   0.330061 0.926090 0.639768 -0.491883
C8    C     C_3   0.328598 0.067679 0.640169 -0.118541
C9    C     C_R   0.578503 0.577618 0.093505 0.226237
C10   C     C_R   0.429097 0.415689 0.052901 0.169044
C11   C     C_R   0.429460 0.418020 0.905045 -0.097856
C12   C     C_R   0.262626 0.502258 0.442652 0.841288
C13   C     C_R   0.578903 0.577131 0.946599 0.254158
C14   C     C_3   0.582199 0.715018 0.942210 -0.485363
C15   C     C_3   0.580476 0.715749 0.099434 -0.525007
C16   C     C_R   0.500253 0.737391 0.500699 0.789566
C17   C     C_R   0.737157 0.506754 0.557502 0.845271
C18   C     C_2   0.127986 0.518608 0.413415 -0.385878
C19   C     C_2   0.070804 0.535629 0.522374 -0.192934
C20   C     C_2   0.873103 0.512574 0.588195 -0.389241
C21   C     C_2   0.938597 0.566626 0.500279 0.130720
C22   C     C_R   0.453753 0.063607 0.600914 0.080845
Cu1   Cu    Cu3+1 0.499990 0.499980 0.640670 0.929655
Cu2   Cu    Cu3+1 0.500010 0.500020 0.359330 0.921166
H1    H     H_    0.335919 0.108399 0.748046 0.153636
H2    H     H_    0.370692 0.354075 0.831459 0.140063
H3    H     H_    0.671063 0.751762 0.919488 0.192253
H4    H     H_    0.496289 0.753688 0.875695 0.216711
H5    H     H_    0.668057 0.753640 0.166583 0.195067
H6    H     H_    0.493448 0.754647 0.122068 0.221559
H7    H     H_    0.121201 0.524301 0.631914 0.173930
H8    H     H_    0.077172 0.524762 0.303554 0.159548
H9    H     H_    0.627659 0.114212 0.352903 0.147354
H10   H     H_    0.623065 0.886822 0.349372 0.146516
N1    N     N_R   0.500780 0.500930 0.148120 -0.196839
N2    N     N_R   0.500790 0.500890 0.852210 -0.199019
O1    O     O_R   0.500000 0.319640 0.618810 -0.583492
O2    O     O_R   0.500010 0.319680 0.381230 -0.590399
O3    O     O_R   0.320680 0.500000 0.575130 -0.577191
O4    O     O_R   0.320690 0.500040 0.337550 -0.597495
O5    O     O_R   0.499990 0.680320 0.618770 -0.579189
O6    O     O_R   0.500000 0.680360 0.381190 -0.587885
O7    O     O_R   0.679310 0.499960 0.662450 -0.571941
O8    O     O_R   0.679320 0.500000 0.424870 -0.575517
C23   C     C_3   0.883350 0.658296 0.384453 -0.326106
C24   C     C_3   0.964822 0.776720 0.392107 -0.361701
C25   C     C_3   0.913269 0.865035 0.271580 -0.886941
H11   H     H_    0.895722 0.815777 0.166887 0.253575
H12   H     H_    0.825564 0.906387 0.288237 0.249453
H13   H     H_    0.982520 0.940606 0.269501 0.248338
H14   H     H_    0.969705 0.824637 0.496140 0.215376
H15   H     H_    0.061192 0.754101 0.383619 0.230429
H16   H     H_    0.873626 0.612492 0.278421 0.187911
H17   H     H_    0.789750 0.688319 0.395681 0.195725
C26   C     C_3   0.345837 0.315547 0.094281 -0.368607
C27   C     C_3   0.402104 0.187378 0.083294 -0.358996
C28   C     C_3   0.320058 0.084134 0.123372 -0.849855
H18   H     H_    0.226592 0.083342 0.050646 0.244020
H19   H     H_    0.364013 0.993252 0.114710 0.247364
H20   H     H_    0.309582 0.097600 0.234690 0.254263
H21   H     H_    0.414156 0.169607 0.973390 0.194782
H22   H     H_    0.496009 0.184664 0.153673 0.238154
H23   H     H_    0.325963 0.328283 0.200087 0.253142
H24   H     H_    0.252981 0.318294 0.020082 0.151536
H25   H     H_    0.921032 0.459636 0.678781 0.131550
H26   H     H_    0.259596 0.880111 0.553368 0.188185
H27   H     H_    0.334975 0.887006 0.747401 0.178544
C29   C     C_3   0.223395 0.123455 0.527366 -0.362588
C30   C     C_3   0.099914 0.119338 0.577923 -0.343857
C31   C     C_3   0.996236 0.182884 0.473035 -0.850179
H28   H     H_    0.018858 0.282800 0.467080 0.267138
H29   H     H_    0.984017 0.140940 0.364992 0.250860
H30   H     H_    0.907070 0.173156 0.509368 0.243400
H31   H     H_    0.071525 0.021465 0.589925 0.223762
H32   H     H_    0.112080 0.166777 0.683462 0.210438
H33   H     H_    0.248036 0.221544 0.510239 0.191140
H34   H     H_    0.211982 0.072203 0.424403 0.198040

loop_
_geom_bond_atom_site_label_1
_geom_bond_atom_site_label_2
_ccdc_geom_bond_type
C26   C27   S    
Cu2   O6    S    
C19   H7    S    
C7    C8    S    
C25   H12   S    
C23   C24   S    
C11   N2    A    
C19   C21   S    
C18   C19   D    
C5    C6    A    
C28   H19   S    
C3    H9    S    
C6    C22   A    
C24   H15   S    
C17   C20   S    
Cu1   O7    S    
C27   C28   S    
C1    C2    S    
C9    C13   A    
C5    C16   S    
C29   C30   S    
C26   H23   S    
C2    C22   A    
Cu2   O2    S    
Cu1   Cu2   S    
C31   H28   S    
C14   H3    S    
C1    O1    A    
C23   H16   S    
C13   C14   S    
C8    H1    S    
C15   H5    S    
C25   H13   S    
C21   C23   S    
C4    H10   S    
Cu2   N1    S    
C20   H25   S    
C13   N2    A    
C28   H20   S    
C11   H2    S    
Cu1   O1    S    
C24   H14   S    
C12   O4    A    
C17   O7    A    
C8    C22   S    
C25   H11   S    
C26   H24   S    
C31   H30   S    
C30   H31   S    
C10   C26   S    
C10   N1    A    
C1    O2    A    
C23   H17   S    
C8    C29   S    
Cu2   O8    S    
C27   H22   S    
C18   H8    S    
C3    C4    A    
C16   O6    A    
C15   H6    S    
C29   H34   S    
C24   C25   S    
C14   C15   S    
C4    C5    A    
C6    C7    S    
C29   H33   S    
Cu1   O5    S    
C12   O3    A    
C2    C3    A    
C9    C15   S    
C17   O8    A    
C7    H26   S    
C28   H18   S    
Cu1   O3    S    
Cu2   O4    S    
C30   H32   S    
C30   C31   S    
C10   C11   A    
C7    H27   S    
C20   C21   D    
Cu1   N2    S    
C12   C18   S    
C9    N1    A    
C27   H21   S    
C31   H29   S    
C14   H4    S    
C16   O5    A    
