data_mof_unit_1008.cif
_audit_creation_date              2012-10-26T21:14:52-0400
_audit_creation_method            fapswitch 2.2
_symmetry_space_group_name_H-M    P1
_symmetry_Int_Tables_number       1
_space_group_crystal_system       triclinic
_cell_length_a                    15.087522
_cell_length_b                    10.929773
_cell_length_c                    13.676671
_cell_angle_alpha                 89.489249
_cell_angle_beta                  90.520991
_cell_angle_gamma                 88.707058
_cell_volume                      2254.5654476

loop_
_atom_site_label
_atom_site_type_symbol
_atom_type_description
_atom_site_fract_x
_atom_site_fract_y
_atom_site_fract_z
_atom_type_partial_charge
C1    C     C_R   0.499583 0.262129 0.500569 0.579969
C2    C     C_R   0.574436 0.867705 0.667793 0.057992
C3    C     C_R   0.458430 0.144640 0.248085 -0.038380
C4    C     C_R   0.528829 0.863388 0.756854 -0.041048
C5    C     C_R   0.416487 0.208115 0.170824 -0.136127
C6    C     C_R   0.566156 0.800756 0.837313 -0.135954
C7    C     C_R   0.332404 0.261446 0.183557 -0.052691
C8    C     C_R   0.648126 0.739823 0.828896 -0.057970
C9    C     C_R   0.463464 0.938743 0.419477 0.234122
C10   C     C_R   0.533429 0.061836 0.582586 0.234752
C11   C     C_R   0.500256 0.871954 0.499723 -0.025776
C12   C     C_R   0.499871 0.737997 0.499683 0.576253
C13   C     C_R   0.497554 0.128426 0.501768 -0.026409
C14   C     C_R   0.534663 0.934171 0.581919 -0.051029
C15   C     C_R   0.460843 0.066417 0.421062 -0.052877
C16   C     C_R   0.328703 0.498808 0.499557 0.564056
C17   C     C_R   0.671144 0.500424 0.500148 0.563889
C18   C     C_R   0.565145 0.437406 0.794376 0.085801
C19   C     C_R   0.434828 0.562442 0.205576 0.080407
C20   C     C_R   0.434497 0.562441 0.791867 0.074966
C21   C     C_R   0.565151 0.436806 0.208143 0.072359
C22   C     C_R   0.432214 0.564018 0.895224 -0.003770
C23   C     C_R   0.047894 0.286882 0.572395 0.039020
C24   C     C_R   0.567269 0.434836 0.104775 -0.005163
C25   C     C_R   0.499443 0.499530 0.948134 -0.007455
C26   C     C_R   0.500066 0.499357 0.051848 -0.006591
C27   C     C_R   0.566361 0.435555 0.897315 -0.055403
C28   C     C_R   0.433302 0.563637 0.102656 -0.055944
C29   C     C_R   0.365716 0.628564 0.947198 0.220290
C30   C     C_R   0.633766 0.370289 0.052801 0.223484
C31   C     C_R   0.366655 0.627737 0.049912 -0.072571
C32   C     C_R   0.632952 0.371355 0.950076 -0.066527
C33   C     C_R   0.812510 0.592549 0.449786 0.006776
C34   C     C_R   0.951216 0.654307 0.367400 0.038160
C35   C     C_R   0.187853 0.401403 0.549524 -0.016456
C36   C     C_R   0.767780 0.498432 0.498672 0.003164
C37   C     C_R   0.231903 0.493654 0.497217 -0.002193
C38   C     C_R   0.814541 0.398133 0.540182 0.239972
C39   C     C_R   0.184161 0.579485 0.439308 0.245492
C40   C     C_R   0.907481 0.392942 0.536080 0.040198
C41   C     C_R   0.091585 0.574601 0.433374 0.049975
C42   C     C_R   0.952853 0.484666 0.484741 0.005755
C43   C     C_R   0.046620 0.482541 0.484808 0.018546
C44   C     C_R   0.904742 0.578586 0.433398 0.060431
C45   C     C_R   0.289681 0.250640 0.273492 0.272058
C46   C     C_R   0.094975 0.389045 0.536522 0.069247
C47   C     C_R   0.955715 0.293753 0.577071 -0.088393
C48   C     C_R   0.043280 0.656478 0.372713 -0.086722
C49   C     C_2   0.764152 0.710801 0.429362 0.272811
C50   C     C_2   0.238810 0.327035 0.623321 0.303846
C51   C     C_2   0.089257 0.165029 0.593856 0.310764
C52   C     C_2   0.908805 0.720611 0.283399 0.322576
C53   C     C_R   0.693719 0.743175 0.740341 0.268098
C54   C     C_R   0.331437 0.187110 0.351096 -0.019586
C55   C     C_R   0.657448 0.808230 0.660412 -0.014073
C56   C     C_R   0.416050 0.133589 0.338695 0.056861
Cl1   Cl    Cl    0.415228 0.865973 0.316807 -0.517235
Cl2   Cl    Cl    0.581432 0.134710 0.685504 -0.520656
Cl3   Cl    Cl    0.280080 0.712470 0.886905 -0.535572
Cl4   Cl    Cl    0.719526 0.286634 0.113109 -0.528287
Cl5   Cl    Cl    0.755412 0.278676 0.596357 -0.512360
Cl6   Cl    Cl    0.240575 0.700694 0.381615 -0.519363
Cl7   Cl    Cl    0.183276 0.315222 0.288286 -0.549455
Cl8   Cl    Cl    0.796054 0.665390 0.729251 -0.531442
Cu1   Cu    Cu3+1 0.500010 0.499980 0.597420 1.031924
Cu2   Cu    Cu3+1 0.499990 0.500020 0.402580 1.029139
H1    H     H_    0.616388 0.389115 0.754379 0.210915
H2    H     H_    0.675931 0.689799 0.891037 0.166052
H3    H     H_    0.298282 0.179295 0.420702 0.153256
H4    H     H_    0.693199 0.811910 0.592555 0.154770
H5    H     H_    0.523885 0.104420 0.237626 0.166709
H6    H     H_    0.464599 0.908591 0.763771 0.168988
H7    H     H_    0.449307 0.216334 0.101109 0.142495
H8    H     H_    0.531030 0.798222 0.905922 0.146817
H9    H     H_    0.694395 0.712844 0.409694 0.127359
H10   H     H_    0.303282 0.287720 0.605458 0.120930
H11   H     H_    0.061272 0.106435 0.649581 0.146991
H12   H     H_    0.383834 0.611174 0.245506 0.213142
H13   H     H_    0.939235 0.801678 0.253468 0.143311
H14   H     H_    0.384716 0.611842 0.749020 0.192733
H15   H     H_    0.614885 0.387338 0.251013 0.192327
H16   H     H_    0.315155 0.677652 0.088597 0.190920
H17   H     H_    0.684564 0.321659 0.911398 0.192644
H18   H     H_    0.921934 0.216955 0.608947 0.182286
H19   H     H_    0.076921 0.718834 0.324465 0.180354
H20   H     H_    0.300478 0.310845 0.123467 0.167565
N1    N     N_R   0.499960 0.499900 0.743810 -0.261711
N2    N     N_R   0.500040 0.500100 0.256190 -0.260938
O1    O     O_R   0.500000 0.319630 0.582270 -0.442511
O2    O     O_2   0.210183 0.312717 0.705766 -0.450303
O3    O     O_2   0.150874 0.125614 0.545184 -0.469436
O4    O     O_2   0.842784 0.681446 0.243180 -0.450056
O5    O     O_R   0.500000 0.680370 0.417730 -0.441581
O6    O     O_R   0.499990 0.319660 0.417730 -0.524716
O7    O     O_R   0.500010 0.680340 0.582270 -0.527234
O8    O     O_R   0.370260 0.499960 0.582280 -0.523304
O9    O     O_R   0.629740 0.500040 0.417720 -0.524439
O10   O     O_R   0.370250 0.499990 0.417740 -0.468776
O11   O     O_R   0.629750 0.500010 0.582260 -0.465577
O12   O     O_2   0.801156 0.808252 0.439114 -0.469660

loop_
_geom_bond_atom_site_label_1
_geom_bond_atom_site_label_2
_ccdc_geom_bond_type
C40   C47   A    
C30   C32   A    
C22   C29   A    
C2    C4    A    
C39   C41   A    
Cu1   O1    S    
C31   H16   S    
C7    C45   A    
Cu2   O9    S    
C35   C37   A    
C24   C26   A    
C2    C55   A    
Cu2   N2    S    
C53   Cl8   S    
C7    H20   S    
C33   C49   S    
C20   N1    A    
C33   C36   A    
C32   H17   S    
C51   O3    D    
C50   O2    D    
Cu1   O8    S    
C29   Cl3   S    
C1    O6    A    
C22   C25   A    
C30   Cl4   S    
C49   H9    S    
C12   O7    A    
Cu1   N1    S    
C17   C36   S    
C52   H13   S    
C16   C37   S    
Cu2   O6    S    
C38   Cl5   S    
C40   C42   A    
C21   N2    A    
C23   C46   A    
C41   C43   A    
C42   C44   A    
C25   C26   A    
C6    H8    S    
C53   C55   A    
C54   C56   A    
C16   O8    A    
C23   C47   A    
C20   H14   S    
C34   C44   A    
Cu1   O11   S    
C4    C6    A    
C19   N2    A    
C10   C14   A    
C5    C7    A    
C6    C8    A    
C18   H1    S    
C45   Cl7   S    
C19   H12   S    
C3    H5    S    
C51   H11   S    
C50   H10   S    
C9    C11   A    
C3    C56   A    
C23   C51   S    
C35   C50   S    
C47   H18   S    
C19   C28   A    
C17   O11   A    
Cu2   O5    S    
C20   C22   A    
C45   C54   A    
C8    H2    S    
C13   C15   A    
C12   O5    A    
C52   O4    D    
C1    C13   S    
C42   C43   A    
C4    H6    S    
C39   Cl6   S    
C1    O1    A    
C10   Cl2   S    
C27   C32   A    
C33   C44   A    
C26   C28   A    
C28   C31   A    
C18   C27   A    
C21   H15   S    
C3    C5    A    
C10   C13   A    
C8    C53   A    
C11   C12   S    
C25   C27   A    
C34   C52   S    
C18   N1    A    
C15   C56   S    
Cu2   O10   S    
C36   C38   A    
C9    C15   A    
C37   C39   A    
C49   O12   D    
C38   C40   A    
C16   O10   A    
C54   H3    S    
C11   C14   A    
C41   C48   A    
C9    Cl1   S    
C5    H7    S    
C2    C14   S    
C43   C46   A    
C24   C30   A    
C55   H4    S    
Cu1   O7    S    
C34   C48   A    
C29   C31   A    
Cu1   Cu2   S    
C21   C24   A    
C48   H19   S    
C35   C46   A    
C17   O9    A    
