data_mof_unit_17.cif
_audit_creation_date              2012-10-26T17:11:32-0400
_audit_creation_method            fapswitch 2.2
_symmetry_space_group_name_H-M    P1
_symmetry_Int_Tables_number       1
_space_group_crystal_system       triclinic
_cell_length_a                    28.020872
_cell_length_b                    18.702283
_cell_length_c                    16.886505
_cell_angle_alpha                 89.999652
_cell_angle_beta                  62.373213
_cell_angle_gamma                 89.999634
_cell_volume                      7840.49234455

loop_
_atom_site_label
_atom_site_type_symbol
_atom_type_description
_atom_site_fract_x
_atom_site_fract_y
_atom_site_fract_z
_atom_type_partial_charge
C1    C     C_R   0.295352 0.728737 0.329677 0.867512
C2    C     C_R   0.705675 0.273828 0.669723 0.881116
C3    C     C_R   0.704648 0.728736 0.670322 0.867509
C4    C     C_R   0.294324 0.273832 0.330277 0.881034
C5    C     C_R   0.795351 0.228736 0.329678 0.867580
C6    C     C_R   0.205676 0.773831 0.669723 0.881044
C7    C     C_R   0.204648 0.228737 0.670322 0.867508
C8    C     C_R   0.794324 0.773831 0.330277 0.881035
C9    C     C_R   0.410237 0.000043 0.465221 0.075111
C10   C     C_R   0.589768 0.000044 0.534754 0.075115
C11   C     C_R   0.910232 0.500042 0.465242 0.075123
C12   C     C_R   0.089763 0.500044 0.534776 0.075109
C13   C     C_R   0.582705 0.871692 0.549994 -0.125755
C14   C     C_R   0.417345 0.128380 0.449847 -0.144680
C15   C     C_R   0.417297 0.871690 0.449993 -0.125759
C16   C     C_R   0.582663 0.128382 0.550114 -0.144736
C17   C     C_R   0.082701 0.371692 0.550018 -0.125772
C18   C     C_R   0.917341 0.628380 0.449868 -0.144689
C19   C     C_R   0.917292 0.371690 0.450018 -0.125792
C20   C     C_R   0.082658 0.628382 0.550137 -0.144684
C21   C     C_R   0.229130 0.777264 0.943993 0.096706
C22   C     C_R   0.785090 0.245268 0.044269 0.122815
C23   C     C_R   0.770875 0.777255 0.056002 0.096708
C24   C     C_R   0.214924 0.245249 0.955709 0.122704
C25   C     C_R   0.729161 0.277289 0.943942 0.096707
C26   C     C_R   0.285081 0.745259 0.044286 0.122709
C27   C     C_R   0.270876 0.277254 0.055999 0.096712
C28   C     C_R   0.714923 0.745249 0.955711 0.122710
C29   C     C_R   0.281971 0.747508 0.901727 0.150297
C30   C     C_R   0.727973 0.251963 0.088439 0.135590
C31   C     C_R   0.718036 0.747495 0.098268 0.150303
C32   C     C_R   0.272040 0.251980 0.911513 0.135602
C33   C     C_R   0.782018 0.247575 0.901675 0.150090
C34   C     C_R   0.227965 0.751982 0.088479 0.135602
C35   C     C_R   0.218039 0.247489 0.098265 0.150310
C36   C     C_R   0.772039 0.751976 0.911516 0.135611
C37   C     C_R   0.311294 0.745170 0.950203 -0.219861
C38   C     C_R   0.702120 0.274109 0.038417 -0.232429
C39   C     C_R   0.688712 0.745156 0.049794 -0.219845
C40   C     C_R   0.297901 0.274127 0.961521 -0.232430
C41   C     C_R   0.811319 0.245214 0.950187 -0.219941
C42   C     C_R   0.202104 0.774128 0.038470 -0.232435
C43   C     C_R   0.188714 0.245151 0.049793 -0.219855
C44   C     C_R   0.797900 0.774123 0.961524 -0.232413
C45   C     C_R   0.147938 0.835898 0.940247 -0.284166
C46   C     C_R   0.855317 0.169977 0.057424 -0.326873
C47   C     C_R   0.852065 0.835893 0.059749 -0.284161
C48   C     C_R   0.144693 0.169957 0.942565 -0.326868
C49   C     C_R   0.647969 0.335945 0.940217 -0.284102
C50   C     C_R   0.355311 0.669965 0.057431 -0.326878
C51   C     C_R   0.352066 0.335892 0.059748 -0.284166
C52   C     C_R   0.644692 0.669958 0.942566 -0.326862
C53   C     C_R   0.115821 0.847842 0.897584 -0.111536
C54   C     C_R   0.876710 0.139126 0.109630 -0.120470
C55   C     C_R   0.884181 0.847840 0.102415 -0.111544
C56   C     C_R   0.123294 0.139117 0.890365 -0.120466
C57   C     C_R   0.615835 0.347861 0.897574 -0.111506
C58   C     C_R   0.376708 0.639121 0.109633 -0.120466
C59   C     C_R   0.384181 0.347839 0.102415 -0.111541
C60   C     C_R   0.623293 0.639117 0.890365 -0.120459
C61   C     C_R   0.130353 0.814742 0.815199 0.311331
C62   C     C_R   0.850751 0.150836 0.201480 0.288459
C63   C     C_R   0.869648 0.814742 0.184801 0.311329
C64   C     C_R   0.149249 0.150832 0.798516 0.288491
C65   C     C_R   0.630358 0.314743 0.815203 0.311340
C66   C     C_R   0.350752 0.650834 0.201482 0.288490
C67   C     C_R   0.369648 0.314742 0.184801 0.311331
C68   C     C_R   0.649249 0.650832 0.798517 0.288507
C69   C     C_R   0.184333 0.793594 0.764086 -0.205316
C70   C     C_R   0.818394 0.211983 0.234386 -0.221537
C71   C     C_R   0.815668 0.793593 0.235913 -0.205320
C72   C     C_R   0.181603 0.211981 0.765613 -0.221518
C73   C     C_R   0.684338 0.293599 0.764080 -0.205311
C74   C     C_R   0.318397 0.711983 0.234386 -0.221516
C75   C     C_R   0.315669 0.293592 0.235912 -0.205323
C76   C     C_R   0.681604 0.711981 0.765613 -0.221534
C77   C     C_R   0.220042 0.800291 0.801199 0.273646
C78   C     C_R   0.805913 0.253240 0.175952 0.297025
C79   C     C_R   0.779961 0.800287 0.198797 0.273648
C80   C     C_R   0.194079 0.253237 0.824051 0.297028
C81   C     C_R   0.720058 0.300330 0.801163 0.273686
C82   C     C_R   0.305922 0.753242 0.175948 0.297032
C83   C     C_R   0.279962 0.300285 0.198795 0.273648
C84   C     C_R   0.694080 0.753236 0.824051 0.297016
C85   C     C_R   0.196643 0.631658 0.527022 0.782802
C86   C     C_R   0.803360 0.368355 0.472969 0.811645
C87   C     C_R   0.803357 0.631658 0.472979 0.782805
C88   C     C_R   0.196639 0.368354 0.527033 0.811573
C89   C     C_R   0.696644 0.131658 0.527020 0.782862
C90   C     C_R   0.303360 0.868354 0.472967 0.811584
C91   C     C_R   0.303357 0.131658 0.472977 0.782797
C92   C     C_R   0.696640 0.868355 0.527031 0.811574
C93   C     C_R   0.198626 0.802410 0.894712 0.033584
C94   C     C_R   0.816404 0.224265 0.092439 0.028818
C95   C     C_R   0.801378 0.802404 0.105283 0.033582
C96   C     C_R   0.183601 0.224251 0.907553 0.028876
C97   C     C_R   0.698655 0.302453 0.894671 0.033604
C98   C     C_R   0.316403 0.724259 0.092444 0.028875
C99   C     C_R   0.301379 0.302403 0.105281 0.033579
C100  C     C_R   0.683601 0.724251 0.907554 0.028865
C101  C     C_R   0.928120 0.900705 0.065168 0.840871
C102  C     C_R   0.076424 0.091986 0.930826 0.846353
C103  C     C_R   0.071881 0.900706 0.934831 0.840863
C104  C     C_R   0.923578 0.091990 0.069172 0.846362
C105  C     C_R   0.428120 0.400705 0.065168 0.840875
C106  C     C_R   0.576424 0.591986 0.930826 0.846352
C107  C     C_R   0.571885 0.400711 0.934828 0.840881
C108  C     C_R   0.423576 0.591987 0.069173 0.846358
C109  C     C_R   0.041309 0.630118 0.525522 -0.081329
C110  C     C_R   0.958626 0.369958 0.474650 -0.055546
C111  C     C_R   0.958689 0.630117 0.474484 -0.081324
C112  C     C_R   0.041361 0.369959 0.525398 -0.055541
C113  C     C_R   0.541317 0.130118 0.525493 -0.081291
C114  C     C_R   0.458635 0.869958 0.474618 -0.055542
C115  C     C_R   0.458696 0.130117 0.474456 -0.081340
C116  C     C_R   0.541369 0.869959 0.525366 -0.055541
C117  C     C_R   0.020064 0.695542 0.513950 0.311916
C118  C     C_R   0.979882 0.304519 0.486187 0.328238
C119  C     C_R   0.979936 0.695542 0.486049 0.311920
C120  C     C_R   0.020098 0.304520 0.513881 0.328271
C121  C     C_R   0.520073 0.195542 0.513916 0.311952
C122  C     C_R   0.479893 0.804520 0.486147 0.328282
C123  C     C_R   0.479945 0.195542 0.486017 0.311918
C124  C     C_R   0.520109 0.804520 0.513842 0.328281
C125  C     C_R   0.978529 0.565133 0.489153 -0.025429
C126  C     C_R   0.021479 0.434958 0.510834 -0.018890
C127  C     C_R   0.021467 0.565134 0.510862 -0.025426
C128  C     C_R   0.978511 0.434958 0.489203 -0.018883
C129  C     C_R   0.478537 0.065134 0.489124 -0.025443
C130  C     C_R   0.521488 0.934958 0.510803 -0.018886
C131  C     C_R   0.521475 0.065134 0.510833 -0.025423
C132  C     C_R   0.478519 0.934958 0.489172 -0.018885
C133  C     C_R   0.456312 0.000047 0.479736 0.046082
C134  C     C_R   0.543697 0.000048 0.520232 0.046083
C135  C     C_R   0.956304 0.500047 0.479764 0.046080
C136  C     C_R   0.043689 0.500048 0.520260 0.046078
C137  C     C_R   0.387499 0.934653 0.457646 0.038042
C138  C     C_R   0.612489 0.065420 0.542378 0.016031
C139  C     C_R   0.612504 0.934654 0.542340 0.038043
C140  C     C_R   0.387516 0.065419 0.457598 0.016029
C141  C     C_R   0.887496 0.434653 0.457664 0.038067
C142  C     C_R   0.112486 0.565420 0.542395 0.016030
C143  C     C_R   0.112500 0.434654 0.542357 0.038040
C144  C     C_R   0.887513 0.565419 0.457614 0.016025
C145  C     C_R   0.335975 0.934646 0.458828 -0.097700
C146  C     C_R   0.664022 0.065397 0.541167 -0.108014
C147  C     C_R   0.664025 0.934647 0.541166 -0.097701
C148  C     C_R   0.335979 0.065397 0.458822 -0.108030
C149  C     C_R   0.835974 0.434646 0.458836 -0.097679
C150  C     C_R   0.164021 0.565397 0.541175 -0.108029
C151  C     C_R   0.164024 0.434647 0.541173 -0.097707
C152  C     C_R   0.835978 0.565396 0.458829 -0.108024
C153  C     C_R   0.311708 0.000021 0.458769 -0.215630
C154  C     C_R   0.688291 0.000021 0.541229 -0.215640
C155  C     C_R   0.811709 0.500021 0.458771 -0.215614
C156  C     C_R   0.188291 0.500021 0.541231 -0.215633
Cu1   Cu    Cu3+1 0.209920 0.785290 0.495070 1.122290
Cu2   Cu    Cu3+1 0.790080 0.214710 0.504930 1.095322
Cu3   Cu    Cu3+1 0.790080 0.785290 0.504930 1.122281
Cu4   Cu    Cu3+1 0.209920 0.214710 0.495070 1.095548
Cu5   Cu    Cu3+1 0.709920 0.285290 0.495070 1.122321
Cu6   Cu    Cu3+1 0.290080 0.714710 0.504930 1.095538
Cu7   Cu    Cu3+1 0.290080 0.285290 0.504930 1.122278
Cu8   Cu    Cu3+1 0.709920 0.714710 0.495070 1.095547
Cu9   Cu    Cu3+1 0.495240 0.500000 0.924150 1.094171
Cu10  Cu    Cu3+1 0.504760 0.500000 0.075850 1.094191
Cu11  Cu    Cu3+1 0.995240 0.000000 0.924150 1.094178
Cu12  Cu    Cu3+1 0.004760 0.000000 0.075850 1.094172
H1    H     H_    0.272055 0.000020 0.462503 0.202683
H2    H     H_    0.727942 0.000019 0.537503 0.202674
H3    H     H_    0.772058 0.500019 0.462498 0.202677
H4    H     H_    0.227944 0.500019 0.537497 0.202683
H5    H     H_    0.589642 0.823838 0.578201 0.211635
H6    H     H_    0.410382 0.176233 0.421666 0.234510
H7    H     H_    0.410357 0.823835 0.421793 0.211637
H8    H     H_    0.589621 0.176236 0.578298 0.234509
H9    H     H_    0.089641 0.323838 0.578221 0.211633
H10   H     H_    0.910381 0.676233 0.421683 0.234509
H11   H     H_    0.910356 0.323834 0.421813 0.211647
H12   H     H_    0.089620 0.676236 0.578316 0.234510
H13   H     H_    0.159102 0.781988 0.074215 0.148657
H14   H     H_    0.854020 0.233991 0.914292 0.148827
H15   H     H_    0.840901 0.781986 0.925778 0.148653
H16   H     H_    0.146020 0.233891 0.085710 0.148833
H17   H     H_    0.659115 0.281944 0.074143 0.148670
H18   H     H_    0.353988 0.733915 0.914289 0.148835
H19   H     H_    0.340902 0.281994 0.925774 0.148654
H20   H     H_    0.646018 0.733898 0.085710 0.148835
H21   H     H_    0.134693 0.857081 0.006610 0.187080
H22   H     H_    0.868021 0.149718 0.990695 0.184789
H23   H     H_    0.865312 0.857073 0.993385 0.187085
H24   H     H_    0.131997 0.149685 0.009287 0.184772
H25   H     H_    0.634737 0.357141 0.006571 0.187074
H26   H     H_    0.368008 0.649695 0.990708 0.184774
H27   H     H_    0.365314 0.357072 0.993384 0.187079
H28   H     H_    0.631996 0.649687 0.009288 0.184773
O1    O     O_R   0.255040 0.869590 0.478480 -0.562769
O2    O     O_R   0.744960 0.130410 0.521520 -0.566170
O3    O     O_R   0.744960 0.869590 0.521520 -0.562773
O4    O     O_R   0.255040 0.130410 0.478480 -0.566140
O5    O     O_R   0.755040 0.369590 0.478480 -0.562758
O6    O     O_R   0.244960 0.630410 0.521520 -0.566140
O7    O     O_R   0.244960 0.369590 0.521520 -0.562769
O8    O     O_R   0.755040 0.630410 0.478480 -0.566139
O9    O     O_R   0.182050 0.796550 0.624440 -0.515169
O10   O     O_R   0.817950 0.203450 0.375560 -0.526608
O11   O     O_R   0.817950 0.796550 0.375560 -0.515169
O12   O     O_R   0.182050 0.203450 0.624440 -0.526594
O13   O     O_R   0.682050 0.296550 0.624440 -0.515150
O14   O     O_R   0.317950 0.703450 0.375560 -0.526597
O15   O     O_R   0.317950 0.296550 0.375560 -0.515169
O16   O     O_R   0.682050 0.703450 0.624440 -0.526596
O17   O     O_R   0.250530 0.763330 0.367210 -0.556023
O18   O     O_R   0.749470 0.236670 0.632790 -0.580965
O19   O     O_R   0.749470 0.763330 0.632790 -0.556026
O20   O     O_R   0.250530 0.236670 0.367210 -0.580806
O21   O     O_R   0.750530 0.263330 0.367210 -0.555976
O22   O     O_R   0.249470 0.736670 0.632790 -0.580815
O23   O     O_R   0.249470 0.263330 0.632790 -0.556030
O24   O     O_R   0.750530 0.736670 0.367210 -0.580809
O25   O     O_R   0.177260 0.690030 0.513710 -0.595465
O26   O     O_R   0.822740 0.309970 0.486290 -0.578490
O27   O     O_R   0.822740 0.690030 0.486290 -0.595463
O28   O     O_R   0.177260 0.309970 0.513710 -0.578451
O29   O     O_R   0.677260 0.190030 0.513710 -0.595460
O30   O     O_R   0.322740 0.809970 0.486290 -0.578459
O31   O     O_R   0.322740 0.190030 0.486290 -0.595467
O32   O     O_R   0.677260 0.809970 0.513710 -0.578457
O33   O     O_R   0.051640 0.926880 0.885090 -0.510754
O34   O     O_R   0.948360 0.073120 0.114910 -0.525703
O35   O     O_R   0.948360 0.926880 0.114910 -0.510753
O36   O     O_R   0.051640 0.073120 0.885090 -0.525711
O37   O     O_R   0.551640 0.426880 0.885090 -0.510756
O38   O     O_R   0.448360 0.573120 0.114910 -0.525705
O39   O     O_R   0.448360 0.426880 0.114910 -0.510751
O40   O     O_R   0.551640 0.573120 0.885090 -0.525713
O41   O     O_R   0.940620 0.926560 0.986760 -0.602104
O42   O     O_R   0.059380 0.073440 0.013240 -0.605694
O43   O     O_R   0.059380 0.926560 0.013240 -0.602111
O44   O     O_R   0.940620 0.073440 0.986760 -0.605692
O45   O     O_R   0.440620 0.426560 0.986760 -0.602110
O46   O     O_R   0.559380 0.573440 0.013240 -0.605693
O47   O     O_R   0.559380 0.426560 0.013240 -0.602110
O48   O     O_R   0.440620 0.573440 0.986760 -0.605692
Cl1   Cl    Cl    0.545641 0.721629 0.528538 -0.521763
Cl2   Cl    Cl    0.454489 0.278410 0.471130 -0.498403
Cl3   Cl    Cl    0.454360 0.721628 0.471460 -0.521765
Cl4   Cl    Cl    0.545536 0.278411 0.528785 -0.498434
Cl5   Cl    Cl    0.045626 0.221628 0.528585 -0.521791
Cl6   Cl    Cl    0.954479 0.778410 0.471165 -0.498424
Cl7   Cl    Cl    0.954343 0.221627 0.471511 -0.521893
Cl8   Cl    Cl    0.045524 0.778411 0.528824 -0.498424
C157  C     C_3   0.302404 0.698834 0.819932 -0.380790
C158  C     C_3   0.264123 0.635394 0.836193 -0.407273
C159  C     C_3   0.285198 0.585383 0.755604 -0.702896
H29   H     H_    0.325168 0.563524 0.741814 0.265601
H30   H     H_    0.256731 0.540151 0.769532 0.263836
H31   H     H_    0.288862 0.614420 0.695647 0.263715
H32   H     H_    0.259790 0.604803 0.895643 0.235792
H33   H     H_    0.223634 0.654746 0.849419 0.225915
H34   H     H_    0.309752 0.726445 0.758117 0.267503
H35   H     H_    0.342477 0.676454 0.805190 0.205754
C160  C     C_3   0.692265 0.229280 0.185109 -0.384472
C161  C     C_3   0.693903 0.148079 0.197289 -0.386292
C162  C     C_3   0.658225 0.126331 0.294462 -0.741039
H36   H     H_    0.660017 0.067471 0.301352 0.260197
H37   H     H_    0.615709 0.141834 0.315919 0.255030
H38   H     H_    0.672374 0.152440 0.338905 0.263076
H39   H     H_    0.735635 0.130086 0.177632 0.235843
H40   H     H_    0.679647 0.120252 0.153985 0.235662
H41   H     H_    0.702588 0.257579 0.232281 0.257626
H42   H     H_    0.649643 0.244296 0.206264 0.213268
C163  C     C_3   0.697607 0.698817 0.180060 -0.380790
C164  C     C_3   0.735892 0.635380 0.163791 -0.407292
C165  C     C_3   0.714822 0.585364 0.244375 -0.702883
H43   H     H_    0.674853 0.563500 0.258165 0.265607
H44   H     H_    0.743292 0.540135 0.230443 0.263841
H45   H     H_    0.711156 0.614399 0.304335 0.263705
H46   H     H_    0.740226 0.604791 0.104339 0.235794
H47   H     H_    0.776380 0.654735 0.150566 0.225914
H48   H     H_    0.690259 0.726425 0.241876 0.267502
H49   H     H_    0.657536 0.676434 0.194803 0.205758
C166  C     C_3   0.307739 0.229317 0.814835 -0.384448
C167  C     C_3   0.306138 0.148112 0.802649 -0.386396
C168  C     C_3   0.341735 0.126397 0.705440 -0.740966
H50   H     H_    0.327464 0.152435 0.661120 0.263042
H51   H     H_    0.384248 0.142007 0.683826 0.255063
H52   H     H_    0.340007 0.067528 0.698557 0.260166
H53   H     H_    0.264401 0.130064 0.822441 0.235853
H54   H     H_    0.320489 0.120314 0.845843 0.235644
H55   H     H_    0.297389 0.257597 0.767685 0.257642
H56   H     H_    0.350357 0.244372 0.793652 0.213238
C169  C     C_3   0.802530 0.199023 0.819761 -0.380777
C170  C     C_3   0.764282 0.135590 0.835755 -0.407022
C171  C     C_3   0.785439 0.085719 0.755025 -0.702768
H57   H     H_    0.825394 0.063834 0.741284 0.265596
H58   H     H_    0.756988 0.040497 0.768753 0.263608
H59   H     H_    0.789160 0.114873 0.695106 0.263874
H60   H     H_    0.759904 0.104883 0.895154 0.235783
H61   H     H_    0.723802 0.154945 0.848937 0.225836
H62   H     H_    0.809951 0.226747 0.757979 0.267558
H63   H     H_    0.842585 0.176619 0.805086 0.205695
C172  C     C_3   0.192266 0.729310 0.185154 -0.384441
C173  C     C_3   0.193873 0.648104 0.197329 -0.386405
C174  C     C_3   0.158277 0.626380 0.294535 -0.740959
H64   H     H_    0.160010 0.567510 0.301409 0.260171
H65   H     H_    0.115763 0.641986 0.316151 0.255063
H66   H     H_    0.172547 0.652415 0.338858 0.263036
H67   H     H_    0.235611 0.630060 0.177534 0.235853
H68   H     H_    0.179523 0.620309 0.154131 0.235644
H69   H     H_    0.202613 0.757588 0.232309 0.257640
H70   H     H_    0.149647 0.744361 0.206337 0.213242
C175  C     C_3   0.197614 0.198808 0.180053 -0.380796
C176  C     C_3   0.235902 0.135375 0.163779 -0.407278
C177  C     C_3   0.214835 0.085357 0.244361 -0.702905
H71   H     H_    0.174867 0.063491 0.258153 0.265601
H72   H     H_    0.243308 0.040129 0.230425 0.263851
H73   H     H_    0.211171 0.114390 0.304321 0.263701
H74   H     H_    0.240236 0.104787 0.104327 0.235796
H75   H     H_    0.276390 0.154733 0.150552 0.225916
H76   H     H_    0.190265 0.226414 0.241871 0.267499
H77   H     H_    0.157543 0.176422 0.194795 0.205753
C178  C     C_3   0.807738 0.729306 0.814841 -0.384454
C179  C     C_3   0.806133 0.648099 0.802665 -0.386398
C180  C     C_3   0.841734 0.626377 0.705460 -0.740934
H78   H     H_    0.827469 0.652415 0.661131 0.263037
H79   H     H_    0.884247 0.641981 0.683852 0.255050
H80   H     H_    0.840001 0.567507 0.698583 0.260201
H81   H     H_    0.764396 0.630056 0.822452 0.235867
H82   H     H_    0.820479 0.620303 0.845867 0.235641
H83   H     H_    0.797390 0.757583 0.767687 0.257637
H84   H     H_    0.850357 0.744357 0.793658 0.213245
Cl9   Cl    Cl    0.081378 0.800281 0.778137 -0.543742
Cl10  Cl    Cl    0.852153 0.082428 0.273798 -0.533349
Cl11  Cl    Cl    0.918622 0.800283 0.221866 -0.543735
Cl12  Cl    Cl    0.147846 0.082427 0.726196 -0.533338
Cl13  Cl    Cl    0.581376 0.300261 0.778161 -0.543782
Cl14  Cl    Cl    0.352154 0.582427 0.273802 -0.533345
Cl15  Cl    Cl    0.418622 0.300283 0.221867 -0.543713
Cl16  Cl    Cl    0.647846 0.582427 0.726197 -0.533298
Cl17  Cl    Cl    0.280705 0.847597 0.736650 -0.618829
Cl18  Cl    Cl    0.782779 0.342551 0.201823 -0.623139
Cl19  Cl    Cl    0.719294 0.847585 0.263343 -0.618825
Cl20  Cl    Cl    0.217190 0.342559 0.798199 -0.623139
Cl21  Cl    Cl    0.780658 0.347760 0.736625 -0.618927
Cl22  Cl    Cl    0.282805 0.842561 0.201806 -0.623143
Cl23  Cl    Cl    0.219292 0.347579 0.263341 -0.618821
Cl24  Cl    Cl    0.717196 0.842556 0.798195 -0.622982

loop_
_geom_bond_atom_site_label_1
_geom_bond_atom_site_label_2
_ccdc_geom_bond_type
C159  H30   S    
Cu9   O37   S    
C161  H39   S    
Cu5   O21   S    
C34   C42   A    
C16   C113  A    
C110  C118  A    
C40   H19   S    
C13   H5    S    
C89   O2    A    
C27   C99   S    
C13   C139  A    
C167  C168  S    
C102  O42   A    
C24   C96   S    
C29   C37   A    
C157  H34   S    
C30   C38   A    
C164  C165  S    
C6    O9    A    
Cu8   O8    S    
C109  C127  A    
C5    O21   A    
C179  C180  S    
C52   H28   S    
C111  C125  A    
Cu11  O44   S    
C29   C157  S    
C92   O3    A    
C35   C175  S    
C125  C135  A    
C143  C151  A    
C107  O37   A    
C167  H54   S    
C19   C141  A    
C92   C147  S    
C102  O36   A    
Cu10  O47   S    
C105  O39   A    
C107  O47   A    
C130  C134  A    
Cu7   O31   S    
C105  O45   A    
Cu11  O33   S    
Cu12  O43   S    
C42   H13   S    
C115  C123  A    
C178  C179  S    
C84   C100  A    
Cu4   Cu7   S    
C160  C161  S    
Cu1   O9    S    
C127  C136  A    
C119  Cl6   S    
C57   C65   A    
C112  C120  A    
C34   C172  S    
Cu6   O14   S    
C27   C35   A    
C176  C177  S    
C21   C29   A    
C87   O27   A    
C173  H68   S    
C24   C32   A    
C5    C70   S    
C172  C173  S    
C146  C154  A    
Cu7   O7    S    
C36   C178  S    
C85   O6    A    
C129  C133  A    
Cu4   O28   S    
C63   C71   A    
C2    O18   A    
C41   H14   S    
C36   C44   A    
Cu9   O45   S    
C148  C153  A    
C19   H11   S    
C87   O8    A    
C172  H69   S    
C17   H9    S    
C104  O44   A    
C8    C71   S    
C48   C96   A    
C90   O30   A    
C16   C138  A    
Cu3   O11   S    
C166  H56   S    
C60   C68   A    
C81   Cl21  S    
C78   Cl18  S    
C117  C119  A    
C149  C155  A    
C33   C41   A    
C168  H51   S    
C51   H27   S    
C64   Cl12  S    
C21   C93   S    
C158  H32   S    
Cu8   O16   S    
Cu2   O2    S    
C156  H4    S    
C118  C120  A    
C121  C123  A    
C49   C97   A    
C21   C42   A    
C116  C130  A    
C125  C127  A    
C24   C43   A    
C10   C138  A    
C3    O19   A    
Cu1   Cu6   S    
C110  C128  A    
C15   C137  A    
Cu7   O23   S    
C6    C69   S    
C4    O20   A    
C69   C77   A    
C45   C93   A    
C71   C79   A    
C171  H58   S    
C62   C70   A    
C106  O40   A    
Cu6   O6    S    
C163  H49   S    
C78   C94   A    
C157  C158  S    
C9    C140  A    
C66   C74   A    
C49   C57   A    
C111  C119  A    
C180  H79   S    
C52   C60   A    
C59   C67   A    
C53   C61   A    
C121  Cl4   S    
C23   C95   S    
C161  C162  S    
C174  H65   S    
C55   C63   A    
C88   O28   A    
C32   C166  S    
C35   C43   A    
Cu1   O1    S    
C82   Cl22  S    
C160  H41   S    
C45   C53   A    
Cu1   O25   S    
C22   C94   S    
Cu6   O30   S    
C117  Cl8   S    
C62   Cl10  S    
C108  O38   A    
C50   C98   A    
Cu3   O19   S    
C65   Cl13  S    
C101  O41   A    
C164  H46   S    
C165  H45   S    
Cu8   O32   S    
C7    C72   S    
Cu12  O42   S    
C179  H81   S    
C52   C100  A    
C8    O11   A    
C169  C170  S    
C25   C38   A    
Cu4   O12   S    
C162  H37   S    
C46   C94   A    
C27   C40   A    
C63   Cl11  S    
C11   C141  A    
C44   H15   S    
C28   C36   A    
C2    C73   S    
C39   H20   S    
C25   C97   S    
C14   C140  A    
C87   C152  S    
C88   C151  S    
C67   C75   A    
C91   O4    A    
C122  C124  A    
C60   C106  S    
C176  H74   S    
C173  C174  S    
C177  H73   S    
C126  C128  A    
C22   C30   A    
C68   C76   A    
C12   C143  A    
C56   C102  S    
C170  H60   S    
C72   C80   A    
C138  C146  A    
C126  C136  A    
Cu11  O41   S    
C113  C121  A    
C18   H10   S    
C12   C136  A    
C166  C167  S    
Cu3   Cu8   S    
C178  H84   S    
C85   O25   A    
C25   C33   A    
C122  Cl3   S    
Cu10  O38   S    
Cu6   O22   S    
C82   C98   A    
C165  H43   S    
C175  H77   S    
C131  C134  A    
C76   C84   A    
C109  C117  A    
Cu11  O36   S    
C90   O1    A    
C59   C105  S    
C4    O15   A    
C54   C104  S    
C74   C82   A    
C90   C145  S    
C118  Cl7   S    
C115  C129  A    
C170  C171  S    
C22   C41   A    
C66   Cl14  S    
C14   C115  A    
Cu4   O20   S    
Cu10  O39   S    
C30   C160  S    
C73   C81   A    
C85   C150  S    
C4    C75   S    
Cu2   Cu5   S    
C5    O10   A    
C6    O22   A    
C9    C137  A    
C2    O13   A    
C161  H40   S    
C112  C126  A    
C16   H8    S    
Cu3   O3    S    
C159  H31   S    
C177  H71   S    
C83   C99   A    
C106  O46   A    
C173  H67   S    
Cu2   O10   S    
C120  Cl5   S    
C20   H12   S    
Cu11  Cu12  S    
C54   C62   A    
C28   C39   A    
C166  H55   S    
Cu5   O13   S    
C23   C44   A    
C50   C58   A    
C130  C132  A    
C79   C95   A    
C168  H50   S    
C11   C135  A    
C137  C145  A    
C104  O34   A    
C37   H18   S    
C152  C155  A    
C158  H33   S    
C46   C54   A    
C79   Cl19  S    
C151  C156  A    
C18   C111  A    
C86   O5    A    
C167  H53   S    
C1    O17   A    
Cu10  O46   S    
C128  C135  A    
Cu2   O18   S    
C10   C139  A    
C1    C74   S    
C31   C163  S    
C171  H57   S    
C116  C124  A    
C91   O31   A    
C9    C133  A    
C61   Cl9   S    
C123  Cl2   S    
C26   C37   A    
C17   C143  A    
C163  H48   S    
C142  C150  A    
C18   C144  A    
C77   Cl17  S    
C14   H6    S    
Cu12  O35   S    
C50   H26   S    
C154  H2    S    
C75   C83   A    
C175  C176  S    
C53   C103  S    
C77   C93   A    
C12   C142  A    
C58   C108  S    
C47   H23   S    
C180  H78   S    
C48   H24   S    
C13   C116  A    
C169  H62   S    
C92   O32   A    
Cu9   O40   S    
C103  O43   A    
C174  H64   S    
C153  H1    S    
C144  C152  A    
C23   C31   A    
C172  H70   S    
C157  H35   S    
Cu9   Cu10  S    
C70   C78   A    
C140  C148  A    
C141  C149  A    
Cu4   O4    S    
C67   Cl15  S    
C139  C147  A    
C158  C159  S    
C81   C97   A    
C164  H47   S    
Cu5   O5    S    
C165  H44   S    
C168  H52   S    
C179  H82   S    
C43   H16   S    
C65   C73   A    
C124  Cl1   S    
C147  C154  A    
C26   C34   A    
C132  C133  A    
C80   C96   A    
C176  H75   S    
C83   Cl23  S    
C11   C144  A    
C7    O23   A    
Cu8   O24   S    
C32   C40   A    
C80   Cl20  S    
C150  C156  A    
C89   O29   A    
C46   H22   S    
C91   C148  S    
C58   C66   A    
C171  H59   S    
Cu5   O29   S    
C51   C99   A    
C89   C146  S    
C177  H72   S    
C20   C142  A    
C86   C149  S    
Cu7   O15   S    
C84   Cl24  S    
C68   Cl16  S    
C180  H80   S    
C170  H61   S    
C8    O24   A    
C174  H66   S    
C108  O48   A    
C56   C64   A    
C163  C164  S    
C15   C114  A    
C101  O35   A    
Cu9   O48   S    
C3    C76   S    
C26   C98   S    
C45   H21   S    
C160  H42   S    
C57   C107  S    
C51   C59   A    
C159  H29   S    
C17   C112  A    
C47   C55   A    
C162  H36   S    
C19   C110  A    
C61   C69   A    
C3    O16   A    
C48   C56   A    
C113  C131  A    
C1    O14   A    
C114  C132  A    
C10   C134  A    
C175  H76   S    
C7    O12   A    
C103  O33   A    
C38   H17   S    
C55   C101  S    
Cu1   O17   S    
C15   H7    S    
C145  C153  A    
C28   C100  S    
C49   H25   S    
Cu3   O27   S    
C31   C39   A    
C178  H83   S    
C64   C72   A    
C88   O7    A    
C162  H38   S    
Cu12  O34   S    
C20   C109  A    
C114  C122  A    
C155  H3    S    
Cu2   O26   S    
C47   C95   A    
C86   O26   A    
C169  H63   S    
C33   C169  S    
C129  C131  A    
