data_mof_unit_3963.cif
_audit_creation_date              2012-12-10T17:45:32-0500
_audit_creation_method            fapswitch 2.2
_symmetry_space_group_name_H-M    P1
_symmetry_Int_Tables_number       1
_space_group_crystal_system       triclinic
_cell_length_a                    11.518631
_cell_length_b                    10.559337
_cell_length_c                    9.969233
_cell_angle_alpha                 88.700199
_cell_angle_beta                  89.872179
_cell_angle_gamma                 93.020199
_cell_volume                      1210.54600086

loop_
_atom_site_label
_atom_site_type_symbol
_atom_type_description
_atom_site_fract_x
_atom_site_fract_y
_atom_site_fract_z
_atom_type_partial_charge
C1    C     C_R   0.510143 0.259347 0.502780 0.948188
C2    C     C_R   0.522307 0.017826 0.878007 0.332511
C3    C     C_R   0.578779 0.905634 0.870361 -0.161641
C4    C     C_R   0.610644 0.863665 0.745499 -0.171175
C5    C     C_R   0.577630 0.929353 0.627538 0.105058
C6    C     C_R   0.544970 0.054947 0.634686 0.020982
C7    C     C_R   0.543195 0.127573 0.510760 -0.197520
C8    C     C_R   0.584366 0.072394 0.392587 0.328220
C9    C     C_R   0.581786 0.941594 0.385624 -0.199289
C10   C     C_R   0.565520 0.869700 0.503169 -0.193927
C11   C     C_R   0.296103 0.415014 0.139559 0.275636
C12   C     C_R   0.282276 0.500921 0.500207 0.946105
C13   C     C_R   0.191249 0.430530 0.072177 0.243075
C14   C     C_R   0.191578 0.425109 0.933621 -0.292564
C15   C     C_R   0.296308 0.410084 0.867225 -0.016134
C16   C     C_R   0.401908 0.453161 0.929393 0.084895
C17   C     C_R   0.401537 0.455007 0.073397 0.064493
C18   C     C_R   0.594474 0.541422 0.069986 -0.047799
C19   C     C_R   0.594423 0.541465 0.927464 -0.096873
C20   C     C_R   0.523946 0.737495 0.499441 0.891510
C21   C     C_R   0.717835 0.500436 0.499929 0.865345
C22   C     C_1   0.161772 0.501433 0.501105 -0.133518
C23   C     C_1   0.059494 0.501602 0.501815 0.061492
C24   C     C_1   0.940721 0.501337 0.501200 0.057798
C25   C     C_1   0.838408 0.500902 0.500191 -0.127315
C26   C     C_R   0.514146 0.096530 0.764471 -0.171106
H1    H     H_    0.109592 0.406632 0.882497 0.198352
H2    H     H_    0.671666 0.576140 0.873632 0.141236
H3    H     H_    0.479686 0.185466 0.785119 0.195823
H4    H     H_    0.592176 0.847767 0.959481 0.157930
H5    H     H_    0.653714 0.775234 0.740684 0.156259
H6    H     H_    0.593723 0.896838 0.290201 0.194655
H7    H     H_    0.671598 0.576416 0.121871 0.153167
N1    N     N_R   0.498930 0.498800 0.142780 -0.098386
N2    N     N_R   0.498900 0.498720 0.857170 -0.109265
O1    O     O_R   0.500000 0.316780 0.614690 -0.647860
O2    O     O_R   0.499990 0.316750 0.385360 -0.525106
O3    O     O_R   0.334450 0.500030 0.614670 -0.625270
O4    O     O_R   0.334440 0.500000 0.385330 -0.592083
O5    O     O_R   0.500010 0.683250 0.614640 -0.612476
O6    O     O_R   0.500000 0.683220 0.385310 -0.614294
O7    O     O_R   0.665560 0.500000 0.614670 -0.637251
O8    O     O_R   0.665550 0.499970 0.385330 -0.599664
Zn1   Zn    Zn3+2 0.500010 0.500020 0.653130 0.954779
Zn2   Zn    Zn3+2 0.499990 0.499980 0.346870 1.024480
Br1   Br    Br    0.660926 0.168120 0.247845 -0.392856
C27   C     C_1   0.288943 0.307974 0.773291 0.288785
N3    N     N_1   0.277565 0.225783 0.698699 -0.189508
Br2   Br    Br    0.446302 0.058616 0.039809 -0.443367
Br3   Br    Br    0.288517 0.262877 0.249653 -0.356706
Br4   Br    Br    0.044228 0.411825 0.162979 -0.437824

loop_
_geom_bond_atom_site_label_1
_geom_bond_atom_site_label_2
_ccdc_geom_bond_type
C8    C9    A    
C3    H4    S    
C23   C24   S    
O3    Zn1   S    
C6    C7    A    
N2    Zn1   S    
C2    Br2   S    
C1    O2    A    
C14   H1    S    
C11   C13   A    
C9    C10   A    
C27   N3    T    
C14   C15   A    
C15   C27   S    
O4    Zn2   S    
C12   O4    A    
C2    C3    A    
C7    C8    A    
C2    C26   A    
N1    Zn2   S    
C13   Br4   S    
C13   C14   A    
C19   H2    S    
O8    Zn2   S    
C6    C26   A    
O7    Zn1   S    
C5    C10   A    
C19   N2    A    
C20   O6    A    
C18   N1    A    
C16   N2    A    
C12   O3    A    
C5    C6    A    
C20   O5    A    
C18   H7    S    
C8    Br1   S    
O1    Zn1   S    
C4    H5    S    
C17   N1    A    
O2    Zn2   S    
C15   C16   A    
C12   C22   S    
O5    Zn1   S    
C24   C25   T    
C26   H3    S    
C18   C19   A    
C11   Br3   S    
O6    Zn2   S    
C22   C23   T    
C16   C17   A    
C21   C25   S    
C9    H6    S    
C1    C7    S    
C21   O8    A    
C11   C17   A    
C3    C4    A    
C21   O7    A    
C1    O1    A    
C10   C20   S    
C4    C5    A    
