data_mof_unit_4151.cif
_audit_creation_date              2012-10-26T18:47:34-0400
_audit_creation_method            fapswitch 2.2
_symmetry_space_group_name_H-M    P1
_symmetry_Int_Tables_number       1
_space_group_crystal_system       triclinic
_cell_length_a                    10.797093
_cell_length_b                    12.95881
_cell_length_c                    11.786283
_cell_angle_alpha                 99.480502
_cell_angle_beta                  92.751994
_cell_angle_gamma                 92.112142
_cell_volume                      1623.02916883

loop_
_atom_site_label
_atom_site_type_symbol
_atom_type_description
_atom_site_fract_x
_atom_site_fract_y
_atom_site_fract_z
_atom_type_partial_charge
C1    C     C_R   0.504302 0.299839 0.478779 0.538356
C2    C     C_R   0.426926 0.980859 0.636590 0.202318
C3    C     C_R   0.570810 0.128205 0.372373 0.259537
C4    C     C_R   0.429193 0.871798 0.627651 0.259508
C5    C     C_R   0.470565 0.137823 0.554542 -0.151330
C6    C     C_R   0.529397 0.862181 0.445463 -0.151385
C7    C     C_R   0.474522 0.029939 0.548348 -0.009881
C8    C     C_R   0.525444 0.970065 0.451661 -0.009847
C9    C     C_R   0.405774 0.382601 0.024284 0.214821
C10   C     C_R   0.594234 0.617395 0.975715 0.214789
C11   C     C_R   0.406312 0.400127 0.146859 0.342214
C12   C     C_R   0.495686 0.700161 0.521223 0.538372
C13   C     C_R   0.593692 0.599871 0.853141 0.342225
C14   C     C_R   0.538040 0.552843 0.155401 0.348749
C15   C     C_R   0.461962 0.447156 0.844599 0.348803
C16   C     C_R   0.262859 0.501980 0.500909 0.590183
C17   C     C_R   0.737143 0.498026 0.499090 0.590177
C18   C     C_R   0.532815 0.543359 0.033127 -0.046824
C19   C     C_R   0.467190 0.456639 0.966873 -0.046803
C20   C     C_R   0.199866 0.829642 0.383241 0.251169
C21   C     C_R   0.799920 0.170526 0.617055 0.251217
C22   C     C_R   0.144087 0.753775 0.438653 -0.048963
C23   C     C_R   0.871280 0.497397 0.498640 0.019494
C24   C     C_R   0.855706 0.246302 0.561519 -0.049244
C25   C     C_R   0.130253 0.648925 0.384108 -0.034385
C26   C     C_R   0.869736 0.351162 0.616002 -0.034370
C27   C     C_R   0.172168 0.620401 0.272832 -0.076125
C28   C     C_R   0.827992 0.379792 0.727326 -0.075932
C29   C     C_R   0.231891 0.694943 0.218804 -0.119090
C30   C     C_R   0.768256 0.305348 0.781478 -0.119099
C31   C     C_R   0.245739 0.799226 0.273384 -0.086183
C32   C     C_R   0.754223 0.201051 0.726967 -0.086048
C33   C     C_R   0.932896 0.567711 0.439389 0.211449
C34   C     C_R   0.128724 0.502596 0.501348 0.019525
C35   C     C_R   0.067111 0.432248 0.560561 0.211533
C36   C     C_3   0.757360 0.942022 0.285229 -0.232430
C37   C     C_3   0.242739 0.058014 0.714983 -0.232449
C38   C     C_R   0.936784 0.429377 0.559544 -0.081923
C39   C     C_R   0.063219 0.570613 0.440445 -0.081906
C40   C     C_R   0.484384 0.813009 0.532750 -0.022532
C41   C     C_R   0.515593 0.186993 0.467258 -0.022476
C42   C     C_R   0.573078 0.019146 0.363435 0.202357
Cu1   Cu    Cu3+1 0.509250 0.507730 0.615930 1.041858
Cu2   Cu    Cu3+1 0.490750 0.492270 0.384070 1.041795
H1    H     H_    0.290926 0.856270 0.229698 0.116953
H2    H     H_    0.430917 0.184615 0.627401 0.211846
H3    H     H_    0.353147 0.386589 0.716253 0.391274
H4    H     H_    0.646850 0.613413 0.283749 0.391262
H5    H     H_    0.739651 0.689585 0.844493 0.307256
H6    H     H_    0.260360 0.310401 0.155503 0.307264
H7    H     H_    0.350862 0.235911 0.006227 0.326747
H8    H     H_    0.649160 0.764083 0.993772 0.326770
H9    H     H_    0.246626 0.976168 0.386895 0.324615
H10   H     H_    0.753011 0.024044 0.613547 0.324637
H11   H     H_    0.912207 0.668297 0.332429 0.340824
H12   H     H_    0.709037 0.144080 0.770749 0.116980
H13   H     H_    0.087740 0.331301 0.667145 0.340819
H14   H     H_    0.332997 0.757340 0.672418 0.329481
H15   H     H_    0.667025 0.242670 0.327634 0.329471
H16   H     H_    0.607259 0.984841 0.190081 0.289294
H17   H     H_    0.789663 0.889968 0.208939 0.167781
H18   H     H_    0.773730 0.903626 0.361872 0.191539
H19   H     H_    0.812259 0.017675 0.297535 0.182727
H20   H     H_    0.392941 0.015173 0.809985 0.289269
H21   H     H_    0.210531 0.110072 0.791316 0.167811
H22   H     H_    0.187829 0.982369 0.702730 0.182806
H23   H     H_    0.109257 0.776891 0.523374 0.144604
H24   H     H_    0.226284 0.096423 0.638362 0.191482
H25   H     H_    0.890399 0.223104 0.476756 0.144499
H26   H     H_    0.159382 0.540299 0.228490 0.142112
H27   H     H_    0.840917 0.459905 0.771608 0.142076
H28   H     H_    0.266196 0.672073 0.133918 0.126258
H29   H     H_    0.734087 0.328302 0.866406 0.126137
H30   H     H_    0.569037 0.815391 0.372599 0.211871
N1    N     N_R   0.523180 0.519350 0.790130 -0.249602
N2    N     N_R   0.476820 0.480650 0.209870 -0.249616
N3    N     N_2   0.626730 0.959215 0.267075 -0.499655
N4    N     N_2   0.373381 0.040801 0.733006 -0.499648
O1    O     O_R   0.506570 0.354460 0.582000 -0.509233
O2    O     O_3   0.604267 0.637298 0.218315 -0.616399
O3    O     O_3   0.665290 0.661769 0.794849 -0.645127
O4    O     O_3   0.334716 0.338227 0.205150 -0.645141
O5    O     O_3   0.347682 0.293450 0.960404 -0.650386
O6    O     O_3   0.652332 0.706543 0.039596 -0.650371
O7    O     O_3   0.206723 0.932460 0.437702 -0.716022
O8    O     O_3   0.792892 0.067686 0.562659 -0.715983
O9    O     O_3   0.862305 0.634689 0.385519 -0.703384
O10   O     O_3   0.137722 0.365251 0.614388 -0.703416
O11   O     O_3   0.371933 0.825557 0.710065 -0.695800
O12   O     O_R   0.493430 0.645540 0.418000 -0.509239
O13   O     O_3   0.628108 0.174448 0.289979 -0.695843
O14   O     O_R   0.490940 0.341410 0.386200 -0.433601
O15   O     O_R   0.509060 0.658590 0.613800 -0.433599
O16   O     O_R   0.327460 0.506540 0.597900 -0.512646
O17   O     O_R   0.672540 0.493460 0.402100 -0.512671
O18   O     O_R   0.311830 0.493480 0.402100 -0.471990
O19   O     O_R   0.688170 0.506520 0.597900 -0.471941
O20   O     O_3   0.395732 0.362703 0.781686 -0.616379

loop_
_geom_bond_atom_site_label_1
_geom_bond_atom_site_label_2
_ccdc_geom_bond_type
C15   N1    A    
C3    C42   A    
C16   O16   A    
C27   C29   A    
C14   C18   A    
C2    C7    A    
C7    C8    A    
C15   C19   A    
C33   C39   A    
H3    O20   S    
C2    N4    S    
C12   O12   A    
C24   C26   A    
C18   C19   A    
C11   N2    A    
Cu1   O1    S    
C37   H24   S    
C13   O3    S    
Cu1   O16   S    
C3    O13   S    
C34   C35   A    
H5    O3    S    
H8    O6    S    
C16   C34   S    
C9    C19   A    
C13   N1    A    
C23   C33   A    
C22   C25   A    
C37   H21   S    
C17   O17   A    
C14   O2    S    
C36   H19   S    
Cu2   O14   S    
C29   H28   S    
C20   O7    S    
C36   H18   S    
C24   H25   S    
C6    H30   S    
C11   O4    S    
Cu1   N1    S    
C21   C32   A    
H16   N3    S    
C16   O18   A    
C34   C39   A    
C4    C40   A    
C35   C38   A    
H10   O8    S    
C30   H29   S    
C26   C38   S    
H15   O13   S    
C14   N2    A    
C12   C40   S    
C2    C4    A    
Cu1   Cu2   S    
Cu2   O18   S    
C35   O10   S    
C37   H22   S    
C17   C23   S    
C9    C11   A    
C27   H26   S    
C9    O5    S    
C1    C41   S    
C20   C22   A    
C1    O14   A    
C1    O1    A    
C6    C40   A    
C12   O15   A    
C28   H27   S    
C15   O20   S    
C36   H17   S    
H7    O5    S    
Cu2   O12   S    
H6    O4    S    
C5    C7    A    
C4    O11   S    
C5    H2    S    
C5    C41   A    
C21   O8    S    
C3    C41   A    
H20   N4    S    
Cu1   O19   S    
C8    C42   A    
C10   C13   A    
C6    C8    A    
C25   C27   A    
C23   C38   A    
C37   N4    S    
C26   C28   A    
H13   O10   S    
C36   N3    S    
H4    O2    S    
C28   C30   A    
C33   O9    S    
C29   C31   A    
Cu2   O17   S    
C25   C39   S    
C30   C32   A    
C10   C18   A    
C10   O6    S    
Cu1   O15   S    
H11   O9    S    
H14   O11   S    
C22   H23   S    
C42   N3    S    
C31   H1    S    
C21   C24   A    
H9    O7    S    
Cu2   N2    S    
C17   O19   A    
C32   H12   S    
C20   C31   A    
