data_mof_unit_4565.cif
_audit_creation_date              2012-12-11T17:09:28-0500
_audit_creation_method            fapswitch 2.2
_symmetry_space_group_name_H-M    P1
_symmetry_Int_Tables_number       1
_space_group_crystal_system       triclinic
_cell_length_a                    14.804878
_cell_length_b                    6.928826
_cell_length_c                    13.505864
_cell_angle_alpha                 90.00013
_cell_angle_beta                  99.784826
_cell_angle_gamma                 90.00043
_cell_volume                      1365.28321371

loop_
_atom_site_label
_atom_site_type_symbol
_atom_type_description
_atom_site_fract_x
_atom_site_fract_y
_atom_site_fract_z
_atom_type_partial_charge
O1    O     O_R   0.586930 0.505770 0.416350 -0.547731
O2    O     O_R   0.413070 0.005770 0.583650 -0.547760
O3    O     O_R   0.397900 0.173100 0.389630 -0.544105
O4    O     O_R   0.602100 0.673100 0.610370 -0.544102
C1    C     C_R   0.364260 0.345424 0.362849 0.740310
C2    C     C_R   0.635740 0.845425 0.637151 0.740351
O5    O     O_R   0.585280 0.175870 0.404330 -0.518046
O6    O     O_R   0.414720 0.675870 0.595670 -0.518039
O7    O     O_R   0.601790 0.008380 0.598460 -0.529394
O8    O     O_R   0.398210 0.508380 0.401540 -0.529397
C3    C     C_R   0.615074 0.344607 0.383248 0.755365
C4    C     C_R   0.384927 0.844607 0.616753 0.755342
O9    O     O_3   0.505200 0.340120 0.563670 -0.374274
O10   O     O_3   0.494800 0.840120 0.436330 -0.374266
V1    V     V_3+5 0.499040 0.064180 0.488190 1.480017
V2    V     V_3+5 0.500960 0.564180 0.511810 1.480030
C5    C     C_R   0.322238 0.995385 0.760464 -0.017715
C6    C     C_R   0.677731 0.495271 0.239489 -0.017491
C7    C     C_R   0.317970 0.851717 0.686779 -0.211700
C8    C     C_R   0.682034 0.351710 0.313229 -0.211639
C9    C     C_R   0.249268 0.709378 0.684265 0.603313
C10   C     C_R   0.750752 0.209395 0.315763 0.603257
C11   C     C_R   0.184229 0.720403 0.749280 -0.253306
C12   C     C_R   0.815797 0.220430 0.250751 -0.253344
H1    H     H_    0.130654 0.612525 0.743167 0.153117
H2    H     H_    0.869386 0.112579 0.256880 0.153138
C13   C     C_R   0.184199 0.876605 0.816196 -0.175790
C14   C     C_R   0.815805 0.376595 0.183806 -0.175753
C15   C     C_R   0.256661 0.008442 0.822848 0.085931
C16   C     C_R   0.743298 0.508318 0.177103 0.086032
C17   C     C_3   0.255726 0.223512 0.818459 -0.370510
C18   C     C_3   0.744073 0.723387 0.181278 -0.370681
C19   C     C_3   0.328011 0.209084 0.751062 -0.327786
C20   C     C_3   0.671795 0.708966 0.248695 -0.328265
H3    H     H_    0.281910 0.289911 0.892710 0.151817
H4    H     H_    0.717836 0.789449 0.106964 0.151831
H5    H     H_    0.189136 0.281292 0.779285 0.192737
H6    H     H_    0.810614 0.781488 0.220385 0.192762
H7    H     H_    0.395981 0.266119 0.786663 0.154443
H8    H     H_    0.603785 0.765683 0.213040 0.154430
H9    H     H_    0.303884 0.257976 0.672840 0.241937
H10   H     H_    0.695881 0.758194 0.326860 0.241957
C21   C     C_1   0.783467 0.877109 0.782863 -0.178849
C22   C     C_1   0.216533 0.377110 0.217137 -0.178848
C23   C     C_1   0.716197 0.860133 0.716804 -0.166315
C24   C     C_1   0.283802 0.360132 0.283196 -0.166321
O11   O     O_R   0.101720 0.231700 0.098560 -0.537150
O12   O     O_R   0.898280 0.731700 0.901440 -0.537152
O13   O     O_R   0.914700 0.558980 0.095690 -0.540570
O14   O     O_R   0.085300 0.058980 0.904310 -0.540577
C25   C     C_R   0.885513 0.389740 0.117389 0.729562
C26   C     C_R   0.114487 0.889741 0.882611 0.729553
O15   O     O_R   0.102080 0.561590 0.110390 -0.536113
O16   O     O_R   0.897920 0.061590 0.889610 -0.536113
O17   O     O_R   0.086950 0.728940 0.916330 -0.542859
O18   O     O_R   0.913050 0.228940 0.083670 -0.542859
C27   C     C_R   0.136090 0.391908 0.137468 0.733651
C28   C     C_R   0.863910 0.891907 0.862532 0.733652
O19   O     O_3   0.994770 0.394510 0.936380 -0.369784
O20   O     O_3   0.005230 0.894510 0.063620 -0.369778
V3    V     V_3+5 0.000970 0.670520 0.011800 1.427749
V4    V     V_3+5 0.999030 0.170520 0.988200 1.427737
F1    F     F_    0.239818 0.569452 0.613066 -0.707852
F2    F     F_    0.760198 0.069461 0.386960 -0.707784

loop_
_geom_bond_atom_site_label_1
_geom_bond_atom_site_label_2
_ccdc_geom_bond_type
O4    V2    S    
O14   C26   A    
C17   C19   S    
O9    V2    S    
O12   C28   A    
C6    C16   A    
C2    C23   S    
C11   C13   A    
O11   C27   A    
C5    C15   A    
C1    C24   S    
C6    C8    A    
O1    C3    A    
C26   O17   A    
C22   C27   S    
O6    C4    A    
C19   H9    S    
C2    O7    A    
O5    V1    S    
O7    V1    S    
O2    C4    A    
C1    O8    A    
C15   C17   S    
O1    V2    S    
O8    V2    S    
C20   H10   S    
O20   V4    S    
O5    C3    A    
O2    V1    S    
C6    C20   S    
O12   V3    S    
C19   H7    S    
C5    C19   S    
O11   V4    S    
C20   H8    S    
C18   H4    S    
C4    C7    S    
C14   C16   A    
O19   V3    S    
C7    C9    A    
C12   H2    S    
O18   V4    S    
C18   H6    S    
O9    V1    S    
C9    C11   A    
O14   V4    S    
C14   C25   S    
O10   V2    S    
C3    C8    S    
C9    F1    S    
O13   V3    S    
C8    C10   A    
C10   F2    S    
C16   C18   S    
O17   V3    S    
C11   H1    S    
O3    V1    S    
C13   C26   S    
O4    C2    A    
C25   O18   A    
O16   C28   A    
C10   C12   A    
C13   C15   A    
O13   C25   A    
O15   C27   A    
O10   V1    S    
O19   V4    S    
C17   H3    S    
O6    V2    S    
O16   V4    S    
C21   C28   S    
C5    C7    A    
O15   V3    S    
C21   C23   T    
C17   H5    S    
C12   C14   A    
C22   C24   T    
O20   V3    S    
O3    C1    A    
C18   C20   S    
