data_mof_unit_3847.cif
_audit_creation_date              2012-12-10T18:06:39-0500
_audit_creation_method            fapswitch 2.2
_symmetry_space_group_name_H-M    P1
_symmetry_Int_Tables_number       1
_space_group_crystal_system       triclinic
_cell_length_a                    12.615729
_cell_length_b                    13.168171
_cell_length_c                    15.592562
_cell_angle_alpha                 84.010457
_cell_angle_beta                  99.071655
_cell_angle_gamma                 96.984414
_cell_volume                      2529.34504597

loop_
_atom_site_label
_atom_site_type_symbol
_atom_type_description
_atom_site_fract_x
_atom_site_fract_y
_atom_site_fract_z
_atom_type_partial_charge
Br1   Br    Br    0.433747 0.263146 0.311858 -0.589295
C1    C     C_R   0.442581 0.308508 0.508390 0.920880
C2    C     C_R   0.631779 0.404508 0.934127 0.176341
C3    C     C_R   0.543734 0.461081 0.899302 0.094547
C4    C     C_R   0.436284 0.515717 0.336400 0.919254
C5    C     C_R   0.702531 0.381041 0.879763 -0.206383
C6    C     C_R   0.684845 0.411309 0.790778 -0.195137
C7    C     C_R   0.534036 0.498315 0.811852 -0.260733
C8    C     C_R   0.640932 0.941295 0.374248 -0.175901
C9    C     C_R   0.585928 0.800430 0.474566 -0.053280
C10   C     C_R   0.346078 0.162203 0.584502 -0.195510
C11   C     C_R   0.337281 0.058789 0.613257 -0.141588
C12   C     C_R   0.428959 0.492494 0.098720 0.094937
C13   C     C_R   0.395165 0.992434 0.580111 -0.162490
C14   C     C_R   0.457767 0.027811 0.512622 0.050977
C15   C     C_R   0.452323 0.129592 0.474617 0.030926
C16   C     C_R   0.556677 0.691280 0.490416 0.843480
C17   C     C_R   0.523655 0.965406 0.480216 0.082272
C18   C     C_R   0.577070 0.003232 0.407681 0.124516
C19   C     C_R   0.558487 0.098613 0.364586 -0.280741
C20   C     C_R   0.491868 0.158936 0.394618 0.231617
C21   C     C_R   0.535093 0.864983 0.515672 -0.233595
C22   C     C_R   0.644056 0.839198 0.406853 -0.204946
C23   C     C_R   0.333221 0.537187 0.062859 0.178662
C24   C     C_R   0.407552 0.198762 0.518066 -0.084652
C25   C     C_R   0.140102 0.659237 0.605891 -0.297010
C26   C     C_R   0.754585 0.376686 0.398800 -0.007573
C27   C     C_R   0.847228 0.354763 0.371254 -0.322234
C28   C     C_R   0.564594 0.486763 0.663413 0.845904
C29   C     C_R   0.946673 0.406727 0.402845 0.232899
C30   C     C_R   0.952378 0.476481 0.468771 -0.024303
C31   C     C_R   0.854026 0.498290 0.491324 0.135162
C32   C     C_R   0.048800 0.525777 0.513078 -0.047924
C33   C     C_R   0.044254 0.605347 0.567984 0.107846
C34   C     C_R   0.492911 0.456509 0.043834 0.069209
C35   C     C_R   0.944712 0.628684 0.585276 0.155044
C36   C     C_R   0.851623 0.571180 0.549597 -0.235832
C37   C     C_R   0.150409 0.496867 0.508305 -0.017680
C38   C     C_R   0.237634 0.631906 0.591967 0.008019
C39   C     C_R   0.398619 0.524901 0.242822 -0.033606
C40   C     C_R   0.598791 0.468490 0.756749 -0.054010
C41   C     C_R   0.270197 0.573017 0.117514 -0.202296
C42   C     C_R   0.303032 0.567077 0.207347 -0.215212
C43   C     C_R   0.461578 0.490679 0.188316 -0.203491
C44   C     C_3   0.844900 0.758839 0.633403 -0.777765
C45   C     C_R   0.469080 0.480455 0.952923 0.067709
C46   C     C_3   0.052531 0.471127 0.289807 -0.780369
C47   C     C_R   0.370515 0.521092 0.918546 -0.229189
C48   C     C_R   0.303133 0.547609 0.972961 -0.237888
C49   C     C_R   0.579611 0.397383 0.076726 -0.214745
C50   C     C_R   0.647242 0.371288 0.022351 -0.243703
H1    H     H_    0.228876 0.579357 0.944425 0.143953
H2    H     H_    0.312485 0.673846 0.618998 0.125694
H3    H     H_    0.475232 0.550257 0.784585 0.150432
H4    H     H_    0.140491 0.722183 0.645432 0.155315
H5    H     H_    0.162874 0.430520 0.478257 0.174138
H6    H     H_    0.677140 0.339105 0.372317 0.176997
H7    H     H_    0.841156 0.301130 0.322089 0.150602
H8    H     H_    0.777228 0.583237 0.568740 0.229843
H9    H     H_    0.736138 0.387738 0.748609 0.162986
H10   H     H_    0.712675 0.325968 0.049738 0.146319
H11   H     H_    0.196782 0.607139 0.090687 0.139579
H12   H     H_    0.769358 0.336884 0.905615 0.138665
H13   H     H_    0.255234 0.597239 0.248690 0.163008
H14   H     H_    0.538241 0.465314 0.216913 0.168910
H15   H     H_    0.341711 0.530698 0.849607 0.149376
H16   H     H_    0.595153 0.367075 0.143949 0.163837
H17   H     H_    0.974417 0.687580 0.706815 0.221033
H18   H     H_    0.863944 0.828745 0.669409 0.241762
H19   H     H_    0.778438 0.709363 0.660946 0.223035
H20   H     H_    0.818896 0.783039 0.563593 0.260195
H21   H     H_    0.036315 0.320928 0.343722 0.234739
H22   H     H_    0.121106 0.453812 0.259265 0.254602
H23   H     H_    0.684499 0.789088 0.374953 0.160233
H24   H     H_    0.071378 0.548662 0.314001 0.249020
H25   H     H_    0.979517 0.469987 0.239455 0.238663
H26   H     H_    0.590047 0.123460 0.304146 0.169624
H27   H     H_    0.681886 0.969610 0.318989 0.137439
H28   H     H_    0.498503 0.831718 0.571462 0.130833
H29   H     H_    0.309535 0.214388 0.617445 0.156305
H30   H     H_    0.387457 0.914062 0.607962 0.121069
H31   H     H_    0.290112 0.030863 0.664848 0.141322
N1    N     N_R   0.239390 0.551900 0.544730 -0.112697
N2    N     N_R   0.759950 0.448600 0.455730 -0.123434
N3    N     N_2   0.940209 0.705014 0.643220 -0.308428
N4    N     N_2   0.035935 0.394411 0.361054 -0.325435
O1    O     O_R   0.374950 0.371210 0.521360 -0.616311
O2    O     O_R   0.542050 0.338030 0.492790 -0.596914
O3    O     O_R   0.368720 0.526070 0.390200 -0.604522
O4    O     O_R   0.535820 0.492890 0.361630 -0.608086
O5    O     O_R   0.457950 0.661970 0.507210 -0.613315
O6    O     O_R   0.625050 0.628790 0.478640 -0.639376
O7    O     O_R   0.464180 0.507110 0.638370 -0.618941
O8    O     O_R   0.631280 0.473930 0.609800 -0.639030
Zn1   Zn    Zn3+2 0.388420 0.522150 0.519080 0.947170
Zn2   Zn    Zn3+2 0.611580 0.477850 0.480920 0.938667

loop_
_geom_bond_atom_site_label_1
_geom_bond_atom_site_label_2
_ccdc_geom_bond_type
C14   C17   A    
O2    Zn2   S    
Br1   C20   S    
C15   C20   A    
C15   C24   A    
C37   N1    A    
C44   H20   S    
C23   C41   A    
C18   C19   A    
C16   O5    A    
C3    C7    A    
C2    C5    A    
C25   H4    S    
C3    C45   A    
C9    C21   A    
C38   H2    S    
C19   H26   S    
C26   N2    A    
C21   H28   S    
C12   C34   A    
C29   C30   A    
C25   C38   A    
C10   C24   A    
C9    C16   S    
C14   C15   A    
O6    Zn2   S    
C17   C18   A    
N2    Zn2   S    
C8    C18   A    
C39   C42   A    
O1    Zn1   S    
C30   C32   A    
C1    O2    A    
C29   N4    S    
C49   H16   S    
C41   H11   S    
C4    O4    A    
O7    Zn1   S    
H17   N3    S    
C43   H14   S    
C16   O6    A    
C25   C33   A    
C42   H13   S    
C49   C50   A    
C31   N2    A    
C45   C47   A    
C44   H18   S    
C46   N4    S    
C7    C40   A    
C46   H22   S    
C26   H6    S    
C7    H3    S    
C2    C50   A    
C8    C22   A    
C12   C23   A    
C5    H12   S    
O3    Zn1   S    
C44   N3    S    
C30   C31   A    
C48   H1    S    
N1    Zn1   S    
C34   C49   A    
C32   C33   A    
C11   H31   S    
C1    O1    A    
C31   C36   A    
O8    Zn2   S    
C36   H8    S    
C47   C48   A    
C11   C13   A    
C35   N3    S    
C41   C42   A    
C22   H23   S    
C2    C3    A    
C6    H9    S    
C23   C48   A    
C35   C36   A    
C28   C40   S    
C44   H19   S    
C17   C21   A    
C46   H24   S    
C46   H25   S    
H21   N4    S    
C10   C11   A    
O4    Zn2   S    
C5    C6    A    
C27   H7    S    
C9    C22   A    
C32   C37   A    
C27   C29   A    
C38   N1    A    
C28   O7    A    
C50   H10   S    
C28   O8    A    
C1    C24   S    
C33   C35   A    
C8    H27   S    
C6    C40   A    
C10   H29   S    
O5    Zn1   S    
C39   C43   A    
C37   H5    S    
C19   C20   A    
C4    C39   S    
C26   C27   A    
C13   C14   A    
C13   H30   S    
C47   H15   S    
C34   C45   A    
C12   C43   A    
C4    O3    A    
