data_mof_unit_4443.cif
_audit_creation_date              2012-12-10T18:33:30-0500
_audit_creation_method            fapswitch 2.2
_symmetry_space_group_name_H-M    P1
_symmetry_Int_Tables_number       1
_space_group_crystal_system       triclinic
_cell_length_a                    8.703046
_cell_length_b                    15.132964
_cell_length_c                    13.895795
_cell_angle_alpha                 88.890397
_cell_angle_beta                  98.51127
_cell_angle_gamma                 90.783245
_cell_volume                      1809.51333508

loop_
_atom_site_label
_atom_site_type_symbol
_atom_type_description
_atom_site_fract_x
_atom_site_fract_y
_atom_site_fract_z
_atom_type_partial_charge
C1    C     C_R   0.502016 0.329368 0.501465 0.814170
C2    C     C_R   0.495860 0.669676 0.498624 0.846609
C3    C     C_R   0.629450 0.531757 0.119428 -0.272916
C4    C     C_R   0.402437 0.442453 0.883714 -0.268942
C5    C     C_R   0.625053 0.532908 0.220288 -0.002104
C6    C     C_R   0.401710 0.445109 0.782452 0.013349
C7    C     C_R   0.376444 0.464805 0.197885 0.662576
C8    C     C_R   0.600543 0.554431 0.798539 0.665586
C9    C     C_R   0.373591 0.467541 0.095975 -0.366081
C10   C     C_R   0.597044 0.557326 0.899937 -0.363268
C11   C     C_R   0.501624 0.499546 0.054498 0.107778
C12   C     C_R   0.500450 0.499597 0.945097 0.101469
C13   C     C_R   0.203569 0.499641 0.474858 0.885812
C14   C     C_R   0.796448 0.499663 0.525106 0.880865
C15   C     C_2   0.037271 0.499604 0.461080 -0.340730
C16   C     C_2   0.962774 0.498621 0.538661 -0.379913
C17   C     C_R   0.472834 0.089760 0.586741 0.426726
C18   C     C_R   0.367356 0.901873 0.428524 0.412815
C19   C     C_R   0.498950 0.181284 0.591225 0.091915
C20   C     C_R   0.375235 0.809427 0.427795 0.077019
C21   C     C_R   0.497884 0.231755 0.503761 -0.150037
C22   C     C_R   0.486985 0.765466 0.495185 -0.131941
C23   C     C_R   0.487651 0.187563 0.415085 -0.257423
C24   C     C_R   0.591578 0.813435 0.560805 -0.239006
C25   C     C_R   0.477645 0.096137 0.412206 -0.188583
C26   C     C_R   0.587384 0.904901 0.559291 -0.194055
C27   C     C_R   0.471408 0.046620 0.497412 -0.015989
C28   C     C_R   0.475504 0.949781 0.494038 -0.017803
Cu1   Cu    Cu3+1 0.500000 0.499990 0.596430 0.986220
Cu2   Cu    Cu3+1 0.500000 0.500010 0.403570 0.991248
H1    H     H_    0.976166 0.500789 0.386941 0.179668
H2    H     H_    0.024242 0.496903 0.612661 0.162016
H3    H     H_    0.490445 0.223540 0.347343 0.174820
H4    H     H_    0.678368 0.779952 0.612263 0.179486
H5    H     H_    0.476825 0.063891 0.343232 0.188402
H6    H     H_    0.672035 0.940947 0.609226 0.189491
H7    H     H_    0.733716 0.555749 0.093479 0.149788
H8    H     H_    0.327048 0.394862 0.912841 0.146366
H9    H     H_    0.723318 0.560011 0.267685 0.154804
H10   H     H_    0.323695 0.401832 0.736709 0.156100
H11   H     H_    0.269015 0.446108 0.050199 0.133117
H12   H     H_    0.669295 0.605475 0.942166 0.144236
N1    N     N_R   0.500000 0.500020 0.258690 -0.201901
N2    N     N_R   0.500000 0.499980 0.741310 -0.204605
O1    O     O_R   0.500010 0.371450 0.581430 -0.562632
O2    O     O_R   0.499990 0.628550 0.418570 -0.560737
O3    O     O_R   0.500010 0.371460 0.418560 -0.590488
O4    O     O_R   0.499990 0.628540 0.581440 -0.546253
O5    O     O_R   0.274840 0.499990 0.562640 -0.601217
O6    O     O_R   0.725160 0.500010 0.437360 -0.598358
O7    O     O_R   0.274840 0.500000 0.399770 -0.517820
O8    O     O_R   0.725160 0.500000 0.600230 -0.565980
O9    O     O_3   0.461727 0.042915 0.672459 -0.592588
C29   C     C_3   0.308417 0.009853 0.672795 0.082049
H13   H     H_    0.311639 0.963496 0.736002 0.178748
H14   H     H_    0.266697 0.970188 0.607764 0.109478
C30   C     C_3   0.192339 0.083290 0.684150 -0.373294
H15   H     H_    0.230478 0.118585 0.753107 0.251985
H16   H     H_    0.187364 0.131646 0.622618 0.209272
C31   C     C_3   0.029160 0.045327 0.685406 -0.901986
H17   H     H_    0.987526 0.011341 0.616064 0.244698
H18   H     H_    0.947940 0.099643 0.693882 0.279745
H19   H     H_    0.028769 0.997622 0.747136 0.261212
O10   O     O_3   0.255833 0.944640 0.363273 -0.597717
C32   C     C_3   0.126029 0.963205 0.409631 0.048383
H20   H     H_    0.145903 0.027178 0.447819 0.149321
H21   H     H_    0.102557 0.910359 0.463041 0.132546
C33   C     C_3   0.981827 0.970790 0.332695 -0.292249
H22   H     H_    0.001940 0.021742 0.277233 0.231374
H23   H     H_    0.959376 0.906565 0.295451 0.246183
C34   C     C_3   0.839255 0.995179 0.378131 -0.928068
H24   H     H_    0.815620 0.943759 0.432258 0.266427
H25   H     H_    0.736681 0.999684 0.320453 0.263393
H26   H     H_    0.857403 0.060002 0.414515 0.257715
I1    I     I_    0.552186 0.232975 0.734843 -0.379234
I2    I     I_    0.207605 0.739144 0.329019 -0.355570
O11   O     O_3   0.247865 0.433818 0.236120 -0.590326
C35   C     C_3   0.220884 0.343375 0.215843 0.030078
H27   H     H_    0.331276 0.305657 0.222227 0.125441
H28   H     H_    0.156044 0.336219 0.141139 0.140601
C36   C     C_3   0.122126 0.304443 0.288896 -0.293485
H29   H     H_    0.185862 0.311163 0.363878 0.218315
H30   H     H_    0.011968 0.341768 0.283834 0.218429
C37   C     C_3   0.083886 0.207114 0.270270 -0.928757
H31   H     H_    0.015469 0.198916 0.196862 0.260877
H32   H     H_    0.013979 0.181406 0.325573 0.258027
H33   H     H_    0.192037 0.168089 0.275718 0.270290
O12   O     O_3   0.696672 0.611502 0.755046 -0.594566
C38   C     C_3   0.855220 0.599186 0.794232 0.033328
H34   H     H_    0.918178 0.581091 0.733816 0.172170
H35   H     H_    0.876811 0.544853 0.850013 0.119256
C39   C     C_3   0.925388 0.685790 0.836597 -0.366038
H36   H     H_    0.910753 0.738438 0.779151 0.224952
H37   H     H_    0.863795 0.706237 0.896918 0.220984
C40   C     C_3   0.098134 0.675946 0.875086 -0.874381
H38   H     H_    0.115430 0.624811 0.934045 0.260998
H39   H     H_    0.145967 0.739823 0.904896 0.263025
H40   H     H_    0.162750 0.656916 0.815554 0.255284

loop_
_geom_bond_atom_site_label_1
_geom_bond_atom_site_label_2
_ccdc_geom_bond_type
Cu2   O7    S    
C1    C21   S    
C10   H12   S    
C40   H38   S    
C37   H33   S    
C18   O10   S    
C36   H29   S    
C40   H40   S    
Cu1   O5    S    
O11   C35   S    
C2    O2    A    
C31   H19   S    
C19   C21   A    
C24   C26   A    
C35   H28   S    
C30   H16   S    
C32   H21   S    
C15   C16   D    
C20   I2    S    
C31   H18   S    
C13   O7    A    
C14   O8    A    
C33   H22   S    
C23   H3    S    
C2    C22   S    
C14   C16   S    
C7    N1    A    
C4    C12   A    
C7    O11   S    
Cu2   O6    S    
C6    N2    A    
C36   H30   S    
C21   C23   A    
C29   H14   S    
Cu1   O4    S    
C17   C27   A    
Cu2   O3    S    
C6    H10   S    
C18   C28   A    
C37   H31   S    
C4    C6    A    
C34   H25   S    
C35   H27   S    
C1    O3    A    
C30   C31   S    
C2    O4    A    
O9    C29   S    
C39   C40   S    
C24   H4    S    
Cu1   O1    S    
C31   H17   S    
C8    O12   S    
Cu1   Cu2   S    
C32   C33   S    
C39   H37   S    
C38   C39   S    
C9    C11   A    
C10   C12   A    
C25   H5    S    
C13   O5    A    
C26   H6    S    
C20   C22   A    
C13   C15   S    
Cu1   N2    S    
C25   C27   A    
C22   C24   A    
Cu2   N1    S    
C38   H35   S    
C17   O9    S    
C36   C37   S    
C7    C9    A    
C29   H13   S    
C26   C28   A    
Cu2   O2    S    
C8    N2    A    
C37   H32   S    
C3    C5    A    
C34   H26   S    
C11   C12   S    
C40   H39   S    
C15   H1    S    
C16   H2    S    
C9    H11   S    
O10   C32   S    
C5    H9    S    
C34   H24   S    
C35   C36   S    
C1    O1    A    
C30   H15   S    
C14   O6    A    
C33   C34   S    
C19   I1    S    
C39   H36   S    
C17   C19   A    
C18   C20   A    
C23   C25   A    
C5    N1    A    
C3    C11   A    
O12   C38   S    
C3    H7    S    
C8    C10   A    
C32   H20   S    
C27   C28   S    
C33   H23   S    
C38   H34   S    
C4    H8    S    
Cu1   O8    S    
C29   C30   S    
