data_mof_unit_1760.cif
_audit_creation_date              2012-12-10T17:33:43-0500
_audit_creation_method            fapswitch 2.2
_symmetry_space_group_name_H-M    P1
_symmetry_Int_Tables_number       1
_space_group_crystal_system       triclinic
_cell_length_a                    11.704099
_cell_length_b                    12.388625
_cell_length_c                    13.118923
_cell_angle_alpha                 117.014599
_cell_angle_beta                  76.722951
_cell_angle_gamma                 101.707223
_cell_volume                      1638.67005738

loop_
_atom_site_label
_atom_site_type_symbol
_atom_type_description
_atom_site_fract_x
_atom_site_fract_y
_atom_site_fract_z
_atom_type_partial_charge
C1    C     C_R   0.504040 0.855343 0.286201 0.768871
C2    C     C_R   0.461495 0.227749 0.837884 -0.081010
C3    C     C_R   0.534173 0.817391 0.074497 0.150594
C4    C     C_R   0.547323 0.734746 0.958702 -0.107089
C5    C     C_R   0.524351 0.610832 0.927335 -0.224348
C6    C     C_R   0.475095 0.565514 0.011161 0.068426
C7    C     C_R   0.441766 0.650105 0.127347 0.020950
C8    C     C_R   0.452158 0.438589 0.981362 0.037700
C9    C     C_R   0.383400 0.396717 0.063229 0.110340
C10   C     C_R   0.334293 0.481455 0.170890 -0.212409
C11   C     C_R   0.357013 0.606288 0.201201 0.129204
C12   C     C_R   0.715857 0.000122 0.499657 0.817306
C13   C     C_R   0.495330 0.352027 0.871449 -0.241587
C14   C     C_R   0.396025 0.186529 0.919525 -0.236375
C15   C     C_R   0.490696 0.774899 0.162372 -0.167002
C16   C     C_R   0.727726 0.387991 0.405398 0.069263
C17   C     C_R   0.331307 0.757175 0.635265 -0.004053
C18   C     C_R   0.291014 0.665279 0.671939 -0.234381
C19   C     C_R   0.354043 0.565837 0.632607 0.172704
C20   C     C_R   0.460818 0.557305 0.552013 -0.065776
C21   C     C_R   0.500819 0.657405 0.519420 0.222961
C22   C     C_R   0.533421 0.457986 0.503534 -0.062315
C23   C     C_R   0.483856 0.145150 0.714240 0.810218
C24   C     C_R   0.653920 0.481738 0.460561 0.038883
C25   C     C_R   0.695480 0.595458 0.460370 -0.270465
C26   C     C_R   0.614897 0.658000 0.452686 0.206521
C27   C     C_R   0.493386 0.336712 0.492047 -0.038259
C28   C     C_R   0.680459 0.269263 0.388796 0.375447
C29   C     C_R   0.284085 0.000165 0.500763 0.804733
C30   C     C_1   0.837771 0.000375 0.499319 -0.189318
C31   C     C_1   0.940192 0.999991 0.499427 0.000814
C32   C     C_1   0.059833 0.999465 0.499926 0.003342
C33   C     C_1   0.162225 0.999417 0.500433 -0.186151
C34   C     C_R   0.358255 0.270231 0.032771 0.164205
Cu1   Cu    Cu3+1 0.526510 0.098270 0.475420 0.921975
Cu2   Cu    Cu3+1 0.473490 0.901730 0.524580 0.924092
H1    H     H_    0.370555 0.089890 0.894786 0.155416
H2    H     H_    0.786987 0.615109 0.427250 0.159025
H3    H     H_    0.404030 0.311274 0.522838 0.148872
H4    H     H_    0.281100 0.833868 0.669388 0.149253
H5    H     H_    0.210897 0.673243 0.734540 0.161472
H6    H     H_    0.271925 0.451006 0.230200 0.191320
H7    H     H_    0.554694 0.379015 0.808953 0.155877
H8    H     H_    0.539862 0.553339 0.835683 0.137331
H9    H     H_    0.580088 0.766917 0.891900 0.158800
N1    N     N_R   0.566700 0.246290 0.438210 -0.204766
N2    N     N_R   0.434010 0.754320 0.561170 -0.202025
O1    O     O_R   0.533340 0.972510 0.318140 -0.592716
O2    O     O_R   0.488570 0.806530 0.359650 -0.581100
O3    O     O_R   0.685190 0.083000 0.479260 -0.575120
O4    O     O_R   0.640410 0.917020 0.520770 -0.562465
O5    O     O_R   0.511430 0.193470 0.640350 -0.578547
O6    O     O_R   0.466660 0.027490 0.681860 -0.579608
O7    O     O_R   0.359590 0.082980 0.479230 -0.576821
O8    O     O_R   0.314810 0.917000 0.520740 -0.596576
N3    N     N_3   0.849966 0.409569 0.359846 -0.607879
H10   H     H_    0.893319 0.476943 0.426843 0.226815
H11   H     H_    0.855307 0.438066 0.294949 0.223988
N4    N     N_3   0.313965 0.486601 0.689262 -0.596038
H12   H     H_    0.262171 0.409994 0.638419 0.216020
H13   H     H_    0.385131 0.463695 0.708222 0.223879
C35   C     C_3   0.633219 0.652826 0.332911 -0.753852
H14   H     H_    0.695072 0.585991 0.269713 0.190682
H15   H     H_    0.549763 0.617031 0.296559 0.237242
H16   H     H_    0.674202 0.741206 0.332256 0.238252
N5    N     N_3   0.290767 0.226466 0.115236 -0.613718
H17   H     H_    0.341481 0.171166 0.123364 0.224762
H18   H     H_    0.215350 0.172046 0.081846 0.221198
N6    N     N_3   0.564033 0.943439 0.097995 -0.598850
H19   H     H_    0.641006 0.975919 0.134725 0.230180
H20   H     H_    0.493968 0.992493 0.152722 0.243976
N7    N     N_3   0.276356 0.681785 0.295203 -0.576976
H21   H     H_    0.281195 0.767355 0.296348 0.218421
H22   H     H_    0.293789 0.689980 0.373153 0.261591
C36   C     C_3   0.759579 0.170327 0.313713 -0.755142
H23   H     H_    0.716007 0.078332 0.295708 0.244967
H24   H     H_    0.790981 0.172909 0.228158 0.201535
H25   H     H_    0.837579 0.185050 0.355253 0.233311

loop_
_geom_bond_atom_site_label_1
_geom_bond_atom_site_label_2
_ccdc_geom_bond_type
C16   C28   A    
N5    H18   S    
C21   C26   A    
C8    C13   A    
C10   H6    S    
C19   C20   A    
C34   N5    S    
C7    C11   A    
C28   N1    A    
C3    N6    S    
C5    C6    A    
C29   O7    A    
C29   C33   S    
N3    H10   S    
Cu2   N2    S    
C18   C19   A    
N6    H20   S    
C2    C13   A    
C35   H15   S    
Cu2   O6    S    
Cu1   Cu2   S    
C27   H3    S    
C8    C9    A    
C1    C15   S    
C9    C10   A    
C7    C15   A    
N5    H17   S    
N4    H12   S    
C16   C24   A    
Cu1   O7    S    
Cu1   O1    S    
C23   O6    A    
C4    H9    S    
N4    H13   S    
C24   C25   A    
N7    H22   S    
C18   H5    S    
C11   N7    S    
N7    H21   S    
C6    C8    A    
C29   O8    A    
C19   N4    S    
C25   C26   A    
C17   H4    S    
C36   H23   S    
C16   N3    S    
C35   H14   S    
C25   H2    S    
C31   C32   S    
C2    C23   S    
Cu1   O3    S    
C17   C18   A    
C36   H24   S    
Cu2   O4    S    
C27   N1    A    
C5    H8    S    
C20   C22   A    
C22   C27   A    
C9    C34   A    
C22   C24   A    
C3    C4    A    
C13   H7    S    
C12   O4    A    
C3    C15   A    
C35   H16   S    
C12   C30   S    
C17   N2    A    
C4    C5    A    
C14   C34   A    
C12   O3    A    
C1    O1    A    
C6    C7    A    
C32   C33   T    
C26   C35   S    
Cu2   O8    S    
C14   H1    S    
Cu1   N1    S    
C23   O5    A    
C30   C31   T    
N3    H11   S    
N6    H19   S    
C2    C14   A    
C36   H25   S    
C10   C11   A    
C20   C21   A    
Cu1   O5    S    
C28   C36   S    
C1    O2    A    
Cu2   O2    S    
C21   N2    A    
