data_mof_unit_1013.cif
_audit_creation_date              2012-12-10T17:05:16-0500
_audit_creation_method            fapswitch 2.2
_symmetry_space_group_name_H-M    P1
_symmetry_Int_Tables_number       1
_space_group_crystal_system       triclinic
_cell_length_a                    10.098378
_cell_length_b                    10.733392
_cell_length_c                    15.300151
_cell_angle_alpha                 90.629967
_cell_angle_beta                  68.10463
_cell_angle_gamma                 90.542887
_cell_volume                      1538.63722735

loop_
_atom_site_label
_atom_site_type_symbol
_atom_type_description
_atom_site_fract_x
_atom_site_fract_y
_atom_site_fract_z
_atom_type_partial_charge
C1    C     C_R   0.499913 0.737101 0.501321 0.919482
C2    C     C_R   0.743025 0.479329 0.024158 0.126666
C3    C     C_R   0.603856 0.437046 0.078735 0.098786
C4    C     C_R   0.410581 0.496887 0.676312 0.868802
C5    C     C_R   0.834699 0.521281 0.068455 -0.211992
C6    C     C_R   0.787173 0.525569 0.166520 -0.201510
C7    C     C_R   0.556534 0.447295 0.176682 -0.231661
C8    C     C_2   0.617230 0.067623 0.489793 -0.164236
C9    C     C_2   0.506881 0.131236 0.485308 -0.311888
C10   C     C_2   0.619195 0.933445 0.484483 -0.163362
C11   C     C_2   0.497518 0.868969 0.507633 -0.317154
C12   C     C_R   0.438057 0.414978 0.902187 0.043783
C13   C     C_2   0.086339 0.405633 0.473937 0.049108
C14   C     C_2   0.928808 0.401674 0.496540 -0.063907
C15   C     C_R   0.501290 0.262851 0.496966 0.945871
C16   C     C_R   0.589666 0.499516 0.323606 0.872534
C17   C     C_R   0.358454 0.466440 0.776434 -0.101614
C18   C     C_R   0.646454 0.491104 0.220783 -0.061960
C19   C     C_R   0.201219 0.346089 0.909106 -0.021908
C20   C     C_R   0.232363 0.399120 0.819911 -0.195549
C21   C     C_R   0.452539 0.482895 0.822188 -0.260479
C22   C     C_3   0.205373 0.085738 0.050758 -0.756402
C23   C     C_R   0.306488 0.351816 0.951212 0.052099
C24   C     C_2   0.166515 0.296677 0.421540 0.418403
C25   C     C_3   0.968220 0.633274 0.370835 -0.713530
C26   C     C_2   0.057282 0.289954 0.955319 0.389445
C27   C     C_2   0.757231 0.419790 0.778150 0.406675
C28   C     C_R   0.549409 0.417353 0.937574 -0.032856
C29   C     C_R   0.511805 0.394664 0.034126 0.043682
C30   C     C_R   0.385032 0.327874 0.082292 -0.266292
C31   C     C_R   0.288302 0.297928 0.039338 0.165683
C32   C     C_R   0.695591 0.443756 0.881542 -0.025049
C33   C     C_R   0.789429 0.477236 0.926216 -0.155983
H1    H     H_    0.942554 0.551552 0.027279 0.135182
H2    H     H_    0.899579 0.500764 0.884630 0.181157
H3    H     H_    0.158279 0.387923 0.784161 0.208996
H4    H     H_    0.542020 0.545854 0.791808 0.162017
H5    H     H_    0.364441 0.289936 0.151325 0.172213
H6    H     H_    0.139031 0.217210 0.158051 0.228175
H7    H     H_    0.109763 0.026630 0.085950 0.240302
H8    H     H_    0.296419 0.048027 0.066178 0.242997
H9    H     H_    0.230908 0.081752 0.973577 0.259002
H10   H     H_    0.114116 0.206342 0.430469 0.012122
H11   H     H_    0.868074 0.684129 0.510487 0.239858
H12   H     H_    0.708225 0.113853 0.497876 0.165116
H13   H     H_    0.042644 0.714084 0.351770 0.211446
H14   H     H_    0.874578 0.655734 0.352801 0.246705
H15   H     H_    0.024413 0.551040 0.329193 0.232836
H16   H     H_    0.001356 0.296376 0.030845 0.110319
H17   H     H_    0.698937 0.364115 0.744690 0.085152
H18   H     H_    0.420120 0.087811 0.470421 0.158763
H19   H     H_    0.722065 0.887590 0.463423 0.166151
H20   H     H_    0.393047 0.911797 0.533540 0.151954
H21   H     H_    0.082376 0.561716 0.545965 0.208935
H22   H     H_    0.877778 0.310962 0.503425 0.098889
H23   H     H_    0.447103 0.426460 0.219588 0.200229
H24   H     H_    0.858776 0.558889 0.199657 0.150912
N1    N     N_2   0.148330 0.498670 0.499030 -0.171285
N2    N     N_2   0.852680 0.498640 0.499000 -0.017727
N3    N     N_2   0.176091 0.212401 0.085469 -0.339992
N4    N     N_2   0.924076 0.610201 0.470668 -0.248824
O1    O     O_R   0.386950 0.680940 0.500010 -0.616416
O2    O     O_2   0.997256 0.238406 0.908629 -0.565602
O3    O     O_2   0.874844 0.460160 0.729327 -0.600737
O4    O     O_R   0.613110 0.680900 0.499990 -0.622225
O5    O     O_R   0.322330 0.500030 0.632270 -0.605274
O6    O     O_R   0.548480 0.499990 0.632240 -0.608546
O7    O     O_R   0.386890 0.319100 0.500010 -0.576745
O8    O     O_R   0.613050 0.319060 0.499990 -0.628835
O9    O     O_R   0.451520 0.500010 0.367760 -0.557478
O10   O     O_R   0.677670 0.499970 0.367730 -0.622631
O11   O     O_2   0.287267 0.307087 0.363409 -0.577388
Zn1   Zn    Zn3+2 0.349000 0.500030 0.500020 1.002146
Zn2   Zn    Zn3+2 0.651000 0.499970 0.499980 0.944440

loop_
_geom_bond_atom_site_label_1
_geom_bond_atom_site_label_2
_ccdc_geom_bond_type
C31   N3    S    
O10   Zn2   S    
C1    O4    A    
C26   O2    D    
O1    Zn1   S    
C29   C30   A    
C16   O9    A    
H11   N4    S    
C4    O6    A    
C25   H14   S    
C19   C23   A    
C19   C20   A    
C1    C11   S    
C27   H17   S    
C30   C31   A    
C7    C18   A    
C22   H7    S    
C32   C33   A    
O9    Zn1   S    
C27   O3    D    
C14   H22   S    
C9    C15   S    
C10   H19   S    
O8    Zn2   S    
O6    Zn2   S    
C25   N4    S    
C13   C14   S    
C5    H1    S    
C4    O5    A    
C14   N2    D    
C6    H24   S    
C30   H5    S    
C11   H20   S    
C22   H9    S    
C16   O10   A    
C7    H23   S    
C12   C28   A    
C27   C32   S    
C6    C18   A    
H6    N3    S    
C25   H13   S    
C2    C33   A    
C8    C10   S    
C28   C29   A    
C33   H2    S    
C2    C3    A    
C3    C7    A    
C25   H15   S    
C22   N3    S    
C5    C6    A    
C15   O8    A    
N2    N4    S    
C2    C5    A    
C10   C11   D    
C15   O7    A    
N2    Zn2   S    
C22   H8    S    
C28   C32   A    
C17   C20   A    
C4    C17   S    
C24   O11   D    
C1    O1    A    
C16   C18   S    
H21   N1    S    
C26   H16   S    
N1    Zn1   S    
C3    C29   A    
C19   C26   S    
C24   H10   S    
C20   H3    S    
C12   C23   A    
C13   N1    D    
O7    Zn1   S    
C8    H12   S    
O5    Zn1   S    
C21   H4    S    
C12   C21   A    
C17   C21   A    
O4    Zn2   S    
C13   C24   S    
C23   C31   A    
C8    C9    D    
C9    H18   S    
