data_mof_unit_1391.cif
_audit_creation_date              2012-12-10T17:17:32-0500
_audit_creation_method            fapswitch 2.2
_symmetry_space_group_name_H-M    P1
_symmetry_Int_Tables_number       1
_space_group_crystal_system       triclinic
_cell_length_a                    10.189522
_cell_length_b                    10.660226
_cell_length_c                    12.525818
_cell_angle_alpha                 91.043399
_cell_angle_beta                  109.212805
_cell_angle_gamma                 95.652723
_cell_volume                      1276.70180168

loop_
_atom_site_label
_atom_site_type_symbol
_atom_type_description
_atom_site_fract_x
_atom_site_fract_y
_atom_site_fract_z
_atom_type_partial_charge
C1    C     C_R   0.048574 0.733018 0.488081 0.953650
C2    C     C_R   0.216584 0.546787 0.829067 -0.079537
C3    C     C_2   0.063438 0.864370 0.462495 -0.392810
C4    C     C_R   0.134421 0.512449 0.712540 0.863580
C5    C     C_2   0.948525 0.924628 0.432475 -0.189905
C6    C     C_2   0.901957 0.130625 0.482944 0.213225
C7    C     C_2   0.959640 0.060238 0.423104 0.340347
C8    C     C_2   0.434170 0.506657 0.514477 0.046214
C9    C     C_2   0.571950 0.477810 0.503306 -0.112490
C10   C     C_R   0.944317 0.266143 0.500208 0.866220
C11   C     C_R   0.865447 0.489692 0.286936 0.906482
C12   C     C_R   0.452872 0.556378 0.961059 0.072424
C13   C     C_R   0.721012 0.332549 0.999839 -0.125743
C14   C     C_R   0.786542 0.471796 0.166955 -0.133170
C15   C     C_R   0.201483 0.664476 0.872569 -0.186378
C16   C     C_R   0.315999 0.733853 0.951120 -0.187067
C17   C     C_R   0.443063 0.683480 0.989857 -0.123022
C18   C     C_3   0.676172 0.069750 0.467572 0.084971
C19   C     C_3   0.582057 0.997362 0.523191 -0.761177
C20   C     C_3   0.225707 0.346845 0.284782 0.252425
C21   C     C_3   0.267359 0.264004 0.203784 -0.948563
C22   C     C_3   0.520498 0.576211 0.226155 0.145247
C23   C     C_R   0.339591 0.489079 0.876688 0.030079
C24   C     C_3   0.485679 0.683127 0.290822 -0.824239
C25   C     C_R   0.572183 0.494277 0.013037 -0.130996
C26   C     C_R   0.593228 0.383468 0.958492 0.058019
C27   C     C_R   0.483374 0.320910 0.868613 0.445281
C28   C     C_R   0.354052 0.368968 0.835183 -0.312161
C29   C     C_R   0.663514 0.530598 0.123325 0.411568
C30   C     C_R   0.818761 0.378996 0.102222 -0.322592
H1    H     H_    0.912738 0.333000 0.135852 0.169655
H2    H     H_    0.308513 0.829511 0.977203 0.153573
H3    H     H_    0.265913 0.314084 0.773125 0.152597
H4    H     H_    0.659918 0.020243 0.384276 0.119831
H5    H     H_    0.643867 0.166472 0.453094 0.164880
H6    H     H_    0.593366 0.045429 0.605665 0.276857
H7    H     H_    0.471248 0.992968 0.467481 0.206148
H8    H     H_    0.610682 0.899652 0.537448 0.235055
H9    H     H_    0.222471 0.444244 0.253593 0.110432
H10   H     H_    0.120850 0.308146 0.283948 0.221133
H11   H     H_    0.267877 0.165199 0.230479 0.271619
H12   H     H_    0.846841 0.876931 0.426633 0.194989
H13   H     H_    0.191510 0.265626 0.116819 0.224757
H14   H     H_    0.373293 0.299253 0.203071 0.240529
H15   H     H_    0.414350 0.178706 0.757441 0.340430
H16   H     H_    0.546057 0.495820 0.281101 0.160877
H17   H     H_    0.424445 0.542254 0.154983 0.134553
H18   H     H_    0.457780 0.763516 0.235638 0.245094
H19   H     H_    0.395431 0.650438 0.318026 0.201885
H20   H     H_    0.577213 0.716012 0.366483 0.256870
H21   H     H_    0.060646 0.048935 0.316346 0.340043
H22   H     H_    0.165488 0.911621 0.468943 0.166760
H23   H     H_    0.575516 0.393216 0.455427 0.192286
H24   H     H_    0.435271 0.584874 0.571534 0.094926
H25   H     H_    0.679278 0.634535 0.588047 0.160713
H26   H     H_    0.742672 0.252214 0.956669 0.203799
H27   H     H_    0.107592 0.709872 0.834890 0.159404
H28   H     H_    0.532635 0.745053 0.042214 0.192996
N1    N     N_2   0.313640 0.446500 0.454900 0.061251
N2    N     N_2   0.686360 0.553430 0.545150 -0.213738
O1    O     O_R   0.936910 0.692950 0.509080 -0.596381
O2    O     O_3   0.322257 0.343582 0.394330 -0.543814
O3    O     O_3   0.501621 0.209466 0.819739 -0.783402
O4    O     O_3   0.634582 0.621755 0.190823 -0.626756
O5    O     O_3   0.035656 0.115966 0.359729 -0.787441
O6    O     O_R   0.138320 0.658600 0.480130 -0.631913
O7    O     O_R   0.002900 0.525670 0.675280 -0.601132
O8    O     O_R   0.204310 0.491320 0.646330 -0.612356
O9    O     O_R   0.861680 0.341400 0.519870 -0.616674
O10   O     O_R   0.063090 0.307050 0.490920 -0.551816
O11   O     O_R   0.795690 0.508680 0.353670 -0.593138
O12   O     O_R   0.997100 0.474330 0.324720 -0.659988
O13   O     O_3   0.816707 0.074778 0.539265 -0.623830
Zn1   Zn    Zn3+2 0.865520 0.522940 0.519330 0.951217
Zn2   Zn    Zn3+2 0.134480 0.477060 0.480670 0.977337

loop_
_geom_bond_atom_site_label_1
_geom_bond_atom_site_label_2
_ccdc_geom_bond_type
C12   C17   A    
C6    C10   S    
C4    O7    A    
C2    C4    S    
C5    H12   S    
C20   O2    S    
C6    C7    D    
C19   H8    S    
O1    Zn1   S    
C7    O5    S    
C21   H14   S    
C18   H4    S    
C18   H5    S    
C12   C25   A    
C17   H28   S    
C3    H22   S    
C13   H26   S    
H25   N2    S    
C9    N2    D    
C22   H17   S    
C29   O4    S    
O9    Zn1   S    
O7    Zn1   S    
C23   C28   A    
O8    Zn2   S    
C25   C29   A    
C2    C15   A    
C15   H27   S    
C12   C23   A    
C26   C27   A    
C27   O3    S    
C14   C30   A    
O12   Zn2   S    
C21   H11   S    
O6    Zn2   S    
C10   O10   A    
N2    Zn1   S    
C11   O12   A    
C28   H3    S    
C1    O6    A    
C18   O13   S    
C11   O11   A    
C19   H6    S    
C8    N1    D    
C24   H20   S    
C30   H1    S    
C20   H10   S    
C11   C14   S    
C22   C24   S    
C13   C26   A    
C9    H23   S    
C14   C29   A    
C22   O4    S    
C15   C16   A    
C24   H18   S    
C10   O9    A    
N1    Zn2   S    
C13   C30   A    
C27   C28   A    
C20   C21   S    
O10   Zn2   S    
C6    O13   S    
C5    C7    S    
C18   C19   S    
H21   O5    S    
C8    H24   S    
C24   H19   S    
C4    O8    A    
C20   H9    S    
C16   H2    S    
C16   C17   A    
N1    O2    S    
C3    C5    D    
C19   H7    S    
O11   Zn1   S    
C22   H16   S    
C25   C26   A    
C21   H13   S    
H15   O3    S    
C2    C23   A    
C8    C9    S    
C1    C3    S    
C1    O1    A    
