data_mof_unit_2041.cif
_audit_creation_date              2012-12-10T17:56:42-0500
_audit_creation_method            fapswitch 2.2
_symmetry_space_group_name_H-M    P1
_symmetry_Int_Tables_number       1
_space_group_crystal_system       triclinic
_cell_length_a                    10.914952
_cell_length_b                    9.545706
_cell_length_c                    10.857661
_cell_angle_alpha                 92.240639
_cell_angle_beta                  91.929255
_cell_angle_gamma                 89.690381
_cell_volume                      1129.7545662

loop_
_atom_site_label
_atom_site_type_symbol
_atom_type_description
_atom_site_fract_x
_atom_site_fract_y
_atom_site_fract_z
_atom_type_partial_charge
C1    C     C_R   0.262170 0.500612 0.494128 0.809315
C2    C     C_R   0.738012 0.500682 0.502709 0.767652
C3    C     C_R   0.936866 0.632773 0.504721 -0.048364
C4    C     C_R   0.062599 0.631542 0.483787 -0.047668
C5    C     C_R   0.469924 0.069984 0.395670 -0.045948
C6    C     C_R   0.528141 0.078203 0.605245 -0.043044
C7    C     C_R   0.469873 0.921737 0.395466 0.009184
C8    C     C_R   0.528270 0.929917 0.605229 -0.010653
C9    C     C_R   0.505190 0.496993 0.262297 0.801774
C10   C     C_R   0.502677 0.503009 0.737588 0.814820
C11   C     C_R   0.693315 0.652238 0.141283 -0.169565
C12   C     C_R   0.688767 0.663132 0.884940 -0.179320
C13   C     C_R   0.780272 0.730451 0.083750 -0.181899
C14   C     C_R   0.777820 0.736106 0.956315 -0.156363
C15   C     C_R   0.598024 0.584447 0.941271 0.071510
C16   C     C_R   0.600534 0.579118 0.071566 0.079691
C17   C     C_R   0.517573 0.490521 0.128240 -0.189421
C18   C     C_R   0.505871 0.509107 0.871838 -0.179650
C19   C     C_R   0.443629 0.397095 0.055292 -0.058837
C20   C     C_R   0.423180 0.424283 0.930792 -0.051854
C21   C     C_R   0.063718 0.377887 0.490566 -0.184878
C22   C     C_R   0.936966 0.378046 0.491027 -0.218540
C23   C     C_R   0.872060 0.504365 0.501678 -0.090035
C24   C     C_R   0.128140 0.503834 0.487938 -0.084353
Cu1   Cu    Cu3+1 0.500000 0.640660 0.500000 0.940752
Cu2   Cu    Cu3+1 0.500000 0.359340 0.500000 0.931982
H1    H     H_    0.442564 0.122048 0.313270 0.163502
H2    H     H_    0.553735 0.135619 0.689688 0.128782
N1    N     N_R   0.500000 0.852070 0.500000 -0.166483
N2    N     N_R   0.500000 0.147940 0.500000 -0.173010
O1    O     O_R   0.319640 0.618740 0.499990 -0.576375
O2    O     O_R   0.680360 0.618740 0.500010 -0.584340
O3    O     O_R   0.319620 0.381170 0.499990 -0.582154
O4    O     O_R   0.680380 0.381170 0.500010 -0.590283
O5    O     O_R   0.500000 0.618810 0.319650 -0.598945
O6    O     O_R   0.500000 0.618810 0.680350 -0.598653
O7    O     O_R   0.499970 0.381240 0.319640 -0.584157
O8    O     O_R   0.500030 0.381240 0.680360 -0.585768
C25   C     C_R   0.437412 0.247555 0.086624 0.156626
C26   C     C_R   0.325202 0.176182 0.086693 -0.180856
C27   C     C_R   0.323493 0.029513 0.076259 -0.167832
C28   C     C_R   0.432935 0.953212 0.074090 -0.136465
C29   C     C_R   0.544847 0.023334 0.082317 -0.181242
C30   C     C_R   0.547310 0.169619 0.087253 -0.149943
H3    H     H_    0.239457 0.233771 0.083932 0.137422
H4    H     H_    0.237583 0.974757 0.064589 0.132342
H5    H     H_    0.430950 0.839865 0.065724 0.146949
H6    H     H_    0.629728 0.964809 0.080747 0.159521
H7    H     H_    0.634883 0.222199 0.085026 0.129606
C31   C     C_R   0.307948 0.375376 0.866620 0.125608
C32   C     C_R   0.295015 0.237212 0.818725 -0.080146
C33   C     C_R   0.180343 0.189131 0.774677 -0.177115
C34   C     C_R   0.079697 0.280153 0.772703 -0.106520
C35   C     C_R   0.093441 0.419705 0.814164 -0.128633
C36   C     C_R   0.207016 0.467091 0.861690 -0.181811
H8    H     H_    0.371835 0.165129 0.821750 0.129570
H9    H     H_    0.168886 0.080674 0.744189 0.123789
H10   H     H_    0.991148 0.242890 0.738483 0.130337
H11   H     H_    0.015612 0.490449 0.811395 0.130024
H12   H     H_    0.215719 0.574295 0.897348 0.121910
H13   H     H_    0.703190 0.644999 0.240080 0.147198
H14   H     H_    0.693612 0.667855 0.786032 0.150681
H15   H     H_    0.850827 0.785893 0.137962 0.123139
H16   H     H_    0.846494 0.796463 0.913347 0.127107
H17   H     H_    0.111123 0.278609 0.491908 0.164724
H18   H     H_    0.890231 0.278714 0.485759 0.161980
C37   C     C_R   0.881654 0.770099 0.541224 0.158334
C38   C     C_R   0.829943 0.858045 0.452544 -0.069404
C39   C     C_R   0.797289 0.995692 0.485817 -0.118706
C40   C     C_R   0.815952 0.046116 0.607642 -0.137678
C41   C     C_R   0.867716 0.959467 0.695998 -0.176803
C42   C     C_R   0.901275 0.822154 0.662739 -0.178801
H19   H     H_    0.818285 0.821298 0.357595 0.099102
H20   H     H_    0.757825 0.063353 0.417163 0.135763
H21   H     H_    0.789702 0.152221 0.634040 0.133800
H22   H     H_    0.883822 0.999721 0.789652 0.122509
H23   H     H_    0.946923 0.757477 0.730099 0.109615
C43   C     C_R   0.115284 0.761859 0.438232 0.152662
C44   C     C_R   0.168939 0.863317 0.519901 -0.071314
C45   C     C_R   0.195560 0.996132 0.478276 -0.155950
C46   C     C_R   0.164542 0.029991 0.357039 -0.120439
C47   C     C_R   0.108116 0.930550 0.276832 -0.156579
C48   C     C_R   0.086991 0.795794 0.315932 -0.179076
H24   H     H_    0.187742 0.840239 0.615579 0.111507
H25   H     H_    0.239565 0.073406 0.539912 0.147790
H26   H     H_    0.183480 0.133474 0.325348 0.131682
H27   H     H_    0.077745 0.958529 0.185274 0.115688
H28   H     H_    0.041137 0.720321 0.253418 0.119663
H29   H     H_    0.442526 0.863894 0.311964 0.148721
H30   H     H_    0.552873 0.878348 0.689436 0.131538

loop_
_geom_bond_atom_site_label_1
_geom_bond_atom_site_label_2
_ccdc_geom_bond_type
C30   H7    S    
Cu1   O1    S    
C15   C18   A    
C7    N1    A    
C27   C28   A    
C3    C23   A    
C19   C20   A    
C46   C47   A    
C1    O3    A    
C34   C35   A    
C45   H25   S    
C8    N1    A    
C21   C22   A    
C32   H8    S    
C44   H24   S    
C4    C24   A    
C15   C16   A    
C7    H29   S    
C1    O1    A    
C2    O2    A    
C37   C42   A    
C22   H18   S    
C20   C31   S    
C5    H1    S    
C43   C48   A    
Cu2   O4    S    
C6    H2    S    
C38   C39   A    
C27   H4    S    
C40   C41   A    
C29   H6    S    
C46   H26   S    
C2    O4    A    
Cu1   O2    S    
C48   H28   S    
C13   C14   A    
C35   H11   S    
Cu1   N1    S    
C26   H3    S    
C32   C33   A    
C25   C26   A    
C5    C7    A    
C43   C44   A    
Cu2   O8    S    
C6    C8    A    
C38   H19   S    
C37   C38   A    
C29   C30   A    
C4    C43   S    
C42   H23   S    
C12   H14   S    
C11   C16   A    
Cu2   O3    S    
C13   H15   S    
C12   C15   A    
C14   H16   S    
C9    O7    A    
C31   C32   A    
C39   H20   S    
C19   C25   S    
Cu1   O5    S    
C9    C17   S    
C26   C27   A    
C6    N2    A    
C12   C14   A    
Cu2   N2    S    
C8    H30   S    
C28   C29   A    
C3    C4    A    
C41   H22   S    
C2    C23   S    
C33   C34   A    
C5    N2    A    
C35   C36   A    
C21   H17   S    
C3    C37   S    
C45   C46   A    
C11   H13   S    
C34   H10   S    
Cu2   O7    S    
C25   C30   A    
C31   C36   A    
C10   O8    A    
Cu1   Cu2   S    
C41   C42   A    
C11   C13   A    
C16   C17   A    
C10   C18   S    
C17   C19   A    
C18   C20   A    
C28   H5    S    
C39   C40   A    
C33   H9    S    
Cu1   O6    S    
C44   C45   A    
C1    C24   S    
C47   C48   A    
C21   C24   A    
C40   H21   S    
C9    O5    A    
C22   C23   A    
C10   O6    A    
C36   H12   S    
C47   H27   S    
