data_mof_unit_2854.cif
_audit_creation_date              2013-03-05T16:05:38-0500
_audit_creation_method            fapswitch 2.2
_symmetry_space_group_name_H-M    P1
_symmetry_Int_Tables_number       1
_space_group_crystal_system       triclinic
_cell_length_a                    15.84603
_cell_length_b                    10.925728
_cell_length_c                    9.645904
_cell_angle_alpha                 89.302526
_cell_angle_beta                  92.16423
_cell_angle_gamma                 92.220966
_cell_volume                      1667.44897122

loop_
_atom_site_label
_atom_site_type_symbol
_atom_site_description
_atom_site_fract_x
_atom_site_fract_y
_atom_site_fract_z
_atom_type_partial_charge
O1    O     O_R   0.500000 0.319660 0.618740 -0.576593
O2    O     O_R   0.500000 0.680340 0.381260 -0.583998
O3    O     O_R   0.499990 0.319630 0.381170 -0.540331
O4    O     O_R   0.500010 0.680370 0.618830 -0.543887
C1    C     C_R   0.503941 0.262568 0.501596 0.817577
C2    C     C_R   0.493601 0.736952 0.498643 0.823417
O5    O     O_R   0.379080 0.500000 0.618760 -0.600304
O6    O     O_R   0.620920 0.500000 0.381240 -0.596794
O7    O     O_R   0.379080 0.499970 0.381190 -0.494761
O8    O     O_R   0.620920 0.500030 0.618810 -0.497586
C3    C     C_R   0.340143 0.499917 0.497890 0.840407
C4    C     C_R   0.659852 0.500007 0.502153 0.840701
Cu1   Cu    Cu3+1 0.500000 0.500020 0.640660 1.078583
Cu2   Cu    Cu3+1 0.500000 0.499980 0.359340 1.072553
C5    C     C_3   0.971723 0.392823 0.552582 -0.060362
C6    C     C_3   0.028269 0.606859 0.448827 -0.061842
C7    C     C_3   0.022030 0.409138 0.419700 -0.057231
C8    C     C_3   0.977954 0.590509 0.581721 -0.060711
H1    H     H_    0.938005 0.529249 0.265064 0.198965
H2    H     H_    0.062033 0.470379 0.736303 0.194564
C9    C     C_1   0.250524 0.500035 0.493896 -0.002196
C10   C     C_1   0.749465 0.499770 0.506419 -0.007313
C11   C     C_3   0.033874 0.483642 0.630270 -0.255478
C12   C     C_3   0.966145 0.516010 0.371113 -0.254802
C13   C     C_3   0.083428 0.500166 0.495746 0.034421
C14   C     C_3   0.916574 0.499480 0.505623 0.034398
C15   C     C_1   0.175020 0.500119 0.493586 0.132901
C16   C     C_1   0.824973 0.499586 0.507242 0.135094
C17   C     C_R   0.520860 0.064720 0.381586 -0.078551
C18   C     C_R   0.472387 0.933444 0.620641 -0.064713
C19   C     C_R   0.500898 0.939247 0.373534 -0.085410
C20   C     C_R   0.485663 0.060416 0.626711 -0.071998
C21   C     C_R   0.485650 0.871343 0.496301 -0.164147
C22   C     C_R   0.506808 0.127645 0.505198 -0.166271
C23   C     C_R   0.435075 0.441792 0.066497 0.477529
C24   C     C_R   0.564628 0.558904 0.933319 0.437428
C25   C     C_R   0.436837 0.442508 0.919708 -0.132982
C26   C     C_R   0.563249 0.557317 0.080206 -0.148046
H3    H     H_    0.386651 0.397913 0.858081 0.221871
H4    H     H_    0.613521 0.601934 0.141684 0.218639
N1    N     N_R   0.500020 0.500030 0.852070 -0.247807
N2    N     N_R   0.499980 0.499970 0.147930 -0.254755
C27   C     C_2   0.044900 0.306702 0.327891 0.908597
O9    O     O_2   0.988908 0.242613 0.271985 -0.533387
O10   O     O_R   0.129696 0.284621 0.307004 -0.715010
H5    H     H_    0.136807 0.212407 0.244070 0.353723
C28   C     C_2   0.954920 0.692434 0.674164 0.911174
O11   O     O_2   0.010783 0.757442 0.729028 -0.531886
O12   O     O_R   0.870108 0.712582 0.697381 -0.695847
H6    H     H_    0.862803 0.783652 0.761895 0.377259
C29   C     C_2   0.941856 0.272002 0.611960 0.916885
O13   O     O_2   0.993405 0.195871 0.646115 -0.533688
O14   O     O_R   0.855644 0.246897 0.627994 -0.726967
H7    H     H_    0.843611 0.162400 0.668941 0.364093
C30   C     C_2   0.058145 0.727694 0.389485 0.917416
O15   O     O_2   0.006607 0.803886 0.355492 -0.531248
O16   O     O_R   0.144351 0.752734 0.373276 -0.724722
H8    H     H_    0.156396 0.837228 0.332331 0.365215
C31   C     C_2   0.560737 0.128443 0.262941 0.955157
O17   O     O_2   0.633439 0.169645 0.276194 -0.551774
O18   O     O_R   0.514013 0.146894 0.139598 -0.714529
H9    H     H_    0.545891 0.202172 0.072964 0.356751
C32   C     C_2   0.444437 0.866212 0.746003 0.937721
O19   O     O_2   0.373512 0.818071 0.747832 -0.551309
O20   O     O_R   0.501584 0.852434 0.857953 -0.698141
H10   H     H_    0.480987 0.787894 0.925816 0.321964
C33   C     C_2   0.486340 0.882705 0.235718 0.936866
O21   O     O_2   0.543064 0.881806 0.153449 -0.583200
O22   O     O_R   0.406899 0.827906 0.203141 -0.705001
H11   H     H_    0.403466 0.786313 0.110011 0.335556
C34   C     C_2   0.481021 0.118789 0.763764 0.914505
O23   O     O_2   0.545169 0.163908 0.819737 -0.551646
O24   O     O_R   0.404206 0.117688 0.830164 -0.712691
H12   H     H_    0.409998 0.155698 0.925260 0.385945
S1    S     S_3+6 0.340461 0.370822 0.129609 0.039099
O25   O     O_2   0.356274 0.289639 0.253582 -0.253107
O26   O     O_2   0.281006 0.468969 0.164284 -0.263245
O27   O     O_3   0.291595 0.283878 0.005659 -0.547532
H13   H     H_    0.236888 0.256799 0.044414 0.394276
S2    S     S_3+6 0.657915 0.633811 0.869970 0.069860
O28   O     O_2   0.720566 0.538555 0.840481 -0.221688
O29   O     O_2   0.642690 0.710679 0.742354 -0.255516
O30   O     O_3   0.702893 0.726504 0.992234 -0.507586
H14   H     H_    0.668173 0.800033 0.990239 0.397478

loop_
_geom_bond_atom_site_label_1
_geom_bond_atom_site_label_2
_geom_bond_distance
_ccdc_geom_bond_type
C18   C20   1.396645 A    
C30   O15   1.221994 D    
C32   O20   1.393404 S    
O24   H12   1.011071 S    
C8    C14   1.537152 S    
O7    Cu2   1.935550 S    
C8    C28   1.499578 S    
Cu1   N1    2.039230 S    
C28   O12   1.397006 S    
O14   H7    1.013804 S    
O5    C3    1.298326 A    
C23   S1    1.785199 S    
O1    C1    1.302037 A    
C23   C25   1.417157 A    
C12   C14   1.547038 S    
C26   N2    1.347319 A    
C4    C10   1.419153 S    
O4    Cu1   1.979117 S    
S1    O26   1.503394 D    
C23   N2    1.406875 A    
O30   H14   0.990720 S    
C19   C21   1.413314 A    
C5    C29   1.499407 S    
O18   H9    1.012159 S    
Cu2   N2    2.039230 S    
C5    C11   1.550053 S    
C9    C15   1.196353 T    
C31   O17   1.223218 D    
C6    C12   1.550137 S    
C10   C16   1.196309 T    
Cu1   Cu2   2.713591 S    
C17   C19   1.397333 A    
C24   N1    1.405968 A    
O2    C2    1.305939 A    
S2    O30   1.683494 S    
C20   C34   1.480318 S    
C31   O18   1.394105 S    
C7    C12   1.550080 S    
C8    C11   1.550262 S    
C17   C31   1.481509 S    
S2    O29   1.498968 D    
C24   S2    1.786227 S    
C34   O24   1.396252 S    
O27   H13   0.990291 S    
C5    C14   1.537202 S    
O10   H5    1.013627 S    
C17   C22   1.412736 A    
C3    C9    1.419229 S    
C33   O21   1.221679 D    
C33   O22   1.399342 S    
C20   C22   1.419593 A    
C19   C33   1.479127 S    
S1    O25   1.499441 D    
C7    C27   1.499330 S    
C27   O10   1.396794 S    
C28   O11   1.221956 D    
H2    C11   1.110462 S    
O5    Cu1   1.919759 S    
O6    C4    1.298663 A    
C1    C22   1.476543 S    
O7    C3    1.303940 A    
O3    Cu2   1.979120 S    
O8    C4    1.303553 A    
O4    C2    1.309586 A    
O12   H6    1.013787 S    
C30   O16   1.396948 S    
C27   O9    1.221976 D    
O1    Cu1   1.984433 S    
C6    C13   1.537501 S    
C5    C7    1.539727 S    
O6    Cu2   1.919758 S    
C18   C21   1.411708 A    
S2    O28   1.502751 D    
O3    C1    1.312196 A    
O8    Cu1   1.935550 S    
C13   C15   1.452323 S    
C14   C16   1.452233 S    
C2    C21   1.478389 S    
C7    C13   1.537087 S    
C24   C26   1.417739 A    
H1    C12   1.110455 S    
C6    C30   1.499444 S    
C29   O13   1.222005 D    
C25   H3    1.079128 S    
C26   H4    1.079412 S    
O16   H8    1.013812 S    
C11   C13   1.547010 S    
C25   N1    1.346707 A    
O22   H11   1.010336 S    
O2    Cu2   1.984432 S    
S1    O27   1.682900 S    
C32   O19   1.222905 D    
C34   O23   1.222275 D    
C6    C8    1.539925 S    
O20   H10   1.009607 S    
C29   O14   1.396898 S    
C18   C32   1.480405 S    
