data_mof_unit_3530.cif
_audit_creation_date              2012-12-10T17:19:21-0500
_audit_creation_method            fapswitch 2.2
_symmetry_space_group_name_H-M    P1
_symmetry_Int_Tables_number       1
_space_group_crystal_system       triclinic
_cell_length_a                    15.07999
_cell_length_b                    10.848567
_cell_length_c                    9.570562
_cell_angle_alpha                 90.800143
_cell_angle_beta                  90.013419
_cell_angle_gamma                 92.637732
_cell_volume                      1563.89634411

loop_
_atom_site_label
_atom_site_type_symbol
_atom_type_description
_atom_site_fract_x
_atom_site_fract_y
_atom_site_fract_z
_atom_type_partial_charge
C1    C     C_R   0.508426 0.263515 0.499565 0.857941
C2    C     C_R   0.907088 0.502761 0.628124 0.098596
C3    C     C_R   0.953788 0.504829 0.245450 -0.204502
C4    C     C_R   0.046226 0.504254 0.245434 -0.211764
C5    C     C_R   0.092911 0.503066 0.372084 0.108386
C6    C     C_R   0.046487 0.502821 0.500095 0.064599
C7    C     C_R   0.092910 0.501771 0.628078 0.109266
C8    C     C_R   0.046221 0.501640 0.754757 -0.211031
C9    C     C_R   0.953777 0.502160 0.754781 -0.200869
C10   C     C_R   0.185282 0.501994 0.372950 -0.245696
C11   C     C_R   0.231693 0.500745 0.500025 -0.073292
C12   C     C_R   0.328632 0.499867 0.500005 0.812357
C13   C     C_R   0.185282 0.500738 0.627144 -0.247174
C14   C     C_R   0.577980 0.126232 0.744052 0.619730
C15   C     C_R   0.572271 0.071077 0.874564 -0.213180
C16   C     C_R   0.526296 0.958131 0.888762 -0.254507
C17   C     C_R   0.494905 0.893691 0.770348 -0.175527
C18   C     C_R   0.508308 0.942604 0.634843 0.028352
C19   C     C_R   0.536244 0.068022 0.625864 -0.026429
C20   C     C_R   0.519486 0.130321 0.500030 -0.092412
C21   C     C_R   0.499529 0.062630 0.377700 -0.217545
C22   C     C_R   0.491641 0.935336 0.380636 -0.206654
C23   C     C_R   0.496281 0.738025 0.502030 0.774464
C24   C     C_R   0.495093 0.873335 0.507882 -0.077788
C25   C     C_R   0.619713 0.662406 0.146593 -0.163560
C26   C     C_R   0.678975 0.740292 0.075240 -0.225867
C27   C     C_R   0.679091 0.739830 0.931304 -0.197027
C28   C     C_R   0.619671 0.661866 0.857933 -0.150745
C29   C     C_R   0.558867 0.579655 0.926283 0.206991
C30   C     C_R   0.558855 0.579747 0.076038 0.210051
C31   C     C_R   0.444252 0.423854 0.072762 -0.076761
C32   C     C_R   0.444261 0.423910 0.924670 -0.045294
C33   C     C_R   0.671356 0.500861 0.500021 0.823064
C34   C     C_R   0.814683 0.502364 0.627223 -0.210638
C35   C     C_R   0.768283 0.502357 0.500089 -0.070887
C36   C     C_R   0.814704 0.503769 0.372998 -0.251469
C37   C     C_R   0.907101 0.504127 0.372113 0.108940
C38   C     C_R   0.953529 0.503341 0.500115 0.061577
Cu1   Cu    Cu3+1 0.499990 0.499990 0.640660 0.963074
Cu2   Cu    Cu3+1 0.500010 0.500010 0.359340 0.932915
H1    H     H_    0.779046 0.501684 0.725636 0.175008
H2    H     H_    0.602152 0.117077 0.965235 0.165244
H3    H     H_    0.517419 0.918334 0.991235 0.171128
H4    H     H_    0.457341 0.808596 0.788771 0.184056
H5    H     H_    0.480364 0.885602 0.282804 0.162348
H6    H     H_    0.398618 0.361491 0.127230 0.133757
H7    H     H_    0.624819 0.671582 0.256769 0.201494
H8    H     H_    0.724775 0.802112 0.132391 0.159214
H9    H     H_    0.724702 0.801633 0.875758 0.160887
H10   H     H_    0.623640 0.671593 0.748001 0.197221
H11   H     H_    0.779090 0.504236 0.274570 0.165569
H12   H     H_    0.398632 0.361562 0.868169 0.131083
H13   H     H_    0.918818 0.505560 0.146532 0.142303
H14   H     H_    0.081179 0.504567 0.146496 0.136449
H15   H     H_    0.220884 0.502116 0.274523 0.154277
H16   H     H_    0.220883 0.499854 0.725553 0.153083
H17   H     H_    0.081174 0.500952 0.853683 0.136031
H18   H     H_    0.918805 0.501848 0.853708 0.142751
H19   H     H_    0.489031 0.108016 0.279323 0.162760
N1    N     N_R   0.500860 0.501210 0.147910 -0.198150
N2    N     N_R   0.500890 0.501290 0.852040 -0.190478
O1    O     O_R   0.499990 0.319640 0.618810 -0.536281
O2    O     O_R   0.500000 0.319660 0.381240 -0.595078
O3    O     O_R   0.370250 0.499960 0.618800 -0.594725
O4    O     O_R   0.370260 0.499980 0.381230 -0.585798
O5    O     O_R   0.500000 0.680340 0.618760 -0.619447
O6    O     O_R   0.500010 0.680360 0.381190 -0.603097
O7    O     O_R   0.629740 0.500020 0.618770 -0.565908
O8    O     O_R   0.629750 0.500040 0.381200 -0.609565
F1    F     F_    0.629700 0.231400 0.732311 -0.665822

loop_
_geom_bond_atom_site_label_1
_geom_bond_atom_site_label_2
_ccdc_geom_bond_type
C31   N1    A    
C25   C30   A    
C23   C24   S    
C6    C38   A    
Cu1   O7    S    
C21   H19   S    
C29   C30   A    
C10   H15   S    
C26   H8    S    
C8    H17   S    
C3    H13   S    
C12   O4    A    
C25   H7    S    
C15   H2    S    
C19   C20   A    
C33   O8    A    
C11   C12   S    
C13   H16   S    
C36   H11   S    
C1    O1    A    
C2    C34   A    
C17   C18   A    
C17   H4    S    
C5    C10   A    
Cu2   O6    S    
C21   C22   A    
C2    C38   A    
Cu1   O3    S    
C14   F1    S    
C16   H3    S    
C28   C29   A    
C26   C27   A    
C37   C38   A    
C34   H1    S    
C18   C24   A    
C1    O2    A    
C23   O5    A    
C36   C37   A    
C33   C35   S    
C32   N2    A    
C9    H18   S    
C6    C7    A    
C29   N2    A    
Cu2   O4    S    
C5    C6    A    
C12   O3    A    
Cu1   O5    S    
C22   C24   A    
C11   C13   A    
C7    C8    A    
C10   C11   A    
C15   C16   A    
Cu1   Cu2   S    
C16   C17   A    
C7    C13   A    
C22   H5    S    
C18   C19   A    
C20   C21   A    
C3    C37   A    
C34   C35   A    
Cu2   O8    S    
C23   O6    A    
Cu2   N1    S    
Cu1   O1    S    
Cu2   O2    S    
C14   C15   A    
C4    C5    A    
C1    C20   S    
C4    H14   S    
C25   C26   A    
Cu1   N2    S    
C2    C9    A    
C28   H10   S    
C14   C19   A    
C31   H6    S    
C31   C32   A    
C32   H12   S    
C3    C4    A    
C27   H9    S    
C33   O7    A    
C8    C9    A    
C27   C28   A    
C35   C36   A    
C30   N1    A    
