data_mof_unit_2539.cif
_audit_creation_date              2012-12-10T19:05:35-0500
_audit_creation_method            fapswitch 2.2
_symmetry_space_group_name_H-M    P1
_symmetry_Int_Tables_number       1
_space_group_crystal_system       triclinic
_cell_length_a                    10.517386
_cell_length_b                    13.060115
_cell_length_c                    13.599494
_cell_angle_alpha                 85.244787
_cell_angle_beta                  90.13833
_cell_angle_gamma                 92.118137
_cell_volume                      1860.30091782

loop_
_atom_site_label
_atom_site_type_symbol
_atom_type_description
_atom_site_fract_x
_atom_site_fract_y
_atom_site_fract_z
_atom_type_partial_charge
C1    C     C_R   0.497683 0.480822 0.685089 0.887366
C2    C     C_3   0.040571 0.598040 0.482121 0.515492
C3    C     C_3   0.043459 0.461919 0.587669 -0.031560
C4    C     C_3   0.956497 0.538273 0.412450 -0.011831
C5    C     C_3   0.123101 0.504048 0.498326 -0.210271
C6    C     C_3   0.876874 0.496084 0.501833 -0.197851
C7    C     C_3   0.040296 0.443441 0.428019 -0.346093
C8    C     C_3   0.959669 0.556735 0.572136 -0.303956
C9    C     C_1   0.509356 0.534975 0.211869 -0.208587
C10   C     C_1   0.490571 0.465040 0.788111 -0.207528
C11   C     C_2   0.519466 0.543746 0.019957 0.078036
C12   C     C_R   0.502339 0.519179 0.314905 0.888508
C13   C     C_2   0.480120 0.456376 0.979994 0.078366
C14   C     C_1   0.484560 0.456465 0.875524 -0.036073
C15   C     C_1   0.515233 0.543593 0.124444 -0.035768
C16   C     C_3   0.102423 0.422046 0.686005 -0.351581
C17   C     C_3   0.003995 0.409519 0.769372 -0.310986
C18   C     C_3   0.063959 0.366985 0.865836 -0.880051
C19   C     C_3   0.896933 0.577074 0.314024 -0.373660
C20   C     C_3   0.995841 0.593022 0.231181 -0.332195
C21   C     C_3   0.935053 0.634437 0.134657 -0.890559
C22   C     C_3   0.424578 0.362529 0.042181 -0.407664
C23   C     C_2   0.460958 0.033149 0.473611 -0.016856
C24   C     C_3   0.398347 0.267618 0.984429 -0.331709
C25   C     C_3   0.344166 0.177179 0.051717 -0.880882
C26   C     C_3   0.575246 0.637504 0.957766 -0.405336
C27   C     C_3   0.600505 0.732717 0.015266 -0.333731
C28   C     C_3   0.655075 0.823001 0.947951 -0.882055
C29   C     C_3   0.643932 0.009659 0.590690 -0.356254
C30   C     C_3   0.721727 0.927311 0.648530 -0.382174
C31   C     C_3   0.822085 0.976181 0.713001 -0.730742
C32   C     C_3   0.356222 0.990372 0.409179 -0.350183
C33   C     C_3   0.281974 0.072758 0.348218 -0.374376
C34   C     C_2   0.539656 0.966898 0.525837 -0.015024
C35   C     C_3   0.181193 0.023868 0.284139 -0.776880
C36   C     C_1   0.527450 0.854447 0.519211 0.140963
C37   C     C_1   0.472775 0.145569 0.480601 0.131488
C38   C     C_R   0.742623 0.498346 0.502608 0.911359
C39   C     C_R   0.257362 0.501661 0.497488 0.914127
C40   C     C_3   0.959412 0.402203 0.518029 0.480285
H1    H     H_    0.077307 0.397307 0.370074 0.172807
H2    H     H_    0.858101 0.580469 0.112454 0.265451
H3    H     H_    0.895003 0.710732 0.143125 0.261620
H4    H     H_    0.008126 0.643351 0.075470 0.257277
H5    H     H_    0.072208 0.648258 0.251213 0.264185
H6    H     H_    0.039508 0.518738 0.219683 0.220575
H7    H     H_    0.823234 0.519346 0.293700 0.199957
H8    H     H_    0.849291 0.650067 0.323554 0.213092
H9    H     H_    0.097694 0.218914 0.518151 0.342423
H10   H     H_    0.962626 0.808833 0.363858 0.350285
H11   H     H_    0.412997 0.155245 0.111168 0.263440
H12   H     H_    0.922555 0.602876 0.630032 0.179765
H13   H     H_    0.253339 0.197619 0.085350 0.264039
H14   H     H_    0.325435 0.110060 0.008049 0.256525
H15   H     H_    0.328875 0.285937 0.924443 0.230901
H16   H     H_    0.488252 0.244746 0.950932 0.233286
H17   H     H_    0.492266 0.340900 0.102696 0.213807
H18   H     H_    0.334137 0.384081 0.075864 0.202478
H19   H     H_    0.746465 0.802658 0.915129 0.264792
H20   H     H_    0.586917 0.844443 0.887865 0.264536
H21   H     H_    0.672875 0.890413 0.991401 0.254868
H22   H     H_    0.510147 0.755543 0.048092 0.232921
H23   H     H_    0.100861 0.289546 0.857625 0.271181
H24   H     H_    0.669414 0.714784 0.075740 0.229681
H25   H     H_    0.666100 0.616000 0.924693 0.202654
H26   H     H_    0.508072 0.658806 0.896801 0.214044
H27   H     H_    0.889345 0.026802 0.666644 0.321240
H28   H     H_    0.776148 0.022027 0.767323 0.252913
H29   H     H_    0.876494 0.914975 0.753803 0.236216
H30   H     H_    0.657424 0.875662 0.696684 0.217619
H31   H     H_    0.770419 0.880587 0.596253 0.264256
H32   H     H_    0.709867 0.060346 0.543035 0.271691
H33   H     H_    0.599435 0.057295 0.644371 0.213175
H34   H     H_    0.143123 0.419188 0.887492 0.260510
H35   H     H_    0.226413 0.975255 0.231832 0.258661
H36   H     H_    0.111798 0.975977 0.331039 0.300908
H37   H     H_    0.129322 0.085101 0.241092 0.238096
H38   H     H_    0.233951 0.122192 0.398365 0.232421
H39   H     H_    0.348565 0.121763 0.299603 0.219967
H40   H     H_    0.399676 0.940013 0.357413 0.213615
H41   H     H_    0.288288 0.942413 0.457544 0.269586
H42   H     H_    0.991231 0.360254 0.925297 0.253940
H43   H     H_    0.963993 0.485247 0.780650 0.211167
H44   H     H_    0.924953 0.356357 0.750006 0.271531
H45   H     H_    0.146241 0.347361 0.676683 0.232654
H46   H     H_    0.178891 0.477782 0.705639 0.190527
N1    N     N_1   0.479750 0.234530 0.484780 -0.081444
N2    N     N_1   0.520250 0.765470 0.515220 -0.075978
O1    O     O_R   0.492590 0.402510 0.634760 -0.601711
O2    O     O_2   0.848096 0.236121 0.444338 -0.306095
O3    O     O_3   0.031918 0.197517 0.568457 -0.554997
O4    O     O_2   0.154891 0.761587 0.557214 -0.277683
O5    O     O_2   0.189985 0.744131 0.381777 -0.361973
O6    O     O_3   0.969062 0.803854 0.436746 -0.561144
O7    O     O_R   0.507410 0.597490 0.365240 -0.602182
O8    O     O_R   0.505590 0.572960 0.644530 -0.614583
O9    O     O_R   0.494410 0.427040 0.355470 -0.614624
O10   O     O_R   0.679550 0.414790 0.495140 -0.550253
O11   O     O_R   0.320450 0.585210 0.504860 -0.547699
O12   O     O_R   0.692550 0.585240 0.504910 -0.624220
O13   O     O_R   0.307450 0.414760 0.495090 -0.642189
O14   O     O_2   0.810326 0.257230 0.618996 -0.315079
S1    S     S_3+6 0.907141 0.270258 0.537471 0.001368
S2    S     S_3+6 0.093942 0.729822 0.463898 -0.001412
Zn1   Zn    Zn3+2 0.491320 0.386190 0.493470 1.004524
Zn2   Zn    Zn3+2 0.508680 0.613810 0.506530 1.016514

loop_
_geom_bond_atom_site_label_1
_geom_bond_atom_site_label_2
_ccdc_geom_bond_type
C19   C20   S    
C38   O10   A    
C22   H17   S    
C30   H31   S    
C36   N2    T    
C24   H15   S    
C31   H27   S    
C32   H41   S    
C35   H35   S    
C26   C27   S    
O10   Zn1   S    
O7    Zn2   S    
C25   H13   S    
C30   C31   S    
C19   H7    S    
C18   H23   S    
C29   H33   S    
C33   C35   S    
C21   H3    S    
C4    C19   S    
C11   C15   S    
C16   C17   S    
C7    C40   S    
C6    C38   S    
C12   O7    A    
C8    H12   S    
C34   C36   S    
C20   H5    S    
C29   H32   S    
O9    Zn1   S    
C28   H21   S    
O6    S2    S    
C18   H34   S    
C13   C14   S    
C16   H46   S    
H9    O3    S    
C4    C7    S    
O5    S2    D    
C30   H30   S    
C39   O13   A    
C28   H20   S    
O13   Zn1   S    
C31   H28   S    
C35   H36   S    
C26   H26   S    
C25   H14   S    
C4    C6    S    
C3    C8    S    
C10   C14   T    
C5    C7    S    
C19   H8    S    
C33   H39   S    
C6    C8    S    
C11   C26   S    
C23   C37   S    
C29   C34   S    
C35   H37   S    
C17   H43   S    
C2    C4    S    
C25   H11   S    
C29   C30   S    
C27   H22   S    
C32   H40   S    
C21   H4    S    
N2    Zn2   S    
C39   O11   A    
N1    Zn1   S    
C2    S2    S    
C23   C34   D    
C17   C18   S    
C24   C25   S    
C12   O9    A    
C38   O12   A    
C3    C40   S    
C5    C39   S    
C16   H45   S    
C6    C40   S    
C2    C5    S    
C28   H19   S    
O11   Zn2   S    
O8    Zn2   S    
C1    O1    A    
C26   H25   S    
C37   N1    T    
C2    C8    S    
C1    C10   S    
O3    S1    S    
C3    C5    S    
C22   H18   S    
C24   H16   S    
H10   O6    S    
O12   Zn2   S    
C17   H44   S    
C32   C33   S    
C9    C15   T    
C23   C32   S    
C40   S1    S    
C11   C13   D    
C1    O8    A    
C18   H42   S    
C13   C22   S    
C22   C24   S    
C7    H1    S    
O14   S1    D    
C33   H38   S    
C9    C12   S    
O2    S1    D    
C27   H24   S    
O4    S2    D    
C21   H2    S    
C31   H29   S    
C20   C21   S    
O1    Zn1   S    
C27   C28   S    
C20   H6    S    
C3    C16   S    
