data_mof_unit_1409.cif
_audit_creation_date              2012-12-10T17:41:46-0500
_audit_creation_method            fapswitch 2.2
_symmetry_space_group_name_H-M    P1
_symmetry_Int_Tables_number       1
_space_group_crystal_system       triclinic
_cell_length_a                    13.813676
_cell_length_b                    13.920562
_cell_length_c                    15.054108
_cell_angle_alpha                 88.676951
_cell_angle_beta                  88.990126
_cell_angle_gamma                 86.005922
_cell_volume                      2886.64367231

loop_
_atom_site_label
_atom_site_type_symbol
_atom_type_description
_atom_site_fract_x
_atom_site_fract_y
_atom_site_fract_z
_atom_type_partial_charge
C1    C     C_R   0.500589 0.499799 0.328800 0.811655
C2    C     C_R   0.660814 0.418301 0.950460 -0.187157
C3    C     C_R   0.791335 0.563186 0.444280 0.120244
C4    C     C_R   0.208665 0.436814 0.555720 0.120244
C5    C     C_R   0.796650 0.437919 0.554873 -0.000206
C6    C     C_R   0.203350 0.562081 0.445127 -0.000206
C7    C     C_R   0.899082 0.436673 0.555990 -0.000776
C8    C     C_R   0.100918 0.563327 0.444010 -0.000776
C9    C     C_R   0.948332 0.500233 0.499842 0.088032
C10   C     C_R   0.051668 0.499767 0.500158 0.088032
C11   C     C_R   0.894492 0.564245 0.443377 -0.039978
C12   C     C_R   0.499411 0.500201 0.671200 0.811655
C13   C     C_R   0.105508 0.435755 0.556623 -0.039978
C14   C     C_R   0.953233 0.373049 0.612171 -0.189598
C15   C     C_R   0.046767 0.626951 0.387829 -0.189598
C16   C     C_R   0.514945 0.317476 0.500648 0.826617
C17   C     C_R   0.485055 0.682524 0.499352 0.826617
C18   C     C_R   0.054603 0.372393 0.612616 -0.186902
C19   C     C_R   0.945397 0.627607 0.387384 -0.186901
C20   C     C_1   0.477139 0.784822 0.495297 -0.112384
C21   C     C_1   0.522861 0.215178 0.504703 -0.112384
C22   C     C_2   0.463954 0.974332 0.484169 -0.014251
C23   C     C_R   0.499319 0.501086 0.953380 0.062731
C24   C     C_2   0.536046 0.025668 0.515830 -0.014251
C25   C     C_1   0.529343 0.128924 0.509365 -0.034295
C26   C     C_1   0.470657 0.871076 0.490635 -0.034295
C27   C     C_R   0.579524 0.460795 0.813438 -0.221257
C28   C     C_R   0.420476 0.539206 0.186562 -0.221257
C29   C     C_R   0.498903 0.500889 0.767899 -0.039919
C30   C     C_R   0.501096 0.499111 0.232101 -0.039919
C31   C     C_R   0.418886 0.542621 0.814333 -0.262190
C32   C     C_R   0.581113 0.457379 0.185666 -0.262190
C33   C     C_R   0.417411 0.543979 0.907594 0.015626
C34   C     C_R   0.500681 0.498914 0.046620 0.062731
C35   C     C_R   0.582588 0.456021 0.092406 0.015627
C36   C     C_2   0.625193 0.982431 0.559972 0.331291
C37   C     C_2   0.374807 0.017569 0.440028 0.331290
C38   C     C_2   0.249382 0.634010 0.913662 0.365268
C39   C     C_2   0.750618 0.365991 0.086338 0.365264
C40   C     C_R   0.737215 0.631388 0.383231 0.144080
C41   C     C_R   0.726935 0.607360 0.293958 -0.129862
C42   C     C_R   0.685177 0.674928 0.233282 -0.135668
C43   C     C_R   0.657508 0.768318 0.260366 -0.135491
C44   C     C_R   0.673523 0.794752 0.347592 -0.144959
C45   C     C_R   0.580204 0.460237 0.905763 0.067258
C46   C     C_R   0.714892 0.727087 0.408415 -0.120451
C47   C     C_R   0.262785 0.368612 0.616769 0.144081
C48   C     C_R   0.285107 0.272912 0.591584 -0.120451
C49   C     C_R   0.326477 0.205247 0.652407 -0.144959
C50   C     C_R   0.342492 0.231682 0.739634 -0.135491
C51   C     C_R   0.314823 0.325071 0.766718 -0.135669
C52   C     C_R   0.273065 0.392639 0.706041 -0.129862
C53   C     C_R   0.419796 0.539763 0.094237 0.067257
C54   C     C_R   0.336640 0.585301 0.956547 -0.020203
C55   C     C_R   0.663360 0.414700 0.043452 -0.020202
C56   C     C_R   0.339186 0.581700 0.049540 -0.187155
Cu1   Cu    Cu3+1 0.597420 0.500010 0.499990 0.956731
Cu2   Cu    Cu3+1 0.402580 0.499990 0.500010 0.956731
H1    H     H_    0.641406 0.428562 0.776810 0.143526
H2    H     H_    0.082808 0.676515 0.344012 0.142294
H3    H     H_    0.092280 0.321463 0.657511 0.160755
H4    H     H_    0.907720 0.678537 0.342489 0.160755
H5    H     H_    0.680878 0.029122 0.578725 0.075874
H6    H     H_    0.319122 0.970878 0.421275 0.075874
H7    H     H_    0.250858 0.658979 0.845146 0.062402
H8    H     H_    0.749138 0.341014 0.154852 0.062403
H9    H     H_    0.751897 0.536443 0.271560 0.127278
H10   H     H_    0.675434 0.655223 0.165042 0.152068
H11   H     H_    0.625510 0.820716 0.213323 0.141627
H12   H     H_    0.358594 0.571438 0.223190 0.143527
H13   H     H_    0.654617 0.867843 0.367899 0.156172
H14   H     H_    0.729194 0.748874 0.475244 0.179529
H15   H     H_    0.270806 0.251126 0.524756 0.179528
H16   H     H_    0.345382 0.132156 0.632100 0.156172
H17   H     H_    0.374490 0.179284 0.786676 0.141627
H18   H     H_    0.324567 0.344777 0.834958 0.152067
H19   H     H_    0.248104 0.463556 0.728440 0.127276
H20   H     H_    0.358944 0.573800 0.776140 0.131186
H21   H     H_    0.641056 0.426200 0.223859 0.131186
H22   H     H_    0.278277 0.613296 0.087835 0.184605
H23   H     H_    0.721723 0.386705 0.912165 0.184603
H24   H     H_    0.758907 0.389188 0.598099 0.128564
H25   H     H_    0.241093 0.610812 0.401901 0.128564
H26   H     H_    0.917192 0.323485 0.655988 0.142294
N1    N     N_R   0.743820 0.499960 0.499930 -0.196937
N2    N     N_R   0.256180 0.500040 0.500070 -0.196938
O1    O     O_R   0.582280 0.500030 0.370250 -0.584247
O2    O     O_2   0.362142 0.103607 0.422977 -0.549908
O3    O     O_2   0.173519 0.648531 0.955680 -0.529159
O4    O     O_2   0.826483 0.351479 0.044323 -0.529157
O5    O     O_R   0.417720 0.499970 0.629750 -0.584247
O6    O     O_R   0.417740 0.500020 0.370270 -0.585229
O7    O     O_R   0.582260 0.499980 0.629730 -0.585229
O8    O     O_R   0.593900 0.362160 0.500010 -0.594483
O9    O     O_R   0.406100 0.637840 0.499990 -0.594483
O10   O     O_R   0.429360 0.362150 0.500030 -0.559901
O11   O     O_R   0.570640 0.637850 0.499970 -0.559901
O12   O     O_2   0.637858 0.896392 0.577022 -0.549909

loop_
_geom_bond_atom_site_label_1
_geom_bond_atom_site_label_2
_ccdc_geom_bond_type
C1    O1    A    
C16   C21   S    
C23   C45   A    
C12   C29   S    
C27   C29   A    
C41   C42   A    
C14   C18   A    
C37   O2    D    
C14   H26   S    
C43   C44   A    
Cu2   O6    S    
C41   H9    S    
C15   C19   A    
C38   O3    D    
C11   C19   A    
C24   C36   S    
C13   C18   A    
C2    C55   A    
C3    N1    A    
C19   H4    S    
C17   C20   S    
C44   H13   S    
C34   C35   A    
C15   H2    S    
C4    C13   A    
Cu2   O10   S    
C12   O5    A    
C7    C14   A    
C39   C55   S    
C23   C33   A    
C31   C33   A    
C17   O9    A    
C36   H5    S    
Cu2   O5    S    
C39   O4    D    
C46   H14   S    
C5    N1    A    
C27   C45   A    
C43   H11   S    
Cu1   O7    S    
C42   H10   S    
Cu2   N2    S    
C44   C46   A    
C2    C45   A    
C54   C56   A    
C16   O10   A    
C35   C55   A    
C51   C52   A    
C32   C35   A    
C51   H18   S    
C5    C7    A    
C6    C8    A    
C22   C37   S    
Cu1   O1    S    
C40   C46   A    
Cu2   O9    S    
C47   C48   A    
C38   C54   S    
C38   H7    S    
C23   C34   A    
Cu1   O11   S    
C50   C51   A    
C24   C25   S    
C9    C11   A    
C48   C49   A    
C3    C40   S    
C8    C15   A    
Cu1   O8    S    
C39   H8    S    
C22   C24   D    
C12   O7    A    
C42   C43   A    
C52   H19   S    
C37   H6    S    
C31   H20   S    
C9    C10   A    
C53   C56   A    
C33   C54   A    
C7    C9    A    
C21   C25   T    
C40   C41   A    
C6    H25   S    
C48   H15   S    
C28   H12   S    
C10   C13   A    
C56   H22   S    
C28   C53   A    
C18   H3    S    
C47   C52   A    
C1    O6    A    
C16   O8    A    
C6    N2    A    
C28   C30   A    
C29   C31   A    
C27   H1    S    
C50   H17   S    
C32   H21   S    
C30   C32   A    
C5    H24   S    
Cu1   Cu2   S    
C20   C26   T    
C1    C30   S    
Cu1   N1    S    
C3    C11   A    
C4    N2    A    
C34   C53   A    
C8    C10   A    
C49   C50   A    
C22   C26   S    
C49   H16   S    
C2    H23   S    
C36   O12   D    
C17   O11   A    
C4    C47   S    
