data_mof_unit_4236.cif
_audit_creation_date              2013-03-05T16:36:43-0500
_audit_creation_method            fapswitch 2.2
_symmetry_space_group_name_H-M    P1
_symmetry_Int_Tables_number       1
_space_group_crystal_system       triclinic
_cell_length_a                    7.798022
_cell_length_b                    9.095878
_cell_length_c                    16.936816
_cell_angle_alpha                 89.601556
_cell_angle_beta                  91.54188
_cell_angle_gamma                 89.998596
_cell_volume                      1200.86189697

loop_
_atom_site_label
_atom_site_type_symbol
_atom_site_description
_atom_site_fract_x
_atom_site_fract_y
_atom_site_fract_z
_atom_type_partial_charge
O1    O     O_R   0.642760 0.288400 0.500000 -0.577595
O2    O     O_R   0.357240 0.711600 0.500000 -0.577595
O3    O     O_R   0.357190 0.288380 0.500000 -0.573109
O4    O     O_R   0.642810 0.711620 0.500000 -0.573109
C1    C     C_R   0.499984 0.220067 0.500012 0.846492
C2    C     C_R   0.500016 0.779933 0.499988 0.846492
O5    O     O_R   0.658410 0.498660 0.613920 -0.578198
O6    O     O_R   0.341590 0.501340 0.386080 -0.578198
O7    O     O_R   0.372840 0.498650 0.613930 -0.583843
O8    O     O_R   0.627160 0.501350 0.386070 -0.583843
C3    C     C_R   0.517231 0.503202 0.651553 0.846035
C4    C     C_R   0.482769 0.496798 0.348447 0.846035
Cu1   Cu    Cu3+1 0.669080 0.500010 0.500000 1.028344
Cu2   Cu    Cu3+1 0.330920 0.499990 0.500000 1.028344
N1    N     N_1   0.076820 0.499970 0.500010 -0.039442
N2    N     N_1   0.923180 0.500030 0.499990 -0.039442
C5    C     C_R   0.516334 0.523077 0.737494 -0.151683
C6    C     C_R   0.483666 0.476923 0.262506 -0.151683
C7    C     C_R   0.372316 0.586989 0.771399 -0.261844
C8    C     C_R   0.627684 0.413011 0.228601 -0.261844
C9    C     C_R   0.366319 0.610219 0.852818 0.298114
C10   C     C_R   0.633681 0.389781 0.147182 0.298114
C11   C     C_R   0.504314 0.561100 0.901612 0.186151
C12   C     C_R   0.495686 0.438900 0.098388 0.186151
C13   C     C_R   0.654982 0.505699 0.867178 0.293138
C14   C     C_R   0.345018 0.494301 0.132821 0.293138
C15   C     C_R   0.658638 0.485965 0.785265 -0.241908
C16   C     C_R   0.341362 0.514034 0.214735 -0.241908
N3    N     N_2   0.486144 0.561579 0.984653 -0.124778
N4    N     N_2   0.513856 0.438421 0.015347 -0.124777
C17   C     C_1   0.499998 0.065378 0.500003 -0.149648
C18   C     C_1   0.500002 0.934622 0.499997 -0.149648
H1    H     H_    0.734737 0.377654 0.266148 0.207854
H2    H     H_    0.265263 0.622346 0.733852 0.207854
H3    H     H_    0.772839 0.442749 0.758723 0.208282
H4    H     H_    0.227161 0.557251 0.241277 0.208282
N5    N     N_R   0.780464 0.317332 0.115018 0.187738
O9    O     O_R   0.766278 0.244777 0.049223 -0.238233
O10   O     O_R   0.923363 0.307385 0.156223 -0.311387
N6    N     N_R   0.219536 0.682668 0.884982 0.187738
O11   O     O_R   0.233722 0.755223 0.950777 -0.238234
O12   O     O_R   0.076637 0.692613 0.843777 -0.311387
N7    N     N_R   0.806588 0.476104 0.914511 0.196364
O13   O     O_R   0.919352 0.381375 0.891255 -0.262127
O14   O     O_R   0.843359 0.557844 0.975355 -0.204717
N8    N     N_R   0.193412 0.523895 0.085489 0.196363
O15   O     O_R   0.156641 0.442155 0.024645 -0.204717
O16   O     O_R   0.080648 0.618625 0.108744 -0.262127

loop_
_geom_bond_atom_site_label_1
_geom_bond_atom_site_label_2
_geom_bond_distance
_ccdc_geom_bond_type
C7    C9    1.398558 A    
C2    C18   1.407033 S    
O7    Cu2   1.948367 S    
N3    N4    1.248078 D    
C13   C15   1.401211 A    
O7    C3    1.279571 A    
C14   C16   1.401211 A    
C17   C18   1.189342 T    
O6    C4    1.287672 A    
N7    O13   1.301589 A    
C15   H3    1.083351 S    
C13   N7    1.434841 S    
N6    O12   1.301627 A    
N5    O10   1.301626 A    
Cu1   Cu2   2.636980 S    
O5    C3    1.287672 A    
N7    O14   1.300648 A    
O2    C2    1.275133 A    
O3    Cu2   1.935644 S    
O8    C4    1.279571 A    
O1    C1    1.275133 A    
C8    H1    1.083196 S    
C11   N3    1.417400 S    
N6    O11   1.301208 A    
C5    C7    1.402947 A    
N5    O9    1.301208 A    
C12   C14   1.419650 A    
C6    C8    1.402947 A    
C11   C13   1.419650 A    
C9    C11   1.409793 A    
O2    Cu2   1.935696 S    
C10   C12   1.409792 A    
C12   N4    1.417401 S    
O1    Cu1   1.935697 S    
C14   N8    1.434841 S    
N1    N2    1.198080 T    
C5    C15   1.395654 A    
N8    O16   1.301589 A    
O5    Cu1   1.933425 S    
C6    C16   1.395654 A    
C16   H4    1.083351 S    
O4    C2    1.275127 A    
Cu1   N2    1.981481 S    
C4    C6    1.468202 S    
O4    Cu1   1.935644 S    
Cu2   N1    1.981481 S    
C3    C5    1.468202 S    
O6    Cu2   1.933426 S    
C1    C17   1.407033 S    
N8    O15   1.300647 A    
C10   N5    1.442110 S    
O8    Cu1   1.948369 S    
C8    C10   1.398558 A    
O3    C1    1.275127 A    
C7    H2    1.083196 S    
C9    N6    1.442110 S    
