data_mof_unit_836.cif
_audit_creation_date              2012-10-26T19:55:48-0400
_audit_creation_method            fapswitch 2.2
_symmetry_space_group_name_H-M    P1
_symmetry_Int_Tables_number       1
_space_group_crystal_system       triclinic
_cell_length_a                    10.889547
_cell_length_b                    10.826919
_cell_length_c                    9.629524
_cell_angle_alpha                 90.347105
_cell_angle_beta                  90.551045
_cell_angle_gamma                 94.853959
_cell_volume                      1131.17229087

loop_
_atom_site_label
_atom_site_type_symbol
_atom_type_description
_atom_site_fract_x
_atom_site_fract_y
_atom_site_fract_z
_atom_type_partial_charge
C1    C     C_R   0.490345 0.261980 0.499609 0.601796
C2    C     C_R   0.816218 0.413806 0.987333 -0.099203
C3    C     C_R   0.758828 0.294159 0.971483 -0.095407
C4    C     C_R   0.262517 0.503845 0.498893 0.600085
C5    C     C_R   0.761205 0.233576 0.843253 -0.078971
C6    C     C_R   0.820602 0.292950 0.730945 -0.041232
C7    C     C_R   0.877690 0.413813 0.746252 0.054679
C8    C     C_R   0.286671 0.101215 0.644918 0.219772
C9    C     C_R   0.211228 0.027850 0.733667 -0.066632
C10   C     C_R   0.225971 0.902933 0.746826 -0.150192
C11   C     C_R   0.314367 0.849805 0.668951 -0.123791
C12   C     C_R   0.147164 0.377854 0.973907 -0.127686
C13   C     C_R   0.398175 0.923267 0.585168 0.000602
C14   C     C_R   0.388617 0.053162 0.577871 0.039616
C15   C     C_R   0.477176 0.126445 0.497638 0.011885
C16   C     C_R   0.497314 0.736937 0.500618 0.528001
C17   C     C_R   0.561894 0.069434 0.416169 -0.161748
C18   C     C_R   0.565319 0.942410 0.416883 -0.135873
C19   C     C_R   0.486811 0.869504 0.502568 0.021071
C20   C     C_R   0.659907 0.673932 0.146345 -0.149487
C21   C     C_R   0.737401 0.759875 0.075470 -0.152814
C22   C     C_R   0.737008 0.760255 0.931953 0.196076
C23   C     C_R   0.934144 0.525042 0.379856 -0.155076
C24   C     C_R   0.659032 0.674244 0.858624 -0.055782
C25   C     C_R   0.576267 0.587507 0.926569 0.114291
C26   C     C_R   0.576544 0.587309 0.075982 0.141143
C27   C     C_R   0.433602 0.411799 0.072481 0.004770
C28   C     C_R   0.737327 0.499865 0.501024 0.535353
C29   C     C_R   0.434393 0.411355 0.924745 0.000651
C30   C     C_R   0.161447 0.505843 0.000632 -0.121796
C31   C     C_R   0.137203 0.551406 0.132620 -0.078380
C32   C     C_R   0.102389 0.468463 0.238852 0.059845
C33   C     C_R   0.091726 0.340267 0.212388 -0.069605
C34   C     C_R   0.871210 0.501865 0.503579 0.001987
C35   C     C_R   0.113410 0.295255 0.079904 -0.124916
C36   C     C_R   0.937346 0.476325 0.625216 -0.016020
C37   C     C_R   0.065161 0.491703 0.623021 -0.114273
C38   C     C_R   0.127930 0.505534 0.497226 0.026670
C39   C     C_R   0.059371 0.512255 0.372898 -0.031930
C40   C     C_R   0.875913 0.473686 0.875438 -0.086397
Cl1   Cl    Cl    0.225831 0.237466 0.595128 -0.692956
Cl2   Cl    Cl    0.839052 0.865470 0.842829 -0.686188
Cu1   Cu    Cu3+1 0.499990 0.499990 0.640660 0.953898
Cu2   Cu    Cu3+1 0.500010 0.500010 0.359340 0.944277
H1    H     H_    0.164363 0.341377 0.872095 0.154700
H2    H     H_    0.378858 0.339553 0.126385 0.135566
H3    H     H_    0.190370 0.570052 0.919339 0.112326
H4    H     H_    0.671814 0.676598 0.256069 0.184540
H5    H     H_    0.800163 0.824712 0.132966 0.148864
H6    H     H_    0.670368 0.675607 0.749116 0.209118
H7    H     H_    0.381488 0.337994 0.868550 0.142084
H8    H     H_    0.143913 0.650456 0.151546 0.114920
H9    H     H_    0.062641 0.275616 0.293497 0.147910
H10   H     H_    0.103419 0.196536 0.059126 0.127634
H11   H     H_    0.884054 0.539639 0.284931 0.124448
H12   H     H_    0.712111 0.248740 0.058385 0.117300
H13   H     H_    0.115465 0.479158 0.717254 0.140068
H14   H     H_    0.918981 0.566909 0.888799 0.134212
H15   H     H_    0.812650 0.460745 0.085797 0.116481
H16   H     H_    0.716560 0.140950 0.830640 0.155458
H17   H     H_    0.821317 0.245353 0.631702 0.117497
H18   H     H_    0.628229 0.124139 0.353580 0.124605
H19   H     H_    0.134693 0.065884 0.785259 0.168399
H20   H     H_    0.163567 0.845410 0.811043 0.150029
H21   H     H_    0.312649 0.750378 0.674022 0.155575
H22   H     H_    0.632700 0.900980 0.353345 0.121489
N1    N     N_R   0.501190 0.501210 0.147910 -0.241894
N2    N     N_R   0.501230 0.501290 0.852040 -0.248415
O1    O     O_R   0.499990 0.319640 0.618810 -0.473550
O2    O     O_R   0.500000 0.319660 0.381240 -0.501102
O3    O     O_R   0.319640 0.500000 0.618780 -0.490101
O4    O     O_R   0.319650 0.500020 0.381210 -0.479201
O5    O     O_R   0.500000 0.680340 0.618760 -0.537925
O6    O     O_R   0.500010 0.680360 0.381190 -0.521251
O7    O     O_R   0.680350 0.499980 0.618790 -0.512517
O8    O     O_R   0.680360 0.500000 0.381220 -0.537378

loop_
_geom_bond_atom_site_label_1
_geom_bond_atom_site_label_2
_ccdc_geom_bond_type
Cu1   O5    S    
C27   C29   A    
C7    C36   S    
C31   H8    S    
C21   H5    S    
C22   Cl2   S    
C5    C6    A    
C16   O6    A    
C26   N1    A    
C6    H17   S    
C36   C37   A    
C30   C31   A    
C18   C19   A    
C32   C39   S    
Cu2   O8    S    
C8    C9    A    
C8    C14   A    
C7    C40   A    
Cu2   O2    S    
C1    C15   S    
C9    C10   A    
C28   C34   S    
Cu1   O1    S    
C13   C14   A    
C35   H10   S    
C33   H9    S    
C25   N2    A    
C24   H6    S    
C40   H14   S    
C13   C19   A    
C16   O5    A    
C30   H3    S    
C8    Cl1   S    
C2    H15   S    
Cu1   N2    S    
C25   C26   A    
C1    O1    A    
Cu1   Cu2   S    
C37   C38   A    
C17   H18   S    
C29   N2    A    
C3    H12   S    
C31   C32   A    
C23   C34   A    
C17   C18   A    
C24   C25   A    
C12   C35   A    
Cu2   O6    S    
C20   H4    S    
C27   H2    S    
C4    C38   S    
C22   C24   A    
C28   O8    A    
C4    O4    A    
Cu1   O7    S    
C29   H7    S    
C15   C17   A    
Cu1   O3    S    
C5    H16   S    
C12   C30   A    
C9    H19   S    
C10   H20   S    
C12   H1    S    
C3    C5    A    
C23   H11   S    
C6    C7    A    
C18   H22   S    
C1    O2    A    
C32   C33   A    
C2    C3    A    
C11   C13   A    
C38   C39   A    
C20   C26   A    
C16   C19   S    
C23   C39   A    
C33   C35   A    
Cu2   O4    S    
C34   C36   A    
C27   N1    A    
C10   C11   A    
C2    C40   A    
C20   C21   A    
C14   C15   A    
Cu2   N1    S    
C21   C22   A    
C28   O7    A    
C4    O3    A    
C37   H13   S    
C11   H21   S    
