data_mof_unit_3562.cif
_audit_creation_date              2012-12-11T16:19:43-0500
_audit_creation_method            fapswitch 2.2
_symmetry_space_group_name_H-M    P1
_symmetry_Int_Tables_number       1
_space_group_crystal_system       triclinic
_cell_length_a                    13.574302
_cell_length_b                    14.038781
_cell_length_c                    30.069938
_cell_angle_alpha                 97.711736
_cell_angle_beta                  89.989865
_cell_angle_gamma                 118.894208
_cell_volume                      4957.77600841

loop_
_atom_site_label
_atom_site_type_symbol
_atom_type_description
_atom_site_fract_x
_atom_site_fract_y
_atom_site_fract_z
_atom_type_partial_charge
C1    C     C_R   0.719182 0.098125 0.569215 0.545036
C2    C     C_1   0.343769 0.663059 0.764088 -0.005875
C3    C     C_1   0.346348 0.669912 0.724801 0.003992
C4    C     C_R   0.383763 0.789114 0.551382 0.538529
C5    C     C_R   0.302018 0.600471 0.897712 0.020704
C6    C     C_3   0.265442 0.039377 0.716377 0.181337
C7    C     C_3   0.290613 0.233320 0.717442 -0.215302
C8    C     C_3   0.291724 0.251323 0.769464 -0.230503
C9    C     C_1   0.300366 0.199614 0.877632 -0.003907
C10   C     C_3   0.338697 0.155088 0.701722 0.052082
C11   C     C_3   0.247166 0.053848 0.767256 -0.176986
C12   C     C_R   0.348524 0.680668 0.678303 0.040671
C13   C     C_3   0.325410 0.174405 0.789705 0.020298
C14   C     C_3   0.448542 0.210207 0.778508 -0.236464
C15   C     C_3   0.457295 0.204765 0.726763 -0.274850
C16   C     C_R   0.397860 0.118785 0.569332 0.546489
C17   C     C_1   0.313873 0.184491 0.838361 -0.057040
C18   C     C_1   0.350662 0.146574 0.653026 0.001306
C19   C     C_1   0.367328 0.136241 0.613870 0.029749
C20   C     C_3   0.693636 0.135122 0.727883 -0.195372
C21   C     C_3   0.900669 0.266828 0.722840 -0.211636
C22   C     C_3   0.907670 0.284224 0.775016 -0.123542
C23   C     C_R   0.256374 0.678027 0.656348 -0.101721
C24   C     C_1   0.889857 0.199511 0.880154 0.013230
C25   C     C_3   0.801364 0.151787 0.704086 0.006224
C26   C     C_3   0.708505 0.133642 0.779327 0.141791
C27   C     C_3   0.835507 0.169944 0.792128 0.076995
C28   C     C_R   0.719950 0.095461 0.442702 0.550164
C29   C     C_3   0.860064 0.078963 0.766439 -0.077354
C30   C     C_3   0.830072 0.063118 0.714945 -0.195944
C31   C     C_1   0.858062 0.183621 0.841171 -0.004087
C32   C     C_1   0.782549 0.141414 0.655215 -0.071383
C33   C     C_1   0.760491 0.126712 0.615348 -0.006619
C34   C     C_R   0.264170 0.704454 0.613006 -0.103654
C35   C     C_3   0.350164 0.785500 0.269649 -0.212684
C36   C     C_3   0.247657 0.582499 0.271247 -0.258381
C37   C     C_3   0.234005 0.565523 0.219215 -0.195092
C38   C     C_1   0.308179 0.606667 0.110925 0.040375
C39   C     C_3   0.356363 0.691375 0.289163 0.003946
C40   C     C_R   0.382510 0.784926 0.424857 0.546616
C41   C     C_3   0.349661 0.767907 0.217672 -0.270278
C42   C     C_3   0.340321 0.654425 0.200365 -0.002718
C43   C     C_3   0.448808 0.655606 0.219021 0.154211
C44   C     C_3   0.459914 0.680478 0.271774 0.160990
C45   C     C_R   0.253021 0.662719 0.834033 -0.097506
C46   C     C_1   0.326970 0.633833 0.150979 -0.007228
C47   C     C_1   0.360790 0.711810 0.338516 -0.014032
C48   C     C_1   0.367539 0.738070 0.378590 0.030832
C49   C     C_R   0.360568 0.131942 0.399969 0.021043
C50   C     C_R   0.423608 0.233331 0.384430 -0.121512
C51   C     C_R   0.410633 0.241423 0.339379 -0.106239
C52   C     C_R   0.396772 0.114527 0.442815 0.542683
C53   C     C_R   0.334399 0.148584 0.309706 0.036934
C54   C     C_R   0.264901 0.049839 0.325519 -0.116195
C55   C     C_R   0.277352 0.041584 0.370605 -0.125022
C56   C     C_R   0.235351 0.636726 0.877458 -0.124711
C57   C     C_R   0.237136 0.093136 0.148472 -0.110937
C58   C     C_R   0.227224 0.113161 0.105075 -0.123904
C59   C     C_R   0.416824 0.269344 0.116064 -0.063149
C60   C     C_R   0.426507 0.249037 0.159552 -0.039941
C61   C     C_R   0.334910 0.163663 0.176210 0.039131
C62   C     C_1   0.335543 0.156346 0.223024 -0.000934
C63   C     C_1   0.334220 0.152402 0.262568 -0.013451
C64   C     C_R   0.364777 0.734513 0.591477 0.011973
C65   C     C_R   0.314874 0.204834 0.089311 0.015535
C66   C     C_R   0.779387 0.134106 0.402425 0.013472
C67   C     C_R   0.392132 0.598957 0.875090 -0.119634
C68   C     C_R   0.811872 0.068032 0.373865 -0.067674
C69   C     C_R   0.839124 0.089756 0.330274 -0.059863
C70   C     C_R   0.834683 0.177800 0.315288 0.037848
C71   C     C_R   0.813044 0.249890 0.344791 -0.102038
C72   C     C_R   0.786212 0.228674 0.388317 -0.131464
C73   C     C_R   0.872807 0.297476 0.165556 0.275824
C74   C     C_R   0.898173 0.304977 0.120553 -0.114305
C75   C     C_R   0.860474 0.115647 0.108744 -0.133217
C76   C     C_R   0.454052 0.729322 0.612736 -0.129024
C77   C     C_R   0.835779 0.107777 0.153347 -0.167968
C78   C     C_R   0.409382 0.624754 0.831603 -0.109849
C79   C     C_R   0.846523 0.199381 0.182210 0.027212
C80   C     C_1   0.841469 0.193456 0.229282 0.067495
C81   C     C_1   0.839835 0.187337 0.268644 0.037199
C82   C     C_R   0.897573 0.215981 0.092587 -0.026821
C83   C     C_R   0.284230 0.232619 0.922763 0.544388
C84   C     C_R   0.266263 0.547238 0.938127 0.535191
C85   C     C_R   0.944138 0.221289 0.923884 0.547761
C86   C     C_R   0.292321 0.242576 0.049111 0.552564
C87   C     C_R   0.274791 0.558215 0.064893 0.551820
C88   C     C_R   0.446007 0.702970 0.656118 -0.098139
C89   C     C_R   0.337498 0.653105 0.810679 0.053353
C90   C     C_R   0.953733 0.232649 0.050232 0.552990
C91   C     C_3   0.030839 0.356540 0.795060 -0.419771
C92   C     C_3   0.979623 0.097276 0.774966 -0.424051
Cr1   Cr    Cr6+3 0.583400 0.162540 0.509180 1.026057
Cr2   Cr    Cr6+3 0.584070 0.916690 0.495550 1.053349
Cr3   Cr    Cr6+3 0.332550 0.920810 0.495240 1.053129
Cr4   Cr    Cr6+3 0.086700 0.177000 0.983690 1.033825
Cr5   Cr    Cr6+3 0.336880 0.419130 0.994740 1.054122
Cr6   Cr    Cr6+3 0.084850 0.422220 0.995960 1.036031
H1    H     H_    0.165477 0.638869 0.894047 0.134992
H2    H     H_    0.264711 0.996683 0.783785 0.139249
H3    H     H_    0.197340 0.685025 0.817892 0.123180
H4    H     H_    0.506014 0.295648 0.795451 0.121662
H5    H     H_    0.688110 0.195026 0.798165 0.090881
H6    H     H_    0.679505 0.205097 0.723605 0.072266
H7    H     H_    0.980601 0.273841 0.710098 0.138056
H8    H     H_    0.888890 0.332420 0.710677 0.117228
H9    H     H_    0.867017 0.335352 0.785671 0.120139
H10   H     H_    0.756990 0.979818 0.703934 0.166802
H11   H     H_    0.900079 0.066832 0.694749 0.151586
H12   H     H_    0.342636 0.314278 0.705964 0.104571
H13   H     H_    0.805330 0.000272 0.778893 0.205411
H14   H     H_    0.180591 0.660673 0.673494 0.139689
H15   H     H_    0.618617 0.058499 0.711407 0.184655
H16   H     H_    0.277584 0.773200 0.202882 0.139785
H17   H     H_    0.271593 0.786898 0.279276 0.117589
H18   H     H_    0.251037 0.511646 0.282425 0.147919
H19   H     H_    0.172517 0.584191 0.285223 0.157833
H20   H     H_    0.158795 0.571430 0.208654 0.184892
H21   H     H_    0.216690 0.481250 0.205087 0.210218
H22   H     H_    0.194045 0.707747 0.597544 0.167967
H23   H     H_    0.203776 0.200237 0.702377 0.187820
H24   H     H_    0.458470 0.610551 0.285868 0.141516
H25   H     H_    0.521959 0.722346 0.205362 0.145338
H26   H     H_    0.421107 0.867252 0.284106 0.207088
H27   H     H_    0.428244 0.834967 0.206978 0.145579
H28   H     H_    0.147928 0.061368 0.085157 0.136112
H29   H     H_    0.166111 0.026637 0.161239 0.122935
H30   H     H_    0.205342 0.977806 0.302591 0.118566
H31   H     H_    0.227788 0.962337 0.381531 0.137364
H32   H     H_    0.488044 0.304334 0.406308 0.134488
H33   H     H_    0.532690 0.752265 0.597087 0.135966
H34   H     H_    0.208990 0.237967 0.780237 0.107042
H35   H     H_    0.502648 0.303766 0.181003 0.186914
H36   H     H_    0.486056 0.339819 0.104640 0.176224
H37   H     H_    0.464086 0.318361 0.327238 0.128577
H38   H     H_    0.924853 0.382087 0.108142 0.171702
H39   H     H_    0.810421 0.318722 0.333379 0.145550
H40   H     H_    0.762835 0.281952 0.409675 0.135755
H41   H     H_    0.808662 0.995507 0.384021 0.173099
H42   H     H_    0.814272 0.031760 0.165965 0.125030
H43   H     H_    0.857893 0.045257 0.087826 0.149973
H44   H     H_    0.475185 0.617537 0.813578 0.103617
H45   H     H_    0.352848 0.338809 0.782790 0.124869
H46   H     H_    0.856804 0.034135 0.307486 0.154575
H47   H     H_    0.444813 0.571225 0.889761 0.134106
H48   H     H_    0.517611 0.705072 0.673092 0.127822
H49   H     H_    0.158152 0.032011 0.772327 0.160432
H50   H     H_    0.989884 0.957268 0.657945 0.368071
H51   H     H_    0.069326 0.435721 0.781519 0.134385
H52   H     H_    0.034517 0.376904 0.832187 0.144643
H53   H     H_    0.083859 0.318015 0.786654 0.134910
H54   H     H_    0.585472 0.837625 0.775575 0.362528
H55   H     H_    0.012594 0.131019 0.810578 0.138075
H56   H     H_    0.495627 0.152606 0.715096 0.115597
H57   H     H_    0.978603 0.017290 0.766748 0.173931
H58   H     H_    0.036507 0.152088 0.752284 0.155742
H59   H     H_    0.660245 0.910369 0.242655 0.338728
H60   H     H_    0.394738 0.418585 0.248587 0.342666
H61   H     H_    0.950773 0.499451 0.267207 0.364420
H62   H     H_    0.513764 0.288717 0.718687 0.127824
H63   H     H_    0.476710 0.156435 0.791360 0.184842
H64   H     H_    0.314571 0.994544 0.711873 0.135154
O1    O     O_R   0.494060 0.188820 0.559230 -0.518526
O2    O     O_R   0.170530 0.527770 0.952070 -0.517844
O3    O     O_R   0.987720 0.318450 0.945940 -0.500511
O4    O     O_R   0.678470 0.153390 0.554100 -0.497053
O5    O     O_R   0.976400 0.159230 0.032040 -0.513420
O6    O     O_R   0.193740 0.188470 0.029020 -0.506078
O7    O     O_R   0.364860 0.335530 0.039220 -0.492493
O8    O     O_R   0.330170 0.515340 0.044800 -0.470198
O9    O     O_R   0.177230 0.536000 0.050040 -0.510211
O10   O     O_R   0.993930 0.326080 0.036750 -0.497713
O11   O     O_3   0.169480 0.339450 0.991460 -0.253891
O12   O     O_R   0.480140 0.824500 0.445020 -0.469578
O13   O     O_R   0.697870 0.003940 0.549410 -0.509617
O14   O     O_R   0.480980 0.827230 0.535590 -0.507986
O15   O     O_R   0.309390 0.811640 0.537920 -0.501179
O16   O     O_R   0.341810 0.023400 0.546180 -0.468683
O17   O     O_R   0.493150 0.185870 0.461540 -0.517694
O18   O     O_R   0.677630 0.150660 0.463530 -0.505712
O19   O     O_R   0.696960 0.000990 0.451710 -0.493223
O20   O     O_2   0.158840 0.912266 0.637210 -0.281359
O21   O     O_2   0.067027 0.850084 0.705582 -0.301131
O22   O     O_3   0.057685 0.012393 0.677485 -0.582451
O23   O     O_R   0.308480 0.808690 0.440220 -0.521106
O24   O     O_2   0.637480 0.992044 0.841014 -0.289529
O25   O     O_2   0.491292 0.991031 0.793484 -0.299017
O26   O     O_3   0.600738 0.896874 0.757609 -0.572571
O27   O     O_2   0.604748 0.824916 0.342023 -0.266949
O28   O     O_2   0.686718 0.769977 0.278363 -0.259352
O29   O     O_3   0.616600 0.909228 0.269166 -0.566069
O30   O     O_2   0.442773 0.506258 0.149441 -0.265512
O31   O     O_2   0.571502 0.550465 0.214803 -0.238228
O32   O     O_3   0.357526 0.423235 0.221263 -0.559831
O33   O     O_2   0.924428 0.510888 0.176888 -0.288392
O34   O     O_R   0.340970 0.020670 0.455610 -0.502338
O35   O     O_2   0.760036 0.382617 0.212703 -0.265646
O36   O     O_3   0.959211 0.441136 0.247985 -0.572328
O37   O     O_3   0.500010 0.000010 0.499990 -0.254580
O38   O     O_R   0.969690 0.151000 0.934080 -0.500100
O39   O     O_R   0.187530 0.180840 0.938210 -0.497053
O40   O     O_R   0.358160 0.327300 0.941250 -0.512336
O41   O     O_R   0.323950 0.507710 0.953980 -0.506129
S1    S     S_3+6 0.134243 0.949431 0.683060 -0.040537
S2    S     S_3+6 0.606629 0.001365 0.794390 -0.045863
S3    S     S_3+6 0.595857 0.797952 0.291639 -0.030259
S4    S     S_3+6 0.457012 0.531856 0.199899 -0.023120
S5    S     S_3+6 0.877710 0.411779 0.200606 -0.009277

loop_
_geom_bond_atom_site_label_1
_geom_bond_atom_site_label_2
_ccdc_geom_bond_type
C7    C10   S    
C66   C68   A    
Cr3   O34   S    
O31   S4    D    
C90   O5    A    
C27   C29   S    
C86   O7    A    
C53   C63   S    
C41   C42   S    
C5    C56   A    
C28   C66   S    
C52   O34   A    
C77   H42   S    
C41   H16   S    
C5    C67   A    
Cr1   O17   S    
C1    C33   S    
C7    C8    S    
C71   H39   S    
C65   C86   S    
C53   C54   A    
C69   H46   S    
C23   H14   S    
C12   C23   A    
Cr3   O23   S    
C26   C27   S    
C29   C30   S    
C20   C26   S    
O22   S1    S    
O21   S1    D    
C36   C37   S    
Cr1   O37   S    
C7    H23   S    
C18   C19   T    
C10   C15   S    
C78   H44   S    
C20   H15   S    
C68   H41   S    
C76   H33   S    
C14   H4    S    
C20   C25   S    
Cr1   O1    S    
C22   H9    S    
Cr5   O7    S    
Cr4   O38   S    
Cr2   O37   S    
C42   C46   S    
C37   C42   S    
C70   C81   S    
C15   H56   S    
C21   C25   S    
C3    C12   S    
C75   H43   S    
C51   H37   S    
O28   S3    D    
H61   O36   S    
C66   C72   A    
C37   H20   S    
C6    H64   S    
C45   C56   A    
C68   C69   A    
C55   H31   S    
C74   H38   S    
C8    H34   S    
C22   C91   S    
Cr4   O6    S    
C35   H17   S    
C70   C71   A    
Cr2   O19   S    
C8    H45   S    
C50   H32   S    
C24   C85   S    
Cr5   O40   S    
C21   H8    S    
C84   O2    A    
Cr3   O16   S    
C83   O39   A    
Cr2   O13   S    
Cr6   O10   S    
C23   C34   A    
C25   C32   S    
C72   H40   S    
C59   C60   A    
C78   C89   A    
C13   C14   S    
C61   C62   S    
C67   C78   A    
Cr5   O41   S    
C83   O40   A    
C44   S3    S    
Cr1   O18   S    
C16   O16   A    
C77   C79   A    
C16   O1    A    
C34   H22   S    
O26   S2    S    
Cr5   O11   S    
Cr4   O11   S    
O33   S5    D    
C30   H11   S    
C43   S4    S    
C41   H27   S    
Cr4   O39   S    
C86   O6    A    
C6    C11   S    
C91   H51   S    
C5    C84   S    
C12   C88   A    
C40   O23   A    
C49   C55   A    
C87   O8    A    
C27   C31   S    
C67   H47   S    
C79   C80   S    
C60   C61   A    
C51   C53   A    
O29   S3    S    
C2    C89   S    
C35   C39   S    
C43   C44   S    
H59   O29   S    
C6    S1    S    
C62   C63   T    
O32   S4    S    
C26   H5    S    
C28   O18   A    
Cr6   O11   S    
C58   C65   A    
C47   C48   T    
C37   H21   S    
C4    O15   A    
O27   S3    D    
H50   O22   S    
C49   C52   S    
C87   O9    A    
O25   S2    D    
C34   C64   A    
C50   C51   A    
C64   C76   A    
Cr4   O5    S    
C92   H58   S    
H60   O32   S    
C36   H19   S    
C75   C77   A    
C92   H55   S    
C45   H3    S    
Cr2   O12   S    
Cr6   O9    S    
C85   O38   A    
C9    C17   T    
C73   S5    S    
C9    C83   S    
Cr1   O4    S    
C58   H28   S    
C22   C27   S    
O30   S4    D    
O20   S1    D    
C26   S2    S    
C42   C43   S    
C36   H18   S    
C73   C74   A    
C43   H25   S    
C45   C89   A    
C84   O41   A    
C39   C47   S    
C74   C82   A    
C25   C30   S    
C40   C48   S    
C76   C88   A    
C54   C55   A    
C35   H26   S    
O24   S2    D    
C30   H10   S    
C29   H13   S    
C36   C39   S    
C80   C81   T    
C73   C79   A    
C57   H29   S    
C91   H52   S    
Cr6   O2    S    
C75   C82   A    
C57   C61   A    
C39   C44   S    
C20   H6    S    
C4    C64   S    
C59   H36   S    
C82   C90   S    
C7    H12   S    
C13   C17   S    
C38   C87   S    
C85   O3    A    
C32   C33   T    
C14   H63   S    
C2    C3    T    
C24   C31   T    
C15   H62   S    
C59   C65   A    
C38   C46   T    
C91   H53   S    
C11   C13   S    
C11   H49   S    
C57   C58   A    
C54   H30   S    
C1    O4    A    
C10   C18   S    
C28   O19   A    
C44   H24   S    
Cr3   O15   S    
C92   H57   S    
C29   C92   S    
C69   C70   A    
C35   C41   S    
C52   O17   A    
Cr6   O3    S    
C6    C10   S    
Cr5   O8    S    
H54   O26   S    
C8    C13   S    
C71   C72   A    
C40   O12   A    
Cr3   O37   S    
C49   C50   A    
C4    O14   A    
C90   O10   A    
C88   H48   S    
C14   C15   S    
C11   H2    S    
O35   S5    D    
C56   H1    S    
C21   C22   S    
C60   H35   S    
O36   S5    S    
C21   H7    S    
Cr2   O14   S    
C1    O13   A    
C16   C19   S    
