data_mof_unit_96.cif
_audit_creation_date              2012-12-11T15:39:36-0500
_audit_creation_method            fapswitch 2.2
_symmetry_space_group_name_H-M    P1
_symmetry_Int_Tables_number       1
_space_group_crystal_system       triclinic
_cell_length_a                    17.367663
_cell_length_b                    24.56169
_cell_length_c                    14.864776
_cell_angle_alpha                 90.041698
_cell_angle_beta                  125.656285
_cell_angle_gamma                 89.932747
_cell_volume                      5152.24266765

loop_
_atom_site_label
_atom_site_type_symbol
_atom_type_description
_atom_site_fract_x
_atom_site_fract_y
_atom_site_fract_z
_atom_type_partial_charge
C1    C     C_R   0.310437 0.375953 0.905089 -0.185198
C2    C     C_R   0.648805 0.348738 0.092161 -0.221033
C3    C     C_R   0.810442 0.875948 0.905090 -0.185187
C4    C     C_R   0.148807 0.848738 0.092162 -0.221010
C5    C     C_R   0.318420 0.642692 0.999613 0.047732
C6    C     C_R   0.620007 0.680892 0.997652 0.150134
C7    C     C_R   0.818421 0.142694 0.999610 0.047723
C8    C     C_R   0.120010 0.180892 0.997654 0.150145
C9    C     C_R   0.569882 0.501169 0.370674 0.013830
C10   C     C_R   0.551830 0.500607 0.726723 0.015553
C11   C     C_R   0.069876 0.001169 0.370672 0.013841
C12   C     C_R   0.051832 0.000607 0.726726 0.015551
C13   C     C_R   0.195944 0.500354 0.631891 0.057997
C14   C     C_R   0.824507 0.500214 0.270514 0.055171
C15   C     C_R   0.695953 0.000353 0.631887 0.057930
C16   C     C_R   0.324510 0.000217 0.270528 0.055188
C17   C     C_R   0.071145 0.547689 0.454951 0.082838
C18   C     C_R   0.981806 0.547459 0.358034 0.077620
C19   C     C_R   0.571145 0.047694 0.454972 0.082855
C20   C     C_R   0.481803 0.047469 0.358063 0.077669
C21   C     C_R   0.115243 0.500016 0.515133 0.026698
C22   C     C_R   0.927096 0.499841 0.324293 0.019508
C23   C     C_R   0.615254 0.000018 0.515129 0.026631
C24   C     C_R   0.427099 0.999848 0.324308 0.019512
C25   C     C_R   0.070885 0.450511 0.461758 -0.165940
C26   C     C_R   0.977342 0.450404 0.366765 -0.158124
C27   C     C_R   0.570900 0.950515 0.461738 -0.165927
C28   C     C_R   0.477350 0.950411 0.366754 -0.158155
C29   C     C_3   0.970128 0.608074 0.362307 -0.251379
C30   C     C_3   0.070229 0.607771 0.472204 -0.269250
C31   C     C_3   0.470119 0.108080 0.362381 -0.251382
C32   C     C_3   0.570215 0.107770 0.472282 -0.269264
C33   C     C_R   0.270358 0.737278 0.959703 0.471849
C34   C     C_R   0.677043 0.775283 0.063191 0.482562
C35   C     C_R   0.770366 0.237280 0.959719 0.471997
C36   C     C_R   0.177019 0.275289 0.063166 0.482581
C37   C     C_R   0.718684 0.279556 0.958886 -0.261955
C38   C     C_R   0.224950 0.319779 0.060949 -0.177365
C39   C     C_R   0.218673 0.779555 0.958862 -0.261953
C40   C     C_R   0.724983 0.819770 0.060979 -0.177380
C41   C     C_R   0.664513 0.271544 0.999040 0.125341
C42   C     C_R   0.250452 0.319702 0.987511 0.113689
C43   C     C_R   0.164516 0.771544 0.999041 0.125345
C44   C     C_R   0.750455 0.819699 0.987513 0.113682
C45   C     C_R   0.405725 0.627931 0.092776 -0.052205
C46   C     C_R   0.556562 0.650384 0.906942 -0.139431
C47   C     C_R   0.905725 0.127931 0.092775 -0.052205
C48   C     C_R   0.056565 0.150384 0.906943 -0.139433
C49   C     C_R   0.661070 0.221741 0.041298 -0.156865
C50   C     C_R   0.223433 0.277728 0.911439 -0.160388
C51   C     C_R   0.161090 0.721743 0.041332 -0.156866
C52   C     C_R   0.723389 0.777739 0.911402 -0.160380
C53   C     C_R   0.211574 0.678432 0.040430 -0.250358
C54   C     C_R   0.676508 0.733953 0.913284 -0.239134
C55   C     C_R   0.711557 0.178431 0.040399 -0.250503
C56   C     C_R   0.176560 0.233939 0.913326 -0.239159
C57   C     C_R   0.264777 0.686384 0.998487 -0.009330
C58   C     C_R   0.656170 0.731615 0.991182 0.002510
C59   C     C_R   0.764776 0.186386 0.998483 -0.009325
C60   C     C_R   0.156184 0.231611 0.991189 0.002482
C61   C     C_R   0.608239 0.550383 0.630214 -0.164602
C62   C     C_R   0.611446 0.550570 0.539230 -0.156502
C63   C     C_R   0.108239 0.050383 0.630215 -0.164598
C64   C     C_R   0.111442 0.050570 0.539228 -0.156476
C65   C     C_R   0.603829 0.501330 0.486852 0.124073
C66   C     C_R   0.596400 0.500981 0.668112 0.131987
C67   C     C_R   0.103824 0.001329 0.486849 0.124073
C68   C     C_R   0.096401 0.000980 0.668114 0.131981
C69   C     C_R   0.612739 0.452004 0.539757 -0.139773
C70   C     C_R   0.609568 0.451862 0.630672 -0.139996
C71   C     C_R   0.112734 0.952004 0.539755 -0.139781
C72   C     C_R   0.109567 0.951862 0.630673 -0.139997
C73   C     C_R   0.555569 0.455821 0.307767 -0.029947
C74   C     C_R   0.521446 0.454811 0.752902 -0.088377
C75   C     C_R   0.055563 0.955820 0.307764 -0.030012
C76   C     C_R   0.021448 0.954811 0.752904 -0.088376
C77   C     C_R   0.245372 0.545421 0.695222 -0.136365
C78   C     C_R   0.767303 0.545561 0.244283 -0.146807
C79   C     C_R   0.745379 0.045421 0.695219 -0.136346
C80   C     C_R   0.267304 0.045563 0.244290 -0.146780
C81   C     C_R   0.549743 0.545965 0.304382 -0.140135
C82   C     C_R   0.519697 0.545951 0.751586 -0.124810
C83   C     C_R   0.049741 0.045964 0.304381 -0.140125
C84   C     C_R   0.019698 0.045951 0.751588 -0.124804
C85   C     C_R   0.244141 0.454930 0.695765 -0.109800
C86   C     C_R   0.768177 0.454514 0.247081 -0.111722
C87   C     C_R   0.744145 0.954929 0.695762 -0.109793
C88   C     C_R   0.268180 0.954515 0.247090 -0.111723
C89   C     C_R   0.312057 0.626356 0.906824 -0.040139
C90   C     C_R   0.650209 0.651040 0.090921 -0.100669
C91   C     C_R   0.812058 0.126359 0.906822 -0.040119
C92   C     C_R   0.150209 0.151040 0.090922 -0.100668
C93   C     C_R   0.402826 0.371836 0.089866 0.448551
C94   C     C_R   0.555273 0.348228 0.908727 0.413956
C95   C     C_R   0.902837 0.871827 0.089868 0.448539
C96   C     C_R   0.055275 0.848228 0.908727 0.413947
C97   C     C_R   0.313860 0.359490 0.995422 -0.057102
C98   C     C_R   0.616812 0.317698 0.000449 -0.027185
C99   C     C_R   0.813873 0.859480 0.995425 -0.057103
C100  C     C_R   0.116815 0.817699 0.000449 -0.027187
H1    H     H_    0.253434 0.370002 0.818819 0.132980
H2    H     H_    0.692867 0.335413 0.177489 0.132695
H3    H     H_    0.753438 0.870000 0.818820 0.132965
H4    H     H_    0.192870 0.835414 0.177490 0.132698
H5    H     H_    0.915373 0.620159 0.374621 0.150277
H6    H     H_    0.126586 0.628050 0.470596 0.130031
H7    H     H_    0.415358 0.120148 0.374698 0.150290
H8    H     H_    0.626579 0.128065 0.470709 0.130041
H9    H     H_    0.722367 0.319192 0.929381 0.164055
H10   H     H_    0.244624 0.353329 0.117858 0.186437
H11   H     H_    0.222344 0.819190 0.929333 0.164061
H12   H     H_    0.744688 0.853311 0.117913 0.186450
H13   H     H_    0.619578 0.216650 0.073785 0.129265
H14   H     H_    0.244253 0.276720 0.855474 0.138972
H15   H     H_    0.119614 0.716654 0.073846 0.129247
H16   H     H_    0.744181 0.776735 0.855409 0.138958
H17   H     H_    0.209518 0.639136 0.072074 0.151760
H18   H     H_    0.661613 0.700253 0.858147 0.132346
H19   H     H_    0.709489 0.139135 0.072017 0.151784
H20   H     H_    0.161695 0.200230 0.858217 0.132352
H21   H     H_    0.605126 0.589159 0.662357 0.108061
H22   H     H_    0.610367 0.589448 0.504522 0.116499
H23   H     H_    0.105128 0.089159 0.662359 0.108064
H24   H     H_    0.110363 0.089447 0.504520 0.116502
H25   H     H_    0.612265 0.413122 0.505420 0.136637
H26   H     H_    0.607338 0.412945 0.662934 0.129156
H27   H     H_    0.112259 0.913121 0.505417 0.136645
H28   H     H_    0.107339 0.912945 0.662936 0.129162
H29   H     H_    0.435528 0.637838 0.178029 0.104732
H30   H     H_    0.511645 0.664005 0.821809 0.111567
H31   H     H_    0.935527 0.137839 0.178028 0.104736
H32   H     H_    0.011654 0.164005 0.821810 0.111573
H33   H     H_    0.584089 0.415978 0.340605 0.147023
H34   H     H_    0.534515 0.412989 0.744615 0.150369
H35   H     H_    0.084077 0.915976 0.340600 0.147055
H36   H     H_    0.034517 0.912989 0.744617 0.150374
H37   H     H_    0.238868 0.586446 0.665866 0.108398
H38   H     H_    0.784979 0.587352 0.246359 0.098241
H39   H     H_    0.738874 0.086446 0.665865 0.108400
H40   H     H_    0.284978 0.087354 0.246365 0.098231
H41   H     H_    0.566191 0.587923 0.330645 0.102697
H42   H     H_    0.529254 0.588166 0.740780 0.091259
H43   H     H_    0.066190 0.087923 0.330645 0.102697
H44   H     H_    0.029254 0.088165 0.740781 0.091260
H45   H     H_    0.234715 0.413415 0.667209 0.114149
H46   H     H_    0.788734 0.412368 0.256479 0.099300
H47   H     H_    0.734717 0.913414 0.667208 0.114150
H48   H     H_    0.288740 0.912370 0.256492 0.099299
H49   H     H_    0.256022 0.634774 0.821236 0.122430
H50   H     H_    0.693953 0.664846 0.175874 0.145741
H51   H     H_    0.756024 0.134780 0.821232 0.122440
H52   H     H_    0.193950 0.164847 0.175874 0.145722
H53   H     H_    0.102880 0.411616 0.498611 0.134310
H54   H     H_    0.942404 0.411471 0.336795 0.130892
H55   H     H_    0.602904 0.911619 0.498573 0.134325
H56   H     H_    0.442413 0.911478 0.336772 0.130901
N1    N     N_R   0.394180 0.396910 0.943210 -0.054585
N2    N     N_R   0.605820 0.396910 0.056790 -0.062516
N3    N     N_R   0.894180 0.896910 0.943210 -0.054586
N4    N     N_R   0.105820 0.896910 0.056790 -0.062516
N5    N     N_R   0.450950 0.603070 0.056740 -0.042089
N6    N     N_R   0.549050 0.603070 0.943260 -0.049364
N7    N     N_R   0.950950 0.103070 0.056740 -0.042091
N8    N     N_R   0.049050 0.103070 0.943260 -0.049365
N9    N     N_R   0.525650 0.471570 0.206150 -0.051657
N10   N     N_R   0.474350 0.471570 0.793850 -0.034419
N11   N     N_R   0.025650 0.971570 0.206150 -0.051658
N12   N     N_R   0.974350 0.971570 0.793850 -0.034419
N13   N     N_R   0.319480 0.528420 0.793810 -0.052803
N14   N     N_R   0.680520 0.528420 0.206190 -0.042596
N15   N     N_R   0.819480 0.028420 0.793810 -0.052804
N16   N     N_R   0.180520 0.028420 0.206190 -0.042597
N17   N     N_R   0.525640 0.528390 0.206120 -0.051361
N18   N     N_R   0.474360 0.528390 0.793880 -0.045637
N19   N     N_R   0.025640 0.028390 0.206120 -0.051362
N20   N     N_R   0.974360 0.028390 0.793880 -0.045636
N21   N     N_R   0.319490 0.471590 0.793840 -0.040082
N22   N     N_R   0.680510 0.471590 0.206160 -0.044928
N23   N     N_R   0.819490 0.971590 0.793840 -0.040086
N24   N     N_R   0.180510 0.971590 0.206160 -0.044924
N25   N     N_R   0.394130 0.603080 0.943110 -0.041749
N26   N     N_R   0.605870 0.603080 0.056890 -0.054762
N27   N     N_R   0.894130 0.103080 0.943110 -0.041756
N28   N     N_R   0.105870 0.103080 0.056890 -0.054764
N29   N     N_R   0.450990 0.396900 0.056840 -0.085517
N30   N     N_R   0.549010 0.396900 0.943160 -0.082986
N31   N     N_R   0.950990 0.896900 0.056840 -0.085511
N32   N     N_R   0.049010 0.896900 0.943160 -0.082988
Ni1   Ni    Ni4+2 0.434860 0.434850 0.869700 0.266159
Ni2   Ni    Ni4+2 0.565140 0.434850 0.130300 0.222728
Ni3   Ni    Ni4+2 0.934860 0.934850 0.869700 0.266156
Ni4   Ni    Ni4+2 0.065140 0.934850 0.130300 0.222745
Ni5   Ni    Ni4+2 0.565130 0.565140 0.130240 0.229797
Ni6   Ni    Ni4+2 0.434870 0.565140 0.869760 0.225591
Ni7   Ni    Ni4+2 0.065130 0.065140 0.130240 0.229797
Ni8   Ni    Ni4+2 0.934870 0.065140 0.869760 0.225592
C101  C     C_R   0.960241 0.637927 0.266364 0.175565
C102  C     C_R   0.895562 0.619086 0.157088 -0.160022
C103  C     C_R   0.883955 0.646836 0.067840 -0.104982
C104  C     C_R   0.936847 0.693601 0.086249 -0.099205
C105  C     C_R   0.000298 0.713154 0.193793 -0.060151
C106  C     C_R   0.010350 0.686398 0.283143 -0.095695
H57   H     H_    0.854041 0.582796 0.140451 0.122175
H58   H     H_    0.834063 0.631937 0.984331 0.115855
H59   H     H_    0.928356 0.714853 0.017193 0.121511
H60   H     H_    0.041416 0.749329 0.207867 0.150783
H61   H     H_    0.057289 0.703762 0.364945 0.118525
C107  C     C_R   0.066593 0.625949 0.567460 0.162045
C108  C     C_R   0.028714 0.592885 0.610305 -0.128297
C109  C     C_R   0.021194 0.612697 0.693112 -0.142273
C110  C     C_R   0.049394 0.665825 0.732374 -0.078299
C111  C     C_R   0.085883 0.699136 0.689526 -0.051591
C112  C     C_R   0.094872 0.679277 0.607916 -0.166370
H62   H     H_    0.003907 0.552131 0.579061 0.123382
H63   H     H_    0.992305 0.587057 0.725852 0.127278
H64   H     H_    0.042473 0.681293 0.795526 0.150512
H65   H     H_    0.106979 0.740447 0.719285 0.160003
H66   H     H_    0.122633 0.705823 0.575041 0.128647
C113  C     C_R   0.460238 0.137954 0.266459 0.175564
C114  C     C_R   0.395568 0.119125 0.157171 -0.160051
C115  C     C_R   0.383982 0.146886 0.067945 -0.104977
C116  C     C_R   0.436890 0.193648 0.086388 -0.099166
C117  C     C_R   0.500335 0.213188 0.193945 -0.060073
C118  C     C_R   0.510363 0.186422 0.283272 -0.095728
H67   H     H_    0.354039 0.082835 0.140507 0.122165
H68   H     H_    0.334097 0.131996 0.984427 0.115851
H69   H     H_    0.428417 0.214908 0.017349 0.121490
H70   H     H_    0.541469 0.249360 0.208046 0.150783
H71   H     H_    0.557299 0.203778 0.365083 0.118451
C119  C     C_R   0.566566 0.125913 0.567547 0.161964
C120  C     C_R   0.528914 0.092765 0.610558 -0.128234
C121  C     C_R   0.521420 0.112530 0.693415 -0.142385
C122  C     C_R   0.549405 0.165697 0.732549 -0.078433
C123  C     C_R   0.585657 0.199093 0.689530 -0.051512
C124  C     C_R   0.594624 0.179281 0.607872 -0.166258
H72   H     H_    0.504271 0.051975 0.579423 0.123401
H73   H     H_    0.492725 0.086820 0.726300 0.127287
H74   H     H_    0.542501 0.181127 0.795737 0.150441
H75   H     H_    0.606592 0.240431 0.719198 0.160043
H76   H     H_    0.622200 0.205892 0.574863 0.128656
Cl1   Cl    Cl    0.344257 0.750717 0.916681 -0.649412
Cl2   Cl    Cl    0.643820 0.776044 0.154742 -0.612540
Cl3   Cl    Cl    0.844273 0.250719 0.916717 -0.649324
Cl4   Cl    Cl    0.143761 0.276055 0.154684 -0.612505
Cl5   Cl    Cl    0.451705 0.344317 0.221716 -0.747754
Cl6   Cl    Cl    0.471135 0.321130 0.776640 -0.716960
Cl7   Cl    Cl    0.951737 0.844295 0.221714 -0.747740
Cl8   Cl    Cl    0.971139 0.821130 0.776641 -0.716929

loop_
_geom_bond_atom_site_label_1
_geom_bond_atom_site_label_2
_ccdc_geom_bond_type
N2    N30   A    
C49   H13   S    
C45   H29   S    
C107  C112  A    
C77   H37   S    
C83   N19   A    
C34   Cl2   S    
C124  H76   S    
C96   N32   A    
C79   H39   S    
C117  C118  A    
C86   N22   A    
C90   H50   S    
N15   N23   A    
C76   H36   S    
C95   N31   A    
N29   Ni2   S    
C40   H12   S    
C55   H19   S    
C35   Cl3   S    
N11   Ni4   S    
C12   C68   S    
C104  H59   S    
N12   Ni3   S    
C87   H47   S    
C96   C100  A    
C72   H28   S    
N32   Ni3   S    
C34   C40   A    
C61   H21   S    
C35   C37   A    
N1    N29   A    
C38   C42   A    
C55   C59   A    
C69   C70   A    
N2    Ni2   S    
N22   Ni2   S    
C44   C99   S    
C53   H17   S    
C94   N30   A    
C111  H65   S    
C94   C98   A    
C95   C99   A    
N3    N31   A    
C109  H63   S    
C2    H2    S    
C78   H38   S    
C78   N14   A    
C12   C84   A    
C35   C59   A    
C105  C106  A    
C79   N15   A    
C6    C58   S    
C45   N5    A    
C95   Cl7   S    
C113  C118  A    
C102  H57   S    
C33   Cl1   S    
C61   C66   A    
C41   C49   A    
N30   Ni1   S    
C15   C79   A    
C82   N18   A    
C11   C67   S    
C104  C105  A    
N23   Ni3   S    
C17   C18   A    
C92   H52   S    
C105  H60   S    
C102  C103  A    
C8    C92   A    
C23   C27   A    
C38   H10   S    
C50   C56   A    
C122  C123  A    
C37   H9    S    
C2    N2    A    
C47   N7    A    
C70   H26   S    
C15   C23   S    
C110  H64   S    
C69   H25   S    
C103  C104  A    
C16   C24   S    
C5    C45   A    
C30   H6    S    
C3    N3    A    
C17   C30   S    
C56   H20   S    
C71   H27   S    
C119  C120  A    
C96   Cl8   S    
C9    C73   A    
C7    C59   S    
C19   C32   S    
C86   H46   S    
N13   N21   A    
C114  C115  A    
C52   C54   A    
C88   N24   A    
C31   C113  S    
C52   H16   S    
C27   H55   S    
C32   C119  S    
N10   N18   A    
N27   Ni8   S    
C63   C64   A    
C25   H53   S    
C36   Cl4   S    
C64   C67   A    
C90   N26   A    
C119  C124  A    
N21   Ni1   S    
C43   C100  S    
C14   C86   A    
C74   N10   A    
C108  C109  A    
N24   Ni4   S    
C42   C97   S    
C1    C97   A    
C113  C114  A    
C18   C29   S    
C53   C57   A    
C117  H70   S    
C107  C108  A    
C39   C43   A    
C11   C83   A    
C25   C26   A    
C80   H40   S    
N7    N27   A    
C115  H68   S    
C10   C82   A    
C51   H15   S    
C56   C60   A    
C47   H31   S    
C16   C80   A    
C89   N25   A    
C19   C23   A    
C122  H74   S    
C8    C48   A    
C29   C30   S    
N8    N28   A    
N3    Ni3   S    
C115  C116  A    
C110  C111  A    
C85   N21   A    
N7    Ni7   S    
C68   C72   A    
C30   C107  S    
C81   H41   S    
N6    Ni6   S    
C9    C65   S    
N9    Ni2   S    
C88   H48   S    
N5    Ni5   S    
C101  C106  A    
N26   Ni5   S    
C33   C39   A    
N20   Ni8   S    
C34   C58   A    
N25   Ni6   S    
C94   Cl6   S    
N4    Ni4   S    
N31   Ni4   S    
C120  H72   S    
C93   Cl5   S    
C42   C50   A    
C73   N9    A    
C120  C121  A    
C73   H33   S    
N18   Ni6   S    
N17   Ni5   S    
C29   C101  S    
C106  H61   S    
C54   H18   S    
C13   C77   A    
C92   N28   A    
C103  H58   S    
C20   C31   S    
C64   H24   S    
C26   H54   S    
C93   N29   A    
C123  C124  A    
C80   N16   A    
C36   C38   A    
C93   C97   A    
C12   C76   A    
C62   H22   S    
C16   C88   A    
C54   C58   A    
C3    H3    S    
N12   N20   A    
C21   C25   A    
C63   C68   A    
C101  C102  A    
C33   C57   A    
C6    C46   A    
C62   C65   A    
C91   N27   A    
C18   C22   A    
C31   H7    S    
C32   H8    S    
C31   C32   S    
C24   C28   A    
C85   H45   S    
N15   Ni8   S    
C36   C60   A    
C49   C55   A    
C4    N4    A    
C44   C52   A    
C46   H30   S    
N14   Ni5   S    
C63   H23   S    
C112  H66   S    
N8    Ni8   S    
C4    H4    S    
N6    N26   A    
N13   Ni6   S    
C48   N8    A    
C8    C60   S    
N28   Ni7   S    
C7    C47   A    
C29   H5    S    
C108  H62   S    
C4    C100  A    
C5    C57   S    
N10   Ni1   S    
C14   C22   S    
C19   C20   A    
C1    N1    A    
N16   Ni7   S    
C10   C66   S    
C71   C72   A    
C11   C75   A    
C118  H71   S    
C13   C21   S    
C7    C91   A    
C91   H51   S    
C39   H11   S    
C10   C74   A    
N16   N24   A    
C66   C70   A    
C75   H35   S    
C1    H1    S    
C116  H69   S    
C43   C51   A    
C65   C69   A    
C74   H34   S    
C89   H49   S    
C121  C122  A    
C81   N17   A    
C114  H67   S    
C76   N12   A    
N11   N19   A    
C67   C71   A    
C123  H75   S    
C14   C78   A    
C37   C41   A    
C61   C62   A    
C20   C24   A    
N1    Ni1   S    
C121  H73   S    
C51   C53   A    
C87   N23   A    
C82   H42   S    
C3    C99   A    
C40   C44   A    
C6    C90   A    
C111  C112  A    
C2    C98   A    
C77   N13   A    
C109  C110  A    
C22   C26   A    
C15   C87   A    
C13   C85   A    
C27   C28   A    
C28   H56   S    
C84   H44   S    
C41   C98   S    
C48   H32   S    
C83   H43   S    
C75   N11   A    
C50   H14   S    
C84   N20   A    
N9    N17   A    
C46   N6    A    
C116  C117  A    
N19   Ni7   S    
N5    N25   A    
C5    C89   A    
C9    C81   A    
N14   N22   A    
N4    N32   A    
C17   C21   A    
