data_mof_unit_4640.cif
_audit_creation_date              2013-03-05T15:50:10-0500
_audit_creation_method            fapswitch 2.2
_symmetry_space_group_name_H-M    P1
_symmetry_Int_Tables_number       1
_space_group_crystal_system       triclinic
_cell_length_a                    19.997802
_cell_length_b                    6.875672
_cell_length_c                    18.190893
_cell_angle_alpha                 90.033589
_cell_angle_beta                  104.190011
_cell_angle_gamma                 89.949853
_cell_volume                      2424.89936389

loop_
_atom_site_label
_atom_site_type_symbol
_atom_site_description
_atom_site_fract_x
_atom_site_fract_y
_atom_site_fract_z
_atom_type_partial_charge
O1    O     O_R   0.312200 0.620210 0.189560 -0.576037
O2    O     O_R   0.687800 0.379790 0.810440 -0.576024
O3    O     O_R   0.187800 0.120210 0.310440 -0.572713
O4    O     O_R   0.812200 0.879790 0.689560 -0.572668
O5    O     O_R   0.171590 0.286140 0.165000 -0.577057
O6    O     O_R   0.828410 0.713860 0.835000 -0.577091
O7    O     O_R   0.328410 0.786140 0.335000 -0.573780
O8    O     O_R   0.671590 0.213860 0.665000 -0.573803
C1    C     C_R   0.145685 0.459560 0.143776 1.018308
C2    C     C_R   0.854315 0.540440 0.856224 1.018295
C3    C     C_R   0.354331 0.959510 0.356206 1.013001
C4    C     C_R   0.645669 0.040490 0.643794 1.012984
O9    O     O_R   0.310670 0.290220 0.180540 -0.587847
O10   O     O_R   0.689330 0.709780 0.819460 -0.587820
O11   O     O_R   0.189330 0.790220 0.319460 -0.581607
O12   O     O_R   0.810670 0.209780 0.680540 -0.581560
O13   O     O_R   0.327870 0.124170 0.326080 -0.591150
O14   O     O_R   0.672130 0.875830 0.673920 -0.591140
O15   O     O_R   0.172130 0.624170 0.173920 -0.591251
O16   O     O_R   0.827870 0.375830 0.826080 -0.591253
C5    C     C_R   0.333297 0.459202 0.166567 1.016070
C6    C     C_R   0.666705 0.540797 0.833436 1.016015
C7    C     C_R   0.166535 0.959470 0.333267 1.009371
C8    C     C_R   0.833463 0.040527 0.666728 1.009338
O17   O     O_3   0.255480 0.455050 0.297740 -0.264969
O18   O     O_3   0.744520 0.544950 0.702260 -0.264906
O19   O     O_3   0.244520 0.955050 0.202260 -0.273029
O20   O     O_3   0.755480 0.044950 0.797740 -0.273028
V1    V     V_3+5 0.248980 0.178550 0.241140 1.248267
V2    V     V_3+5 0.751020 0.821450 0.758860 1.248308
V3    V     V_3+5 0.251020 0.678550 0.258860 1.252198
V4    V     V_3+5 0.748980 0.321450 0.741140 1.252241
C9    C     C_R   0.932279 0.873781 0.627647 0.310945
C10   C     C_R   0.067648 0.126080 0.372259 0.310935
C11   C     C_R   0.561934 0.391250 0.865654 0.314031
C12   C     C_R   0.438085 0.608710 0.134370 0.314014
C13   C     C_R   0.884476 0.028702 0.619420 -0.297815
C14   C     C_R   0.115496 0.971262 0.380543 -0.297732
C15   C     C_R   0.615697 0.529913 0.880679 -0.278637
C16   C     C_R   0.384311 0.470077 0.119332 -0.278671
C17   C     C_R   0.884465 0.172485 0.564889 -0.230945
C18   C     C_R   0.115503 0.827482 0.435072 -0.230778
C19   C     C_R   0.622283 0.656067 0.942525 -0.274000
C20   C     C_R   0.377721 0.343936 0.057481 -0.274064
C21   C     C_R   0.930284 0.165114 0.517083 0.108392
C22   C     C_R   0.069614 0.834719 0.482799 0.108446
C23   C     C_R   0.577970 0.643407 0.992004 0.127170
C24   C     C_R   0.422044 0.356568 0.008013 0.127291
C25   C     C_R   0.976839 0.006311 0.523906 -0.001647
C26   C     C_R   0.023060 0.993521 0.475976 -0.001580
C27   C     C_R   0.523185 0.506638 0.976080 -0.010825
C28   C     C_R   0.476833 0.493325 0.023942 -0.010858
C29   C     C_R   0.977716 0.860945 0.579165 -0.046187
C30   C     C_R   0.022177 0.138860 0.420707 -0.046287
C31   C     C_R   0.514977 0.381807 0.912610 -0.041589
C32   C     C_R   0.485044 0.618147 0.087415 -0.041589
C33   C     C_R   0.930593 0.311697 0.462265 0.113470
C34   C     C_R   0.069225 0.687973 0.537529 0.113408
C35   C     C_R   0.587762 0.760961 0.057921 0.111320
C36   C     C_R   0.412259 0.238995 0.942101 0.111299
C37   C     C_R   0.975520 0.294452 0.414416 -0.222218
C38   C     C_R   0.024315 0.705224 0.585392 -0.221973
C39   C     C_R   0.540957 0.747929 0.103826 -0.207339
C40   C     C_R   0.459070 0.252008 0.896204 -0.207368
H1    H     H_    0.847050 0.288233 0.559516 0.173241
H2    H     H_    0.152978 0.711866 0.440521 0.173137
H3    H     H_    0.663990 0.760123 0.952556 0.158200
H4    H     H_    0.336002 0.239916 0.047438 0.158166
H5    H     H_    0.973869 0.406034 0.372089 0.186742
H6    H     H_    0.025915 0.593503 0.627654 0.186701
H7    H     H_    0.549405 0.839467 0.153664 0.183725
H8    H     H_    0.450631 0.160448 0.846372 0.183706
C41   C     C_1   0.583164 0.027524 0.581592 -0.247876
C42   C     C_1   0.416836 0.972476 0.418408 -0.247824
C43   C     C_1   0.916819 0.527414 0.918421 -0.257566
C44   C     C_1   0.083181 0.472586 0.081580 -0.257495
C45   C     C_1   0.530847 0.010920 0.530188 0.085134
C46   C     C_1   0.469153 0.989081 0.469812 0.085147
C47   C     C_1   0.969145 0.510865 0.969818 0.081611
C48   C     C_1   0.030854 0.489135 0.030182 0.081620
N1    N     N_R   0.936779 0.734603 0.687429 0.226005
O21   O     O_R   0.915361 0.557289 0.671793 -0.434047
O22   O     O_R   0.957896 0.788868 0.757830 -0.416825
N2    N     N_R   0.063150 0.265223 0.312465 0.225984
O23   O     O_R   0.084490 0.442608 0.328091 -0.434130
O24   O     O_R   0.042099 0.210878 0.242067 -0.416809
N3    N     N_R   0.554045 0.263555 0.801620 0.222318
O25   O     O_R   0.541372 0.334568 0.733309 -0.416865
O26   O     O_R   0.563381 0.077224 0.811856 -0.427604
N4    N     N_R   0.445983 0.736370 0.198417 0.222315
O27   O     O_R   0.458604 0.665301 0.266719 -0.416875
O28   O     O_R   0.436706 0.922732 0.188202 -0.427632
C49   C     C_3   0.884818 0.490690 0.453300 -0.423046
C50   C     C_3   0.812292 0.446779 0.404620 -0.259085
C51   C     C_3   0.766005 0.625946 0.397460 -0.886104
H9    H     H_    0.761113 0.673462 0.454332 0.258947
H10   H     H_    0.787701 0.747065 0.370140 0.259020
H11   H     H_    0.713863 0.590324 0.362013 0.258933
H12   H     H_    0.815671 0.400634 0.347026 0.208502
H13   H     H_    0.788427 0.326469 0.429995 0.196359
H14   H     H_    0.882600 0.548863 0.509546 0.211735
H15   H     H_    0.907495 0.609917 0.425846 0.196951
C52   C     C_3   0.114769 0.508567 0.546236 -0.423166
C53   C     C_3   0.187296 0.551252 0.595142 -0.259389
C54   C     C_3   0.233497 0.372147 0.601379 -0.886774
H16   H     H_    0.211576 0.249683 0.627725 0.259219
H17   H     H_    0.238617 0.327260 0.544309 0.259021
H18   H     H_    0.285563 0.406498 0.637281 0.258997
H19   H     H_    0.211219 0.672569 0.570395 0.196617
H20   H     H_    0.183906 0.595329 0.652948 0.208606
H21   H     H_    0.091860 0.389183 0.573359 0.196823
H22   H     H_    0.117017 0.451075 0.489906 0.212287
C55   C     C_3   0.649245 0.895039 0.083763 -0.442124
C56   C     C_3   0.637073 0.091377 0.042861 -0.224389
C57   C     C_3   0.700675 0.220817 0.066588 -0.909009
H23   H     H_    0.712732 0.249167 0.128575 0.265530
H24   H     H_    0.745736 0.150285 0.051992 0.263840
H25   H     H_    0.691061 0.361827 0.036435 0.249900
H26   H     H_    0.624876 0.070359 0.980463 0.221273
H27   H     H_    0.592547 0.165543 0.057296 0.210206
H28   H     H_    0.659122 0.921837 0.145833 0.196233
H29   H     H_    0.696882 0.824060 0.075784 0.188046
C58   C     C_3   0.350774 0.104918 0.916256 -0.442078
C59   C     C_3   0.362924 0.908620 0.957191 -0.224388
C60   C     C_3   0.299326 0.779169 0.933443 -0.909071
H30   H     H_    0.254227 0.849816 0.947909 0.263869
H31   H     H_    0.287355 0.750563 0.871480 0.265535
H32   H     H_    0.308893 0.638287 0.963688 0.249888
H33   H     H_    0.407465 0.834427 0.942802 0.210208
H34   H     H_    0.375087 0.929698 0.019586 0.221259
H35   H     H_    0.303133 0.175939 0.924203 0.188039
H36   H     H_    0.340917 0.078047 0.854193 0.196287

loop_
_geom_bond_atom_site_label_1
_geom_bond_atom_site_label_2
_geom_bond_distance
_ccdc_geom_bond_type
C34   C38   1.400651 A    
N3    O25   1.301113 A    
O17   V3    1.685161 S    
C49   C50   1.532868 S    
C58   H36   1.112794 S    
O19   V1    1.684547 S    
O13   V1    1.954654 S    
O3    C7    1.289444 A    
C51   H9    1.111640 S    
O15   V3    1.954835 S    
C56   C57   1.525935 S    
C51   H11   1.110707 S    
O4    V2    2.001144 S    
C58   C59   1.532018 S    
C45   C46   1.444544 S    
O1    C5    1.289812 A    
C54   H17   1.111381 S    
C21   C33   1.419308 A    
C26   C30   1.414981 A    
C13   C17   1.400843 A    
C52   H21   1.113138 S    
N2    O24   1.300841 A    
C14   C18   1.400820 A    
C18   C22   1.410279 A    
C11   C15   1.413172 A    
O4    C8    1.289439 A    
C37   H5    1.081989 S    
C57   H23   1.110913 S    
O1    V3    2.000420 S    
C38   H6    1.081991 S    
O2    V4    2.000417 S    
C29   C38   1.405069 A    
O3    V1    2.001142 S    
C12   C16   1.413185 A    
C9    N1    1.435120 S    
C11   N3    1.435801 S    
C1    O15   1.311286 A    
C55   H29   1.110705 S    
C2    O16   1.311287 A    
C57   H24   1.110911 S    
O2    C6    1.289810 A    
C60   H32   1.107388 S    
O14   V2    1.954652 S    
C1    C44   1.468697 S    
C21   C25   1.419893 A    
C16   C20   1.400651 A    
C56   H26   1.110370 S    
O8    C4    1.319455 A    
O11   C7    1.296136 A    
O12   C8    1.296159 A    
C33   C49   1.517967 S    
C4    C41   1.468783 S    
C22   C34   1.419249 A    
O17   V1    2.150296 S    
C10   N2    1.435128 S    
O10   V2    1.999018 S    
C53   C54   1.526371 S    
N1    O22   1.300843 A    
C24   C36   1.418974 A    
O5    V1    1.951673 S    
C9    C29   1.415574 A    
C54   H18   1.110534 S    
O7    V3    1.952084 S    
O19   V3    2.151162 S    
C27   C28   1.421791 A    
O8    V4    1.952087 S    
O20   V4    2.151161 S    
N2    O23   1.300569 A    
C49   H14   1.109298 S    
O18   V4    1.685162 S    
C15   C19   1.400652 A    
C11   C31   1.417399 A    
N1    O21   1.300559 A    
C52   H22   1.109208 S    
C36   C58   1.516819 S    
O7    C3    1.319455 A    
O5    C1    1.319315 A    
C12   C32   1.417414 A    
C2    C43   1.468695 S    
N4    O28   1.301463 A    
C50   H13   1.110978 S    
C35   C55   1.516806 S    
C57   H25   1.107443 S    
C31   C40   1.404765 A    
C8    C13   1.489341 S    
C32   C39   1.404775 A    
O9    C5    1.294964 A    
C33   C37   1.400705 A    
O6    V2    1.951675 S    
C39   H7    1.082140 S    
C10   C30   1.415612 A    
N3    O26   1.301420 A    
C60   H30   1.110859 S    
C20   H4    1.080318 S    
O9    V1    1.999021 S    
C18   H2    1.079825 S    
C55   C56   1.532011 S    
O16   V4    1.954834 S    
C12   N4    1.435829 S    
C3    O13   1.311333 A    
C17   C21   1.410300 A    
C58   H35   1.110703 S    
C10   C14   1.413900 A    
C44   C48   1.225697 T    
C3    C42   1.468783 S    
C49   H15   1.113216 S    
O6    C2    1.319315 A    
C23   C27   1.419298 A    
C51   H10   1.111560 S    
O11   V3    1.997690 S    
C30   C37   1.405052 A    
O12   V4    1.997694 S    
C7    C14   1.489307 S    
C54   H16   1.111296 S    
C22   C26   1.419864 A    
C35   C39   1.401736 A    
C36   C40   1.401731 A    
O10   C6    1.294972 A    
O20   V2    1.684547 S    
C59   H34   1.110371 S    
C53   H20   1.112068 S    
N4    O27   1.301142 A    
C53   H19   1.110873 S    
C5    C16   1.488164 S    
C43   C47   1.225698 T    
C50   H12   1.112269 S    
C25   C29   1.415004 A    
C6    C15   1.488172 S    
C59   H33   1.111511 S    
C27   C31   1.415218 A    
C40   H8    1.082137 S    
C17   H1    1.079788 S    
C50   C51   1.526563 S    
C9    C13   1.413906 A    
C23   C35   1.418974 A    
C47   C48   1.444463 S    
C28   C32   1.415231 A    
C24   C28   1.419305 A    
C55   H28   1.112795 S    
C19   H3    1.080308 S    
C25   C26   1.420277 A    
C42   C46   1.225749 T    
C4    O14   1.311334 A    
C52   C53   1.532650 S    
C60   H31   1.110856 S    
C41   C45   1.225747 T    
C34   C52   1.517808 S    
C19   C23   1.412179 A    
C56   H27   1.111526 S    
C20   C24   1.412169 A    
C59   C60   1.525956 S    
O18   V2    2.150296 S    
