data_mof_unit_3551.cif
_audit_creation_date              2012-12-11T14:41:14-0500
_audit_creation_method            fapswitch 2.2
_symmetry_space_group_name_H-M    P1
_symmetry_Int_Tables_number       1
_space_group_crystal_system       triclinic
_cell_length_a                    24.946039
_cell_length_b                    17.6907
_cell_length_c                    15.720939
_cell_angle_alpha                 89.886857
_cell_angle_beta                  129.791638
_cell_angle_gamma                 90.172229
_cell_volume                      5330.86217739

loop_
_atom_site_label
_atom_site_type_symbol
_atom_type_description
_atom_site_fract_x
_atom_site_fract_y
_atom_site_fract_z
_atom_type_partial_charge
C1    C     C_R   0.335367 0.393098 0.196840 -0.077981
C2    C     C_R   0.334378 0.599863 0.193772 -0.022509
C3    C     C_R   0.857607 0.854883 0.250331 -0.111172
C4    C     C_R   0.833969 0.099440 0.193290 0.002842
C5    C     C_R   0.635361 0.342883 0.829160 0.139358
C6    C     C_R   0.646144 0.631385 0.856497 0.123469
C7    C     C_R   0.138849 0.851288 0.839089 0.123616
C8    C     C_R   0.125967 0.171346 0.805746 0.126751
C9    C     C_R   0.670534 0.348643 0.510743 0.061503
C10   C     C_R   0.680702 0.628189 0.507618 0.040372
C11   C     C_R   0.177437 0.859573 0.510856 0.048336
C12   C     C_R   0.183039 0.122637 0.506575 0.037444
C13   C     C_R   0.356404 0.321230 0.508563 -0.140015
C14   C     C_R   0.350062 0.667701 0.512302 -0.178435
C15   C     C_R   0.845631 0.834891 0.508471 -0.126018
C16   C     C_R   0.838240 0.150207 0.512582 -0.152484
C17   C     C_3   0.362810 0.206231 0.628561 0.395747
C18   C     C_3   0.351288 0.754092 0.648069 0.360970
C19   C     C_3   0.854885 0.714923 0.619106 0.434369
C20   C     C_3   0.838653 0.232593 0.649194 0.363111
C21   C     C_3   0.804561 0.666822 0.622727 -0.493534
C22   C     C_3   0.792470 0.296033 0.639185 -0.463564
C23   C     C_3   0.309041 0.158820 0.625471 -0.478499
C24   C     C_3   0.302623 0.815268 0.636681 -0.465712
C25   C     C_3   0.267775 0.305998 0.526569 -0.427908
C26   C     C_3   0.248134 0.674156 0.501276 -0.384524
C27   C     C_3   0.761678 0.818235 0.538461 -0.467857
C28   C     C_3   0.733182 0.159588 0.493593 -0.383565
C29   C     C_3   0.283593 0.204450 0.423726 -0.370947
C30   C     C_3   0.291716 0.789346 0.451808 -0.325966
C31   C     C_3   0.762518 0.731482 0.412472 -0.399537
C32   C     C_3   0.785349 0.273752 0.457767 -0.341167
C33   C     C_3   0.319905 0.261651 0.523378 0.092285
C34   C     C_3   0.311385 0.719269 0.528326 0.116633
C35   C     C_3   0.809240 0.776745 0.522765 0.069861
C36   C     C_3   0.799464 0.201518 0.527834 0.120398
C37   C     C_3   0.728572 0.679634 0.516094 0.096781
C38   C     C_3   0.717834 0.295208 0.520791 0.113805
C39   C     C_3   0.233773 0.170276 0.514477 0.085264
C40   C     C_3   0.226877 0.809301 0.520676 0.115507
C41   C     C_3   0.705010 0.763606 0.512158 0.406180
C42   C     C_3   0.684696 0.214557 0.491074 0.358664
C43   C     C_3   0.209710 0.254721 0.499161 0.422295
C44   C     C_3   0.197838 0.726769 0.497021 0.358401
C45   C     C_R   0.660621 0.376634 0.781760 -0.103835
C46   C     C_R   0.665922 0.610902 0.795259 -0.036977
C47   C     C_R   0.163041 0.882451 0.788589 -0.103532
C48   C     C_R   0.154876 0.132689 0.767126 -0.083787
C49   C     C_3   0.729697 0.663666 0.420708 -0.550710
C50   C     C_3   0.726577 0.318915 0.435733 -0.476625
C51   C     C_3   0.237279 0.147700 0.423877 -0.521250
C52   C     C_3   0.231974 0.832155 0.431071 -0.481459
C53   C     C_2   0.664855 0.275815 0.898649 -0.158115
C54   C     C_2   0.692004 0.661452 0.968007 -0.167950
C55   C     C_2   0.170100 0.787056 0.913063 -0.155808
C56   C     C_2   0.153124 0.240731 0.870461 -0.194336
C57   C     C_2   0.710583 0.233667 0.901834 -0.064877
C58   C     C_2   0.761037 0.663100 0.026116 -0.091004
C59   C     C_2   0.216753 0.745934 0.917791 -0.072246
C60   C     C_2   0.203982 0.278969 0.883051 -0.075902
C61   C     C_2   0.310772 0.659998 0.028654 -0.051423
C62   C     C_2   0.310516 0.342745 0.024480 -0.063659
C63   C     C_2   0.808772 0.152812 0.022438 -0.040565
C64   C     C_2   0.857432 0.749429 0.141322 -0.079947
C65   C     C_2   0.246673 0.680134 0.986656 -0.090960
C66   C     C_2   0.241815 0.336516 0.967380 -0.090244
C67   C     C_2   0.742788 0.169318 0.974930 -0.084674
C68   C     C_2   0.802521 0.713865 0.119629 -0.123185
C69   C     C_R   0.607435 0.373777 0.413341 -0.141204
C70   C     C_R   0.614218 0.610892 0.412319 -0.051911
C71   C     C_R   0.113309 0.883142 0.413800 -0.141351
C72   C     C_R   0.115511 0.107643 0.411840 -0.043639
C73   C     C_R   0.410404 0.363462 0.595842 -0.119207
C74   C     C_R   0.410174 0.633957 0.598131 -0.109339
C75   C     C_R   0.903276 0.872272 0.596533 -0.075484
C76   C     C_R   0.900273 0.120572 0.598493 -0.156801
C77   C     C_R   0.682785 0.383467 0.598185 -0.048433
C78   C     C_R   0.687817 0.604849 0.596461 0.012926
C79   C     C_R   0.185470 0.887953 0.598445 -0.057575
C80   C     C_R   0.188910 0.101602 0.595421 0.002822
C81   C     C_R   0.329449 0.364596 0.411473 0.511917
C82   C     C_R   0.326202 0.631517 0.413221 0.533307
C83   C     C_R   0.823316 0.873400 0.410599 0.438431
C84   C     C_R   0.819941 0.121576 0.413275 0.531369
C85   C     C_R   0.572887 0.377560 0.787324 -0.072330
C86   C     C_R   0.577660 0.609109 0.799823 -0.136707
C87   C     C_R   0.073954 0.881847 0.791331 -0.046179
C88   C     C_R   0.066153 0.133335 0.771052 -0.127364
C89   C     C_R   0.425173 0.390500 0.199227 0.330565
C90   C     C_R   0.424679 0.608770 0.198468 0.350441
C91   C     C_R   0.938475 0.863661 0.231516 0.339620
C92   C     C_R   0.923944 0.105515 0.196534 0.350137
C93   C     C_R   0.356027 0.371815 0.137539 -0.026317
C94   C     C_R   0.355072 0.623522 0.135745 -0.049631
C95   C     C_R   0.885390 0.818540 0.208465 -0.004755
C96   C     C_R   0.854007 0.120340 0.133055 -0.060293
H1    H     H_    0.282468 0.402431 0.159438 0.199076
H2    H     H_    0.282473 0.581952 0.154631 0.189687
H3    H     H_    0.819448 0.830855 0.250750 0.182147
H4    H     H_    0.781853 0.083681 0.156454 0.201608
H5    H     H_    0.392266 0.166467 0.616954 0.080626
H6    H     H_    0.398448 0.783662 0.671127 0.076103
H7    H     H_    0.878211 0.677239 0.593827 0.077446
H8    H     H_    0.888077 0.259525 0.677526 0.066396
H9    H     H_    0.818967 0.605982 0.632366 0.160337
H10   H     H_    0.817713 0.351714 0.651973 0.141176
H11   H     H_    0.323525 0.097931 0.637317 0.156212
H12   H     H_    0.324360 0.872292 0.643946 0.144141
H13   H     H_    0.310238 0.175266 0.694348 0.255985
H14   H     H_    0.302989 0.812148 0.706712 0.241276
H15   H     H_    0.808892 0.682853 0.694922 0.254580
H16   H     H_    0.790367 0.291901 0.706677 0.241820
H17   H     H_    0.296901 0.329948 0.610786 0.248533
H18   H     H_    0.267353 0.629645 0.563608 0.247306
H19   H     H_    0.793629 0.839813 0.624542 0.261070
H20   H     H_    0.748985 0.112918 0.551527 0.246579
H21   H     H_    0.716839 0.766547 0.352809 0.278571
H22   H     H_    0.774962 0.265958 0.379235 0.263571
H23   H     H_    0.248250 0.230251 0.341800 0.284945
H24   H     H_    0.279446 0.778853 0.372274 0.265508
H25   H     H_    0.323773 0.174006 0.425076 0.174792
H26   H     H_    0.337573 0.827968 0.493400 0.143392
H27   H     H_    0.790213 0.714684 0.381300 0.201695
H28   H     H_    0.833151 0.309756 0.505046 0.142791
H29   H     H_    0.760389 0.611829 0.437266 0.208530
H30   H     H_    0.738274 0.380415 0.441141 0.189225
H31   H     H_    0.259142 0.089451 0.439389 0.200073
H32   H     H_    0.240640 0.894115 0.432115 0.185577
H33   H     H_    0.677807 0.655067 0.338631 0.212942
H34   H     H_    0.678106 0.307533 0.349633 0.230139
H35   H     H_    0.184619 0.146805 0.340412 0.204507
H36   H     H_    0.183034 0.817805 0.346768 0.231357
H37   H     H_    0.245058 0.356746 0.472997 0.220324
H38   H     H_    0.219825 0.639514 0.425659 0.215705
H39   H     H_    0.735982 0.868278 0.483084 0.216715
H40   H     H_    0.704613 0.128395 0.415227 0.220449
H41   H     H_    0.711379 0.369779 0.804825 0.107196
H42   H     H_    0.717263 0.612339 0.819454 0.103819
H43   H     H_    0.214694 0.878482 0.813882 0.111448
H44   H     H_    0.203410 0.143742 0.783965 0.128450
H45   H     H_    0.656918 0.774672 0.425560 0.099376
H46   H     H_    0.634771 0.215657 0.404186 0.091955
H47   H     H_    0.163436 0.263363 0.410392 0.119068
H48   H     H_    0.147440 0.724617 0.410468 0.101324
H49   H     H_    0.221385 0.658086 0.017463 0.171059
H50   H     H_    0.215625 0.362457 0.994285 0.144971
H51   H     H_    0.717245 0.146435 0.004882 0.160238
H52   H     H_    0.779995 0.730604 0.156918 0.166773
H53   H     H_    0.730149 0.250586 0.859892 0.189533
H54   H     H_    0.785364 0.636282 0.996413 0.138770
H55   H     H_    0.236906 0.762954 0.876718 0.179566
H56   H     H_    0.225025 0.260612 0.844212 0.191817
H57   H     H_    0.335354 0.685096 0.997950 0.199649
H58   H     H_    0.334964 0.315653 0.994896 0.189727
H59   H     H_    0.833424 0.178112 0.992012 0.196925
H60   H     H_    0.877777 0.731541 0.100598 0.183471
H61   H     H_    0.647123 0.259158 0.943621 0.179576
H62   H     H_    0.668130 0.688433 0.998535 0.174104
H63   H     H_    0.150983 0.769710 0.955788 0.176244
H64   H     H_    0.133436 0.258860 0.911976 0.173095
H65   H     H_    0.586070 0.360444 0.330512 0.167873
H66   H     H_    0.593363 0.618131 0.328823 0.153516
H67   H     H_    0.096221 0.878481 0.331720 0.170470
H68   H     H_    0.094814 0.114014 0.327910 0.147131
H69   H     H_    0.436980 0.356859 0.681063 0.224581
H70   H     H_    0.443495 0.647019 0.684287 0.193751
H71   H     H_    0.927857 0.869972 0.681884 0.216159
H72   H     H_    0.927890 0.125393 0.684818 0.196508
H73   H     H_    0.728922 0.385406 0.683857 0.093079
H74   H     H_    0.733494 0.604376 0.682966 0.100938
H75   H     H_    0.230506 0.889284 0.684974 0.106901
H76   H     H_    0.235027 0.099002 0.681466 0.094314
H77   H     H_    0.545961 0.372469 0.819835 0.178237
H78   H     H_    0.550961 0.606988 0.833201 0.142986
H79   H     H_    0.045376 0.876927 0.821128 0.172200
H80   H     H_    0.035718 0.146739 0.795465 0.137494
N1    N     N_R   0.389430 0.421450 0.294590 -0.082296
N2    N     N_R   0.389430 0.578550 0.294590 -0.078836
N3    N     N_R   0.889430 0.921450 0.294590 -0.055645
N4    N     N_R   0.889430 0.078550 0.294590 -0.074965
N5    N     N_R   0.612200 0.424040 0.705410 -0.059712
N6    N     N_R   0.612200 0.575960 0.705410 -0.055165
N7    N     N_R   0.112200 0.924040 0.705410 -0.059191
N8    N     N_R   0.112200 0.075960 0.705410 -0.055827
N9    N     N_R   0.581780 0.422390 0.443390 -0.044752
N10   N     N_R   0.581780 0.577610 0.443390 -0.036631
N11   N     N_R   0.081780 0.922390 0.443390 -0.052082
N12   N     N_R   0.081780 0.077610 0.443390 -0.036068
N13   N     N_R   0.419850 0.423100 0.556610 -0.083785
N14   N     N_R   0.419850 0.576900 0.556610 -0.075809
N15   N     N_R   0.919850 0.923100 0.556610 -0.089321
N16   N     N_R   0.919850 0.076900 0.556610 -0.079051
N17   N     N_R   0.627410 0.423100 0.556610 -0.063921
N18   N     N_R   0.627410 0.576900 0.556610 -0.047899
N19   N     N_R   0.127410 0.923100 0.556610 -0.066405
N20   N     N_R   0.127410 0.076900 0.556610 -0.049841
N21   N     N_R   0.374220 0.422390 0.443390 -0.095293
N22   N     N_R   0.374220 0.577610 0.443390 -0.097628
N23   N     N_R   0.874220 0.922390 0.443390 -0.093423
N24   N     N_R   0.874220 0.077610 0.443390 -0.097756
N25   N     N_R   0.555000 0.424040 0.705410 -0.061782
N26   N     N_R   0.555000 0.575960 0.705410 -0.052243
N27   N     N_R   0.055000 0.924040 0.705410 -0.061485
N28   N     N_R   0.055000 0.075960 0.705410 -0.049250
N29   N     N_R   0.446630 0.421450 0.294590 -0.093930
N30   N     N_R   0.446630 0.578550 0.294590 -0.089615
N31   N     N_R   0.946630 0.921450 0.294590 -0.089372
N32   N     N_R   0.946630 0.078550 0.294590 -0.089469
Ni1   Ni    Ni4+2 0.382890 0.500000 0.370170 0.310061
Ni2   Ni    Ni4+2 0.882890 0.000000 0.370170 0.330544
Ni3   Ni    Ni4+2 0.618740 0.500000 0.629830 0.210529
Ni4   Ni    Ni4+2 0.118740 0.000000 0.629830 0.207501
Ni5   Ni    Ni4+2 0.514090 0.500000 0.370170 0.277263
Ni6   Ni    Ni4+2 0.014090 0.000000 0.370170 0.276989
Ni7   Ni    Ni4+2 0.487550 0.500000 0.629830 0.247380
Ni8   Ni    Ni4+2 0.987550 0.000000 0.629830 0.238291
S1    S     S_3+6 0.681453 0.786546 0.597017 -0.014368
O1    O     O_2   0.731699 0.753287 0.711057 -0.284680
O2    O     O_2   0.681389 0.871040 0.607589 -0.214051
O3    O     O_3   0.600620 0.753524 0.534502 -0.538637
H81   H     H_    0.584361 0.781635 0.568741 0.380959
S2    S     S_3+6 0.660976 0.182055 0.573591 0.017884
O4    O     O_2   0.684633 0.102389 0.614084 -0.153249
O5    O     O_2   0.691394 0.231385 0.672556 -0.335498
O6    O     O_3   0.573507 0.184166 0.493744 -0.498635
H82   H     H_    0.562873 0.231297 0.514352 0.354592
S3    S     S_3+6 0.183531 0.285253 0.578293 -0.034118
O7    O     O_2   0.233999 0.257283 0.695407 -0.337896
O8    O     O_2   0.182254 0.370201 0.580446 -0.213926
O9    O     O_3   0.102938 0.252460 0.518597 -0.535108
H83   H     H_    0.092509 0.271608 0.565886 0.374591
S4    S     S_3+6 0.176574 0.693017 0.582434 0.017914
O10   O     O_2   0.193844 0.609666 0.610177 -0.167443
O11   O     O_2   0.215232 0.736525 0.689997 -0.315775
O12   O     O_3   0.089191 0.703601 0.509277 -0.504319
H84   H     H_    0.083970 0.751440 0.537338 0.349248
S5    S     S_3+6 0.243617 0.360912 0.278397 -0.089534
O13   O     O_2   0.243131 0.299401 0.211051 -0.361941
O14   O     O_2   0.187232 0.343853 0.285757 -0.307710
O15   O     O_3   0.220558 0.442694 0.209645 -0.505375
H85   H     H_    0.174918 0.432202 0.135940 0.385936
S6    S     S_3+6 0.246933 0.651036 0.274394 -0.088135
O16   O     O_2   0.264330 0.705182 0.221422 -0.343124
O17   O     O_2   0.217679 0.580163 0.208383 -0.284746
O18   O     O_3   0.180969 0.690535 0.262344 -0.567968
H86   H     H_    0.137599 0.675671 0.188180 0.402961
S7    S     S_3+6 0.737879 0.881926 0.276859 -0.067876
O19   O     O_2   0.711468 0.808222 0.214777 -0.375586
O20   O     O_2   0.686764 0.911939 0.288837 -0.247276
O21   O     O_3   0.741707 0.940590 0.197154 -0.512313
H87   H     H_    0.697884 0.931734 0.120901 0.396254
S8    S     S_3+6 0.741805 0.141743 0.273644 -0.079712
O22   O     O_2   0.760818 0.196627 0.223725 -0.349982
O23   O     O_2   0.712856 0.071222 0.206413 -0.256896
O24   O     O_3   0.675055 0.181396 0.259157 -0.567029
H88   H     H_    0.632411 0.168910 0.182970 0.403427
Br1   Br    Br    0.469540 0.403219 0.136166 -0.460985
Br2   Br    Br    0.469988 0.602372 0.136452 -0.471917
Br3   Br    Br    0.967186 0.864484 0.143955 -0.448848
Br4   Br    Br    0.968265 0.088540 0.134381 -0.481281
S9    S     S_3+6 0.428432 0.238945 0.770161 -0.050469
O25   O     O_2   0.410411 0.314143 0.790655 -0.240556
O26   O     O_2   0.436044 0.182870 0.849670 -0.269871
O27   O     O_3   0.505393 0.243153 0.797338 -0.588461
H89   H     H_    0.531353 0.197422 0.842036 0.372880
S10   S     S_3+6 0.385128 0.691135 0.766696 -0.010241
O28   O     O_2   0.355810 0.708641 0.823578 -0.203065
O29   O     O_2   0.372671 0.608499 0.736583 -0.276250
O30   O     O_3   0.471843 0.705866 0.859328 -0.548542
H90   H     H_    0.489862 0.664810 0.914501 0.392178
S11   S     S_3+6 0.927412 0.739732 0.761392 -0.054983
O31   O     O_2   0.913460 0.810627 0.796906 -0.242333
O32   O     O_2   0.939876 0.677045 0.837204 -0.275899
O33   O     O_3   0.999593 0.748413 0.774883 -0.588682
H91   H     H_    0.031031 0.706977 0.825247 0.374848
S12   S     S_3+6 0.866028 0.166291 0.761074 -0.013294
O34   O     O_2   0.831438 0.181364 0.809994 -0.211108
O35   O     O_2   0.853373 0.084879 0.725497 -0.275360
O36   O     O_3   0.952309 0.178957 0.861913 -0.549159
H92   H     H_    0.968216 0.133984 0.910207 0.400709

loop_
_geom_bond_atom_site_label_1
_geom_bond_atom_site_label_2
_ccdc_geom_bond_type
S11   O33   S    
C15   C75   A    
C37   C41   S    
N8    N28   A    
C55   C59   D    
C84   S8    S    
C1    C93   A    
C32   H28   S    
C20   C36   S    
C43   H47   S    
C7    C55   S    
C30   C34   S    
C25   C43   S    
C1    N1    A    
C26   H18   S    
C71   N11   A    
C52   H32   S    
C45   N5    A    
C21   H9    S    
C84   N24   A    
S1    O3    S    
C13   C33   S    
C76   N16   A    
C29   H23   S    
N3    Ni2   S    
C17   C23   S    
C71   H67   S    
C10   C37   S    
C18   C24   S    
C14   C74   A    
C5    C53   S    
S1    O1    D    
C19   C21   S    
C69   H65   S    
C18   S10   S    
C38   C42   S    
C10   C78   A    
N25   Ni7   S    
C20   C22   S    
C81   N21   A    
S9    O25   D    
C11   C71   A    
N17   Ni3   S    
N1    Ni1   S    
S11   O31   D    
C22   C38   S    
N10   Ni5   S    
C13   C81   A    
C92   C96   A    
C79   N19   A    
C82   S6    S    
C81   S5    S    
O33   H91   S    
C78   N18   A    
C79   H75   S    
C87   H79   S    
C19   C35   S    
N22   Ni1   S    
C17   H5    S    
C72   N12   A    
C19   S11   S    
C77   N17   A    
C73   N13   A    
C50   H34   S    
C75   H71   S    
C92   Br4   S    
N18   Ni3   S    
C74   N14   A    
C62   C93   S    
C19   H7    S    
C26   C34   S    
C7    C87   A    
C30   H26   S    
C29   C33   S    
N1    N29   A    
O27   H89   S    
C29   H25   S    
C42   H46   S    
C85   H77   S    
O12   H84   S    
S12   O36   S    
C90   C94   A    
C24   H12   S    
N26   Ni7   S    
N13   Ni7   S    
N14   Ni7   S    
C86   N26   A    
S9    O26   D    
C68   H52   S    
C85   N25   A    
C46   H42   S    
C5    C85   A    
N16   Ni8   S    
C55   H63   S    
C32   C36   S    
C12   C72   A    
N11   Ni6   S    
N29   Ni5   S    
C91   Br3   S    
C90   N30   A    
O30   H90   S    
C17   S9    S    
C8    C56   S    
O9    H83   S    
C11   C79   A    
C17   C33   S    
C4    N4    A    
C80   N20   A    
C70   H66   S    
C15   C35   S    
O3    H81   S    
C21   H15   S    
C43   S3    S    
N8    Ni4   S    
C63   C67   D    
C44   H48   S    
S7    O20   D    
C4    C96   A    
C23   H13   S    
C89   N29   A    
C30   H24   S    
S6    O18   S    
C28   H20   S    
C38   C50   S    
C62   C66   D    
C26   C44   S    
C52   H36   S    
N27   Ni8   S    
C2    C94   A    
C24   H14   S    
C74   H70   S    
C47   N7    A    
C1    H1    S    
S6    O17   D    
C48   N8    A    
O18   H86   S    
N12   Ni6   S    
C61   C94   S    
C31   H27   S    
N16   N24   A    
C39   C43   S    
S2    O6    S    
C27   C35   S    
O21   H87   S    
C40   C52   S    
C5    C45   A    
C63   C96   S    
C16   C84   A    
N24   Ni2   S    
C3    N3    A    
N2    Ni1   S    
C57   H53   S    
C86   H78   S    
C7    C47   A    
C3    H3    S    
C75   N15   A    
C8    C48   A    
C20   S12   S    
C78   H74   S    
C41   H45   S    
C26   H38   S    
C25   H17   S    
N15   Ni8   S    
C54   H62   S    
C37   C49   S    
C27   C41   S    
C91   N31   A    
S3    O7    D    
N3    N31   A    
C40   C44   S    
O36   H92   S    
C48   H44   S    
C23   H11   S    
C64   C68   D    
C45   H41   S    
S6    O16   D    
C39   C51   S    
C89   Br1   S    
C60   H56   S    
C9    C77   A    
C88   N28   A    
C18   H6    S    
S2    O5    D    
C18   C34   S    
C28   C36   S    
C76   H72   S    
S10   O29   D    
S8    O24   S    
C50   H30   S    
C10   C70   A    
N30   Ni5   S    
C73   H69   S    
S3    O8    D    
C13   C73   A    
C6    C54   S    
C22   H16   S    
C72   H68   S    
C67   H51   S    
C9    C69   A    
C31   C35   S    
N31   Ni6   S    
C47   H43   S    
C14   C82   A    
C83   N23   A    
O24   H88   S    
C90   Br2   S    
C9    C38   S    
C69   N9    A    
N4    Ni2   S    
C25   H37   S    
N14   N22   A    
S8    O23   D    
C54   C58   D    
S7    O21   S    
N13   N21   A    
S11   O32   D    
C77   H73   S    
C30   C52   S    
N6    Ni3   S    
C53   C57   D    
C6    C46   A    
C2    N2    A    
O6    H82   S    
S4    O11   D    
C28   H40   S    
C61   H57   S    
N10   N18   A    
N5    N25   A    
C16   C76   A    
C64   C95   S    
N15   N23   A    
S10   O30   S    
C6    C86   A    
C14   C34   S    
S9    O27   S    
C41   S1    S    
S7    O19   D    
N6    N26   A    
N32   Ni6   S    
C82   N22   A    
C20   H8    S    
C31   H21   S    
C59   H55   S    
C92   N32   A    
S1    O2    D    
C49   H29   S    
N28   Ni8   S    
C53   H61   S    
C87   N27   A    
C4    H4    S    
N2    N30   A    
N5    Ni3   S    
N23   Ni2   S    
C27   H39   S    
C46   N6    A    
C12   C39   S    
S5    O14   D    
N7    Ni4   S    
C63   H59   S    
N19   Ni4   S    
C56   H64   S    
C22   H10   S    
C59   C65   S    
O15   H85   S    
S12   O34   D    
C57   C67   S    
C32   H22   S    
C58   C68   S    
C49   H33   S    
C2    H2    S    
C15   C83   A    
C12   C80   A    
C65   H49   S    
C28   C42   S    
S4    O10   D    
C24   C40   S    
C3    C95   A    
N9    Ni5   S    
C64   H60   S    
C32   C50   S    
S4    O12   S    
C61   C65   D    
C89   C93   A    
C11   C40   S    
C44   S4    S    
S5    O13   D    
C66   H50   S    
N21   Ni1   S    
S10   O28   D    
C70   N10   A    
C29   C51   S    
C60   C66   S    
N20   Ni4   S    
C56   C60   D    
C88   H80   S    
C62   H58   S    
S3    O9    S    
C21   C37   S    
C51   H31   S    
N12   N20   A    
C91   C95   A    
C51   H35   S    
S5    O15   S    
C83   S7    S    
C80   H76   S    
N11   N19   A    
N9    N17   A    
N7    N27   A    
C31   C49   S    
C42   S2    S    
C8    C88   A    
N4    N32   A    
S12   O35   D    
S2    O4    D    
C23   C39   S    
C16   C36   S    
C58   H54   S    
C25   C33   S    
S8    O22   D    
C27   H19   S    
