data_mof_unit_4598.cif
_audit_creation_date              2012-12-10T17:33:47-0500
_audit_creation_method            fapswitch 2.2
_symmetry_space_group_name_H-M    P1
_symmetry_Int_Tables_number       1
_space_group_crystal_system       triclinic
_cell_length_a                    11.665417
_cell_length_b                    12.410982
_cell_length_c                    13.094963
_cell_angle_alpha                 116.951935
_cell_angle_beta                  76.169912
_cell_angle_gamma                 100.927659
_cell_volume                      1633.72692446

loop_
_atom_site_label
_atom_site_type_symbol
_atom_type_description
_atom_site_fract_x
_atom_site_fract_y
_atom_site_fract_z
_atom_type_partial_charge
C1    C     C_R   0.510763 0.855229 0.285321 0.776793
C2    C     C_R   0.329088 0.494179 0.163506 -0.200060
C3    C     C_R   0.373095 0.615012 0.196836 -0.170352
C4    C     C_R   0.715640 0.999801 0.499734 0.829077
C5    C     C_R   0.516689 0.345377 0.874774 0.348835
C6    C     C_R   0.369319 0.195743 0.913487 -0.257152
C7    C     C_R   0.515608 0.773944 0.159054 -0.181762
C8    C     C_R   0.703610 0.350292 0.339469 -0.252507
C9    C     C_R   0.353307 0.770986 0.659405 0.102915
C10   C     C_R   0.343272 0.694062 0.711985 -0.275688
C11   C     C_R   0.409555 0.594508 0.657796 -0.156833
C12   C     C_R   0.459982 0.227295 0.837511 -0.139298
C13   C     C_R   0.476912 0.562566 0.545681 0.032860
C14   C     C_R   0.498832 0.653947 0.504906 0.258620
C15   C     C_R   0.535854 0.452697 0.481571 -0.118303
C16   C     C_R   0.483966 0.144677 0.714023 0.804699
C17   C     C_R   0.634285 0.449200 0.391938 0.034097
C18   C     C_R   0.661862 0.545221 0.357450 -0.044987
C19   C     C_R   0.593515 0.644095 0.413032 -0.233671
C20   C     C_R   0.496645 0.343201 0.497083 0.598509
C21   C     C_R   0.669567 0.251371 0.365724 0.040398
C22   C     C_R   0.284374 0.000015 0.500005 0.784131
C23   C     C_R   0.581030 0.812429 0.072525 0.007594
C24   C     C_1   0.837373 0.000048 0.500136 -0.152570
C25   C     C_1   0.939998 0.000341 0.500406 0.020453
C26   C     C_1   0.059912 0.000498 0.500479 0.013796
C27   C     C_1   0.162566 0.000352 0.500316 -0.153568
C28   C     C_R   0.330137 0.283841 0.023921 -0.164882
C29   C     C_2   0.757355 0.543165 0.258504 0.829481
C30   C     C_3   0.343040 0.332942 0.649448 0.143343
C31   C     C_3   0.222983 0.385101 0.704984 -0.860010
C32   C     C_3   0.716938 0.358630 0.853833 0.081809
C33   C     C_3   0.833275 0.371793 0.776007 -0.776218
C34   C     C_R   0.602299 0.728020 0.956639 -0.204995
C35   C     C_2   0.626106 0.939708 0.096485 0.853392
C36   C     C_R   0.564034 0.606327 0.924727 -0.177741
C37   C     C_R   0.500891 0.564424 0.008032 0.088367
C38   C     C_R   0.464276 0.651559 0.122953 0.073526
C39   C     C_R   0.465563 0.439176 0.978603 -0.030475
C40   C     C_R   0.375460 0.405591 0.056095 0.105510
Cu1   Cu    Cu3+1 0.526510 0.098270 0.475420 0.999120
Cu2   Cu    Cu3+1 0.473490 0.901730 0.524580 0.931435
H1    H     H_    0.326067 0.104216 0.886070 0.168953
H2    H     H_    0.648776 0.756780 0.889566 0.163318
H3    H     H_    0.329642 0.679903 0.278703 0.176316
H4    H     H_    0.723891 0.176124 0.325295 0.150541
H5    H     H_    0.836196 0.448923 0.092923 0.322179
H6    H     H_    0.412062 0.383639 0.704156 0.103479
H7    H     H_    0.325564 0.244514 0.652670 0.176281
H8    H     H_    0.216256 0.462249 0.686886 0.272752
H9    H     H_    0.150858 0.314144 0.669297 0.246070
H10   H     H_    0.208268 0.415332 0.800593 0.209643
H11   H     H_    0.709902 0.269133 0.856708 0.152817
H12   H     H_    0.785290 0.348614 0.279014 0.179842
H13   H     H_    0.718811 0.432920 0.942872 0.176175
H14   H     H_    0.843776 0.460852 0.772278 0.254229
H15   H     H_    0.908627 0.366384 0.811193 0.200872
H16   H     H_    0.834479 0.297880 0.686677 0.251955
H17   H     H_    0.767524 0.058575 0.086528 0.327241
H18   H     H_    0.305730 0.851289 0.703244 0.125580
H19   H     H_    0.416381 0.551964 0.710212 0.147190
H20   H     H_    0.289538 0.715054 0.797300 0.156559
H21   H     H_    0.619815 0.714148 0.384063 0.220247
H22   H     H_    0.258229 0.470023 0.222211 0.151565
H23   H     H_    0.260026 0.257904 0.081947 0.155180
H24   H     H_    0.578232 0.548147 0.832711 0.190646
N1    N     N_R   0.566700 0.246290 0.438210 -0.204879
N2    N     N_R   0.434010 0.754320 0.561170 -0.202773
O1    O     O_R   0.533340 0.972510 0.318140 -0.541208
O2    O     O_R   0.768276 0.438420 0.153489 -0.780395
O3    O     O_3   0.375061 0.320291 0.532897 -0.563437
O4    O     O_3   0.622305 0.366286 0.808229 -0.599871
O5    O     O_2   0.556769 0.017301 0.135080 -0.566008
O6    O     O_R   0.747506 0.969273 0.068215 -0.770713
O7    O     O_R   0.488570 0.806530 0.359650 -0.603476
O8    O     O_R   0.685190 0.083000 0.479260 -0.581549
O9    O     O_R   0.640410 0.917020 0.520770 -0.579950
O10   O     O_R   0.511430 0.193470 0.640350 -0.574503
O11   O     O_R   0.466660 0.027490 0.681860 -0.591639
O12   O     O_R   0.359590 0.082980 0.479230 -0.536418
O13   O     O_R   0.314810 0.917000 0.520740 -0.589284
O14   O     O_2   0.823498 0.634981 0.267452 -0.601217

loop_
_geom_bond_atom_site_label_1
_geom_bond_atom_site_label_2
_ccdc_geom_bond_type
C35   O6    S    
C33   H16   S    
Cu1   Cu2   S    
C20   N1    A    
C31   H10   S    
Cu1   O12   S    
C30   O3    S    
C32   O4    S    
Cu2   O7    S    
C30   H6    S    
C36   C37   A    
C29   O2    S    
C5    O4    S    
C6    C12   A    
C30   C31   S    
C4    C24   S    
C36   H24   S    
C28   C40   A    
C18   C19   A    
C6    C28   A    
C12   C16   S    
C3    C38   A    
C19   H21   S    
C20   O3    S    
C9    C10   A    
C32   H13   S    
C16   O10   A    
C33   H14   S    
Cu2   O11   S    
C13   C14   A    
C21   N1    A    
Cu2   N2    S    
C10   H20   S    
Cu2   O13   S    
C2    H22   S    
C8    C21   A    
C15   C20   A    
C1    O7    A    
C22   O13   A    
C34   H2    S    
C24   C25   T    
C5    C12   A    
Cu1   N1    S    
C8    H12   S    
C39   C40   A    
C25   C26   S    
C3    H3    S    
C1    O1    A    
H5    O2    S    
C37   C38   A    
C23   C34   A    
C17   C18   A    
C26   C27   T    
C18   C29   S    
H17   O6    S    
C30   H7    S    
C23   C35   S    
C6    H1    S    
C13   C15   A    
C31   H8    S    
C32   H11   S    
Cu1   O10   S    
Cu1   O1    S    
C21   H4    S    
C15   C17   A    
C35   O5    D    
C33   H15   S    
C1    C7    S    
C14   C19   A    
C31   H9    S    
C11   H19   S    
C8    C17   A    
C22   C27   S    
C9    H18   S    
C32   C33   S    
C16   O11   A    
C5    C39   A    
C2    C3    A    
C9    N2    A    
C22   O12   A    
C4    O9    A    
C37   C39   A    
Cu1   O8    S    
C11   C13   A    
C7    C23   A    
C7    C38   A    
C28   H23   S    
C34   C36   A    
C4    O8    A    
C10   C11   A    
C2    C40   A    
C29   O14   D    
Cu2   O9    S    
C14   N2    A    
