data_mof_unit_1314.cif
_audit_creation_date              2012-12-11T16:28:27-0500
_audit_creation_method            fapswitch 2.2
_symmetry_space_group_name_H-M    P1
_symmetry_Int_Tables_number       1
_space_group_crystal_system       triclinic
_cell_length_a                    16.546342
_cell_length_b                    7.258955
_cell_length_c                    15.212845
_cell_angle_alpha                 90.000124
_cell_angle_beta                  94.628018
_cell_angle_gamma                 89.999986
_cell_volume                      1821.24439633

loop_
_atom_site_label
_atom_site_type_symbol
_atom_type_description
_atom_site_fract_x
_atom_site_fract_y
_atom_site_fract_z
_atom_type_partial_charge
O1    O     O_R   0.663460 0.361760 0.165970 -0.528471
O2    O     O_R   0.336540 0.638240 0.834030 -0.528470
O3    O     O_R   0.836540 0.861760 0.334030 -0.528471
O4    O     O_R   0.163460 0.138240 0.665970 -0.528470
O5    O     O_R   0.827100 0.689870 0.163730 -0.521540
O6    O     O_R   0.172900 0.310130 0.836270 -0.521540
O7    O     O_R   0.672900 0.189870 0.336270 -0.521538
O8    O     O_R   0.327100 0.810130 0.663730 -0.521539
H1    H     H_    0.206185 0.878156 0.505626 0.141428
H2    H     H_    0.793814 0.121840 0.494374 0.141426
H3    H     H_    0.293814 0.378160 0.994374 0.141427
H4    H     H_    0.706186 0.621840 0.005626 0.141427
C1    C     C_R   0.853253 0.522955 0.143607 0.726141
C2    C     C_R   0.146747 0.477045 0.856393 0.726141
C3    C     C_R   0.646748 0.022955 0.356394 0.726141
C4    C     C_R   0.353253 0.977045 0.643607 0.726143
O9    O     O_R   0.663490 0.691370 0.155500 -0.533643
O10   O     O_R   0.336510 0.308630 0.844500 -0.533643
O11   O     O_R   0.836510 0.191370 0.344500 -0.533643
O12   O     O_R   0.163490 0.808630 0.655500 -0.533643
O13   O     O_R   0.671770 0.863320 0.325740 -0.523809
O14   O     O_R   0.328230 0.136680 0.674260 -0.523809
O15   O     O_R   0.828230 0.363320 0.174260 -0.523810
O16   O     O_R   0.171770 0.636680 0.825740 -0.523809
C5    C     C_R   0.634804 0.523473 0.135236 0.717642
C6    C     C_R   0.365196 0.476527 0.864764 0.717643
C7    C     C_R   0.865196 0.023473 0.364764 0.717642
C8    C     C_R   0.134803 0.976527 0.635236 0.717642
H5    H     H_    0.127396 0.881403 0.233332 0.176433
H6    H     H_    0.872602 0.118584 0.766668 0.176433
H7    H     H_    0.372604 0.381408 0.266667 0.176433
H8    H     H_    0.627396 0.618592 0.733333 0.176431
O17   O     O_3   0.752910 0.528800 0.305860 -0.364681
O18   O     O_3   0.247090 0.471200 0.694140 -0.364682
O19   O     O_3   0.747090 0.028800 0.194140 -0.364683
O20   O     O_3   0.252910 0.971200 0.805860 -0.364682
V1    V     V_3+5 0.749460 0.803010 0.239640 1.531436
V2    V     V_3+5 0.250540 0.196990 0.760360 1.531435
V3    V     V_3+5 0.750540 0.303010 0.260360 1.531439
V4    V     V_3+5 0.249460 0.696990 0.739640 1.531436
C9    C     C_1   0.468873 0.994775 0.530172 0.052759
C10   C     C_1   0.531127 0.005225 0.469829 0.052753
C11   C     C_1   0.031127 0.494775 0.969829 0.052755
C12   C     C_1   0.968873 0.505225 0.030171 0.052756
C13   C     C_R   0.036080 0.955026 0.319389 0.086720
C14   C     C_R   0.963919 0.044969 0.680611 0.086718
C15   C     C_R   0.463920 0.455028 0.180611 0.086719
C16   C     C_R   0.536080 0.544972 0.819389 0.086723
C17   C     C_R   0.113577 0.897628 0.301322 -0.118763
C18   C     C_R   0.886422 0.102362 0.698678 -0.118761
C19   C     C_R   0.386423 0.397631 0.198678 -0.118762
C20   C     C_R   0.613577 0.602369 0.801322 -0.118766
C21   C     C_R   0.174041 0.865801 0.368431 0.004087
C22   C     C_R   0.825957 0.134189 0.631569 0.004090
C23   C     C_R   0.325958 0.365805 0.131569 0.004088
C24   C     C_R   0.674042 0.634195 0.868431 0.004085
C25   C     C_R   0.156962 0.897061 0.455420 -0.198152
C26   C     C_R   0.843037 0.102935 0.544580 -0.198152
C27   C     C_R   0.343038 0.397065 0.044580 -0.198153
C28   C     C_R   0.656962 0.602935 0.955420 -0.198152
C29   C     C_R   0.078674 0.950662 0.477737 0.029538
C30   C     C_R   0.921326 0.049337 0.522263 0.029539
C31   C     C_R   0.421326 0.450663 0.022263 0.029538
C32   C     C_R   0.578674 0.549337 0.977737 0.029539
C33   C     C_R   0.015237 0.973599 0.408922 0.039297
C34   C     C_R   0.984763 0.026399 0.591078 0.039297
C35   C     C_R   0.484763 0.473600 0.091078 0.039297
C36   C     C_R   0.515237 0.526400 0.908922 0.039297
C37   C     C_R   0.064491 0.982728 0.567678 -0.140788
C38   C     C_R   0.935509 0.017272 0.432322 -0.140788
C39   C     C_R   0.435509 0.482729 0.932322 -0.140789
C40   C     C_R   0.564491 0.517271 0.067678 -0.140789
C41   C     C_1   0.416033 0.986161 0.581561 -0.088677
C42   C     C_1   0.583968 0.013839 0.418439 -0.088683
C43   C     C_1   0.083967 0.486162 0.918439 -0.088676
C44   C     C_1   0.916033 0.513838 0.081561 -0.088676
C45   C     C_2   0.743978 0.196287 0.652353 0.799270
O21   O     O_2   0.727981 0.213395 0.729067 -0.550304
O22   O     O_R   0.684797 0.236730 0.584197 -0.670456
H9    H     H_    0.631704 0.277974 0.606776 0.313152
C46   C     C_2   0.256019 0.803696 0.347647 0.799273
O23   O     O_2   0.272011 0.786549 0.270932 -0.550306
O24   O     O_R   0.315207 0.763291 0.415802 -0.670458
H10   H     H_    0.368297 0.722036 0.393222 0.313152
C47   C     C_2   0.756020 0.696296 0.847646 0.799276
O25   O     O_2   0.772011 0.713447 0.770933 -0.550307
O26   O     O_R   0.815209 0.736694 0.915802 -0.670459
H11   H     H_    0.868300 0.777947 0.893222 0.313151
C48   C     C_2   0.243980 0.303705 0.152353 0.799278
O27   O     O_2   0.227988 0.286558 0.229067 -0.550306
O28   O     O_R   0.184792 0.263303 0.084198 -0.670459
H12   H     H_    0.131700 0.222052 0.106778 0.313151
I1    I     I_    0.966611 0.029062 0.200282 -0.378617
I2    I     I_    0.033389 0.970938 0.799718 -0.378616
I3    I     I_    0.533389 0.529060 0.299718 -0.378612
I4    I     I_    0.466611 0.470939 0.700282 -0.378613

loop_
_geom_bond_atom_site_label_1
_geom_bond_atom_site_label_2
_ccdc_geom_bond_type
C26   C30   A    
O26   H11   S    
C23   C27   A    
C9    C10   S    
C8    C37   S    
O10   C6    A    
C13   I1    S    
C46   O23   D    
H5    C17   S    
C47   O25   D    
C30   C38   A    
C18   C22   A    
O18   V4    S    
C32   C36   A    
O7    V3    S    
O19   V1    S    
C14   C34   A    
C16   C20   A    
O5    V1    S    
O12   V4    S    
C17   C21   A    
C34   C37   A    
C33   C38   A    
O14   V2    S    
C1    O15   A    
C21   C46   S    
C35   C40   A    
C2    O16   A    
C12   C44   T    
H8    C20   S    
C46   O24   S    
O17   V3    S    
O6    V2    S    
C48   O28   S    
O11   C7    A    
O5    C1    A    
C22   C45   S    
O7    C3    A    
H6    C18   S    
O8    C4    A    
O1    C5    A    
C6    C39   S    
H3    C27   S    
C15   C35   A    
O4    C8    A    
C45   O22   S    
C11   C43   T    
C31   C35   A    
C10   C42   T    
C30   C34   A    
C47   O26   S    
C4    C41   S    
H7    C19   S    
O28   H12   S    
C21   C25   A    
C15   C19   A    
O12   C8    A    
C19   C23   A    
C45   O21   D    
C24   C28   A    
C11   C12   S    
O2    V4    S    
O6    C2    A    
O24   H10   S    
C14   I2    S    
C1    C44   S    
C13   C17   A    
O2    C6    A    
C5    C40   S    
O9    V1    S    
C16   C36   A    
C7    C38   S    
O11   V3    S    
O4    V2    S    
C13   C33   A    
C22   C26   A    
C29   C37   A    
C4    O14   A    
C16   I4    S    
H2    C26   S    
C31   C39   A    
C25   C29   A    
C14   C18   A    
C27   C31   A    
C28   C32   A    
O9    C5    A    
C2    C43   S    
O20   V2    S    
O10   V2    S    
C23   C48   S    
C24   C47   S    
C36   C39   A    
O15   V3    S    
O3    C7    A    
O16   V4    S    
H1    C25   S    
C32   C40   A    
O1    V3    S    
C9    C41   T    
O22   H9    S    
H4    C28   S    
C29   C33   A    
C3    O13   A    
C3    C42   S    
O13   V1    S    
O3    V1    S    
C15   I3    S    
O8    V4    S    
C48   O27   D    
C20   C24   A    
