data_mof_unit_956.cif
_audit_creation_date              2013-03-05T15:59:10-0500
_audit_creation_method            fapswitch 2.2
_symmetry_space_group_name_H-M    P1
_symmetry_Int_Tables_number       1
_space_group_crystal_system       triclinic
_cell_length_a                    12.616441
_cell_length_b                    13.144611
_cell_length_c                    15.73745
_cell_angle_alpha                 90.616504
_cell_angle_beta                  102.712367
_cell_angle_gamma                 82.36174
_cell_volume                      2522.84376398

loop_
_atom_site_label
_atom_site_type_symbol
_atom_site_description
_atom_site_fract_x
_atom_site_fract_y
_atom_site_fract_z
_atom_type_partial_charge
O1    O     O_R   0.366740 0.627160 0.478850 -0.613358
O2    O     O_R   0.544830 0.662520 0.507140 -0.622348
C1    C     C_R   0.438825 0.691131 0.486749 0.847448
O3    O     O_R   0.410920 0.482310 0.608710 -0.619473
O4    O     O_R   0.589010 0.517670 0.637000 -0.591963
C2    C     C_R   0.500980 0.500296 0.661498 0.900830
Zn1   Zn    Zn3+2 0.381090 0.476390 0.481110 0.957797
Zn2   Zn    Zn3+2 0.618910 0.523610 0.518890 0.944114
O5    O     O_R   0.455170 0.337480 0.492860 -0.619541
O6    O     O_R   0.633260 0.372840 0.521150 -0.632813
O7    O     O_R   0.410990 0.482330 0.363000 -0.588246
O8    O     O_R   0.589080 0.517690 0.391290 -0.644339
C3    C     C_R   0.561006 0.308801 0.508657 0.858293
C4    C     C_R   0.499026 0.499755 0.338513 0.879442
C5    C     C_3   0.382703 0.533987 0.928236 -0.521610
C6    C     C_3   0.575096 0.580097 0.966856 0.195107
C7    C     C_3   0.574642 0.577283 0.065332 -0.522207
H1    H     H_    0.356152 0.617449 0.042855 0.104111
H2    H     H_    0.350847 0.611592 0.898434 0.157174
H3    H     H_    0.537406 0.658355 0.940934 0.101699
H4    H     H_    0.546019 0.655611 0.085882 0.157306
H5    H     H_    0.658834 0.555111 0.105540 0.234067
C8    C     C_1   0.496946 0.499594 0.249197 -0.139810
C9    C     C_3   0.501791 0.501604 0.917602 0.155326
C10   C     C_3   0.380326 0.536143 0.026404 0.198331
C11   C     C_3   0.497812 0.500683 0.082418 0.156455
C12   C     C_3   0.544087 0.392727 0.055795 -0.354643
C13   C     C_3   0.539989 0.391816 0.957164 -0.348017
C14   C     C_1   0.496727 0.499920 0.173803 -0.037525
C15   C     C_1   0.503138 0.501419 0.826237 -0.035445
C16   C     C_1   0.502989 0.501029 0.750836 -0.143042
H6    H     H_    0.481826 0.338921 0.925268 0.191983
H7    H     H_    0.621416 0.360398 0.945086 0.218775
H8    H     H_    0.498198 0.332553 0.073317 0.216325
H9    H     H_    0.327862 0.480453 0.892534 0.234205
H10   H     H_    0.630618 0.372498 0.092043 0.191264
C17   C     C_R   0.701929 0.064026 0.439335 -0.192665
H11   H     H_    0.745568 0.216005 0.458847 0.149114
H12   H     H_    0.700660 0.873246 0.380178 0.155160
H13   H     H_    0.772470 0.037415 0.412366 0.139493
C18   C     C_R   0.596353 0.200189 0.501214 -0.043131
C19   C     C_R   0.299971 0.838156 0.498446 -0.183033
C20   C     C_R   0.271255 0.942924 0.505949 -0.139324
C21   C     C_R   0.344761 0.010200 0.497518 -0.185076
C22   C     C_R   0.446937 0.973408 0.477018 0.086547
C23   C     C_R   0.467568 0.869379 0.455937 0.084618
C24   C     C_R   0.529382 0.036301 0.476707 0.079332
C25   C     C_R   0.622045 0.000022 0.442107 0.172394
C26   C     C_R   0.632481 0.901208 0.409512 -0.245310
C27   C     C_R   0.556183 0.836517 0.416233 -0.194411
C28   C     C_R   0.523040 0.133940 0.511566 -0.249981
C29   C     C_R   0.688078 0.164851 0.467445 -0.197818
C30   C     C_R   0.399631 0.800659 0.476377 -0.106365
H14   H     H_    0.458768 0.162184 0.544496 0.150706
H15   H     H_    0.245822 0.786333 0.512568 0.153055
H16   H     H_    0.318357 0.090609 0.505164 0.135150
H17   H     H_    0.566616 0.760893 0.388977 0.173552
C31   C     C_R   0.088939 0.344231 0.381936 -0.282977
H18   H     H_    0.255673 0.327847 0.368286 0.146741
H19   H     H_    0.882348 0.312654 0.361501 0.155262
H20   H     H_    0.067477 0.283454 0.336896 0.155763
N1    N     N_R   0.222200 0.444690 0.455710 -0.106024
C32   C     C_R   0.799141 0.631236 0.601014 0.048987
C33   C     C_R   0.903286 0.660681 0.621681 -0.224313
C34   C     C_R   0.984903 0.611172 0.583302 -0.194515
C35   C     C_R   0.962404 0.531309 0.523818 0.019167
C36   C     C_R   0.854761 0.504164 0.505074 0.235027
C37   C     C_R   0.041829 0.477597 0.482309 -0.010453
C38   C     C_R   0.012027 0.398195 0.423326 0.187434
C39   C     C_R   0.905872 0.373162 0.406282 -0.278895
C40   C     C_R   0.828566 0.425469 0.446639 -0.204185
C41   C     C_R   0.150428 0.498924 0.496874 -0.041646
C42   C     C_R   0.194774 0.369002 0.399317 0.035663
N2    N     N_R   0.776960 0.554780 0.543830 -0.135864
H21   H     H_    0.180857 0.557318 0.540470 0.124521
H22   H     H_    0.735226 0.669636 0.630404 0.154251
H23   H     H_    0.064178 0.637074 0.601427 0.137917
H24   H     H_    0.920688 0.721816 0.667178 0.163901
H25   H     H_    0.748676 0.402539 0.430880 0.207537
N3    N     N_R   0.298358 0.475102 0.045087 0.228613
O9    O     O_R   0.298154 0.379795 0.021846 -0.393072
O10   O     O_R   0.221222 0.518062 0.081743 -0.357311
H26   H     H_    0.193747 0.971809 0.522030 0.145871
N4    N     N_R   0.687401 0.562872 0.952812 0.229458
O11   O     O_R   0.721426 0.630829 0.909415 -0.374716
O12   O     O_R   0.755587 0.483061 0.986570 -0.379817

loop_
_geom_bond_atom_site_label_1
_geom_bond_atom_site_label_2
_geom_bond_distance
_ccdc_geom_bond_type
C35   C37   1.421059 A    
C10   N3    1.469411 S    
C20   H26   1.082864 S    
C3    C18   1.449464 S    
C22   C23   1.407580 A    
Zn1   O7    1.980631 S    
C11   C12   1.550708 S    
C7    C11   1.551028 S    
C8    C14   1.185960 T    
N4    O12   1.301464 A    
C17   H13   1.083898 S    
C41   H21   1.076255 S    
C19   C30   1.402939 A    
O4    C2    1.300791 A    
O7    C4    1.300977 A    
C5    C10   1.551675 S    
H11   C29   1.082274 S    
C32   H22   1.081614 S    
C6    N4    1.469405 S    
O5    C3    1.307277 A    
C6    C7    1.551887 S    
N1    C42   1.354441 A    
C39   C40   1.382868 A    
H18   C42   1.081862 S    
C18   C29   1.399951 A    
C6    H3    1.115494 S    
C31   H20   1.083886 S    
C35   C36   1.417364 A    
C6    C9    1.562584 S    
H1    C10   1.115518 S    
O3    Zn1   1.962642 S    
C5    H9    1.113293 S    
C22   C24   1.412912 A    
C12   H8    1.110648 S    
C34   H23   1.077269 S    
C13   H6    1.113487 S    
N4    O11   1.301041 A    
O3    C2    1.299552 A    
C17   C29   1.393751 A    
C37   C38   1.422038 A    
C24   C28   1.389757 A    
C10   C11   1.562535 S    
C7    H4    1.113748 S    
C40   H25   1.066495 S    
C37   C41   1.403890 A    
O1    C1    1.304196 A    
C4    C8    1.400049 S    
C5    H2    1.113740 S    
C20   C21   1.390813 A    
Zn1   N1    2.053714 S    
C19   H15   1.083476 S    
C21   H16   1.078836 S    
C24   C25   1.420218 A    
H19   C39   1.084419 S    
Zn2   O8    1.962642 S    
Zn2   N2    2.041408 S    
N1    C41   1.350725 A    
C36   N2    1.363558 A    
C17   C25   1.403922 A    
N3    O10   1.301056 A    
C5    C9    1.551035 S    
H12   C26   1.084054 S    
O8    C4    1.299213 A    
C13   H7    1.110648 S    
C34   C35   1.414223 A    
C19   C20   1.387226 A    
C21   C22   1.419045 A    
Zn1   O5    1.928531 S    
C25   C26   1.391926 A    
O1    Zn1   1.965942 S    
C27   H17   1.081818 S    
C33   H24   1.082570 S    
O2    Zn2   1.928531 S    
C9    C13   1.550775 S    
N3    O9    1.301459 A    
O6    C3    1.303751 A    
O4    Zn2   1.980633 S    
C31   C38   1.397960 A    
C32   N2    1.357441 A    
C12   H10   1.113533 S    
C23   C27   1.414294 A    
C7    H5    1.113314 S    
C28   H14   1.079215 S    
C33   C34   1.391317 A    
O2    C1    1.308842 A    
C1    C30   1.457455 S    
C15   C16   1.186169 T    
C23   C30   1.409789 A    
C2    C16   1.400536 S    
C36   C40   1.400565 A    
C38   C39   1.389636 A    
C9    C15   1.441652 S    
C32   C33   1.387959 A    
C11   C14   1.441393 S    
Zn2   O6    1.965943 S    
C26   C27   1.387525 A    
C12   C13   1.541617 S    
C18   C28   1.387048 A    
C31   C42   1.384445 A    
