data_mof_unit_4741.cif
_audit_creation_date              2012-12-10T17:49:42-0500
_audit_creation_method            fapswitch 2.2
_symmetry_space_group_name_H-M    P1
_symmetry_Int_Tables_number       1
_space_group_crystal_system       triclinic
_cell_length_a                    10.489062
_cell_length_b                    10.635147
_cell_length_c                    9.936412
_cell_angle_alpha                 88.203447
_cell_angle_beta                  89.340676
_cell_angle_gamma                 88.759716
_cell_volume                      1107.564296

loop_
_atom_site_label
_atom_site_type_symbol
_atom_type_description
_atom_site_fract_x
_atom_site_fract_y
_atom_site_fract_z
_atom_type_partial_charge
C1    C     C_R   0.487841 0.261057 0.503006 0.917831
C2    C     C_R   0.372531 0.060359 0.551504 0.011043
C3    C     C_R   0.483595 0.127610 0.510957 -0.081514
C4    C     C_R   0.257482 0.501308 0.500592 0.867378
C5    C     C_R   0.594017 0.066635 0.464835 -0.208420
C6    C     C_R   0.598358 0.938262 0.459203 -0.208413
C7    C     C_R   0.489775 0.871592 0.492002 -0.053299
C8    C     C_R   0.335141 0.663277 0.136589 -0.145675
C9    C     C_R   0.251995 0.743319 0.065201 -0.193274
C10   C     C_R   0.250005 0.741711 0.926063 -0.186097
C11   C     C_R   0.331643 0.660540 0.857519 -0.138546
C12   C     C_3   0.961788 0.494934 0.371394 -0.138141
C13   C     C_R   0.417389 0.577939 0.926298 0.179461
C14   C     C_R   0.418231 0.578655 0.070639 0.164083
C15   C     C_R   0.578491 0.420125 0.073120 -0.110411
C16   C     C_R   0.501736 0.739317 0.497614 0.843169
C17   C     C_R   0.578628 0.420240 0.930108 -0.079708
C18   C     C_R   0.742504 0.499382 0.499273 0.856409
C19   C     C_3   0.038207 0.506338 0.628218 -0.093309
C20   C     C_3   0.959539 0.399496 0.571434 -0.148927
C21   C     C_3   0.877680 0.499610 0.497882 0.015429
C22   C     C_3   0.953638 0.606384 0.554516 -0.211812
C23   C     C_3   0.046321 0.394821 0.445095 -0.146263
C24   C     C_3   0.040477 0.601741 0.428157 -0.210207
C25   C     C_3   0.122321 0.501596 0.501742 0.046649
C26   C     C_R   0.260384 0.113304 0.612489 0.339434
C27   C     C_R   0.149048 0.043602 0.624357 -0.167554
C28   C     C_R   0.148379 0.919332 0.586626 -0.232115
C29   C     C_R   0.260655 0.861667 0.543175 -0.208792
C30   C     C_R   0.373940 0.930485 0.528427 0.069934
Cl1   Cl    Cl    0.257091 0.249356 0.706916 -0.651941
H1    H     H_    0.921944 0.317085 0.629347 0.136321
H2    H     H_    0.643173 0.357276 0.877866 0.142532
H3    H     H_    0.073581 0.511387 0.732774 0.167838
H4    H     H_    0.910052 0.691847 0.598895 0.132309
H5    H     H_    0.078056 0.683929 0.369853 0.134096
H6    H     H_    0.926629 0.490166 0.266743 0.149471
H7    H     H_    0.089066 0.308707 0.401154 0.144001
H8    H     H_    0.678043 0.118935 0.435197 0.137913
H9    H     H_    0.063585 0.084283 0.669014 0.161696
H10   H     H_    0.062177 0.865840 0.597549 0.151256
H11   H     H_    0.257989 0.763254 0.519932 0.116967
H12   H     H_    0.686306 0.890664 0.429604 0.137971
H13   H     H_    0.642938 0.357037 0.127993 0.145309
H14   H     H_    0.331791 0.670925 0.243007 0.199744
H15   H     H_    0.188865 0.807102 0.118366 0.151668
H16   H     H_    0.185141 0.804108 0.870669 0.164855
H17   H     H_    0.324556 0.665605 0.751020 0.200243
N1    N     N_R   0.498800 0.498800 0.142780 -0.121384
N2    N     N_R   0.498760 0.498720 0.857170 -0.109343
O1    O     O_R   0.500000 0.316780 0.614690 -0.563182
O2    O     O_R   0.499990 0.316750 0.385360 -0.619446
O3    O     O_R   0.313960 0.499980 0.614650 -0.599356
O4    O     O_R   0.313940 0.499960 0.385310 -0.647188
O5    O     O_R   0.500010 0.683250 0.614640 -0.635413
O6    O     O_R   0.500000 0.683220 0.385310 -0.639639
O7    O     O_R   0.686060 0.500040 0.614690 -0.623086
O8    O     O_R   0.686040 0.500020 0.385350 -0.625753
Zn1   Zn    Zn3+2 0.500010 0.500020 0.653130 0.975452
Zn2   Zn    Zn3+2 0.499990 0.499980 0.346870 0.937747

loop_
_geom_bond_atom_site_label_1
_geom_bond_atom_site_label_2
_ccdc_geom_bond_type
C17   N2    A    
C16   O6    A    
C6    C7    A    
C12   H6    S    
O5    Zn1   S    
C4    O3    A    
C23   H7    S    
C11   C13   A    
C9    C10   A    
C12   C24   S    
C18   O7    A    
C19   C20   S    
C24   H5    S    
C20   C23   S    
C27   H9    S    
C2    C30   A    
C15   N1    A    
C2    C3    A    
O3    Zn1   S    
C16   O5    A    
C26   Cl1   S    
C2    C26   A    
C7    C30   A    
O4    Zn2   S    
C21   C22   S    
C24   C25   S    
C22   H4    S    
C1    O1    A    
C12   C23   S    
C11   H17   S    
C29   C30   A    
N1    Zn2   S    
C17   H2    S    
C19   C25   S    
N2    Zn1   S    
C28   C29   A    
C15   H13   S    
C4    C25   S    
C6    H12   S    
C23   C25   S    
C26   C27   A    
C5    C6    A    
C29   H11   S    
C1    O2    A    
C22   C24   S    
O7    Zn1   S    
C14   N1    A    
O1    Zn1   S    
C10   C11   A    
O8    Zn2   S    
C13   N2    A    
C18   C21   S    
C3    C5    A    
C28   H10   S    
C9    H15   S    
C19   C22   S    
C20   C21   S    
C20   H1    S    
C27   C28   A    
C15   C17   A    
C5    H8    S    
C8    H14   S    
C7    C16   S    
C8    C14   A    
O2    Zn2   S    
C4    O4    A    
C13   C14   A    
C10   H16   S    
C12   C21   S    
C18   O8    A    
O6    Zn2   S    
C8    C9    A    
C1    C3    S    
C19   H3    S    
