data_mof_unit_72.cif
_audit_creation_date              2012-12-10T17:17:27-0500
_audit_creation_method            fapswitch 2.2
_symmetry_space_group_name_H-M    P1
_symmetry_Int_Tables_number       1
_space_group_crystal_system       triclinic
_cell_length_a                    10.184794
_cell_length_b                    10.736603
_cell_length_c                    12.179087
_cell_angle_alpha                 90.609238
_cell_angle_beta                  108.926594
_cell_angle_gamma                 96.260828
_cell_volume                      1250.76780367

loop_
_atom_site_label
_atom_site_type_symbol
_atom_type_description
_atom_site_fract_x
_atom_site_fract_y
_atom_site_fract_z
_atom_type_partial_charge
C1    C     C_R   0.054685 0.733554 0.496762 0.910473
C2    C     C_R   0.419904 0.488853 0.994736 0.098924
C3    C     C_R   0.325078 0.450405 0.884217 0.031086
C4    C     C_R   0.557274 0.456621 0.024372 0.093077
C5    C     C_R   0.591635 0.368069 0.954033 0.136981
C6    C     C_R   0.489573 0.315624 0.853044 -0.231982
C7    C     C_R   0.357718 0.355916 0.818557 -0.147623
C8    C     C_R   0.661736 0.511160 0.122521 -0.229301
C9    C     C_R   0.824528 0.376692 0.094161 -0.140351
C10   C     C_R   0.200705 0.507946 0.842158 -0.267391
C11   C     C_2   0.095377 0.867971 0.509516 -0.016074
C12   C     C_R   0.132515 0.508148 0.715430 0.896870
C13   C     C_2   0.021306 0.937498 0.554125 -0.161954
C14   C     C_2   0.929964 0.135567 0.532937 -0.358914
C15   C     C_2   0.040729 0.071978 0.556602 -0.124303
C16   C     C_2   0.432826 0.511621 0.509964 -0.110713
C17   C     C_2   0.567313 0.487805 0.490651 -0.135738
C18   C     C_R   0.950496 0.267332 0.512098 0.922164
C19   C     C_R   0.866148 0.487588 0.285446 0.874766
C20   C     C_R   0.726574 0.330894 0.988127 -0.135614
C21   C     C_R   0.789016 0.463970 0.162818 -0.050984
C22   C     C_R   0.154854 0.575685 0.921955 0.465908
C23   C     C_R   0.241166 0.594008 0.037441 -0.205033
C24   C     C_R   0.373176 0.555393 0.072718 -0.281254
H1    H     H_    0.924052 0.339452 0.124951 0.159494
H2    H     H_    0.934787 0.895030 0.580302 0.199403
H3    H     H_    0.826166 0.089940 0.524221 0.166640
H4    H     H_    0.564685 0.413217 0.428874 0.168212
H5    H     H_    0.435550 0.585812 0.572153 0.178313
H6    H     H_    0.684479 0.623710 0.602738 0.192793
H7    H     H_    0.315350 0.376894 0.396611 0.176198
H8    H     H_    0.511946 0.244458 0.800076 0.162696
H9    H     H_    0.753794 0.262359 0.935766 0.157674
H10   H     H_    0.644165 0.586931 0.173123 0.155430
H11   H     H_    0.434362 0.574239 0.163158 0.165608
H12   H     H_    0.208909 0.642730 0.100837 0.204971
H13   H     H_    0.280758 0.310354 0.741117 0.166185
H14   H     H_    0.144572 0.118580 0.567221 0.205389
N1    N     N_2   0.313640 0.446500 0.454900 -0.187995
N2    N     N_2   0.686360 0.553430 0.545150 -0.165784
O1    O     O_R   0.936910 0.692950 0.509080 -0.608638
O2    O     O_R   0.138320 0.658600 0.480130 -0.580281
O3    O     O_R   0.002900 0.525670 0.675280 -0.509162
O4    O     O_R   0.204310 0.491320 0.646330 -0.624767
O5    O     O_R   0.861680 0.341400 0.519870 -0.600503
O6    O     O_R   0.063090 0.307050 0.490920 -0.611272
O7    O     O_R   0.795690 0.508680 0.353670 -0.617706
O8    O     O_R   0.997100 0.474330 0.324720 -0.600547
Zn1   Zn    Zn3+2 0.865520 0.522940 0.519330 1.009608
Zn2   Zn    Zn3+2 0.134480 0.477060 0.480670 0.964172
I1    I     I_    0.264141 0.943708 0.453453 -0.373225
S1    S     S_3+6 0.992674 0.639296 0.884499 0.019644
O9    O     O_2   0.974907 0.700202 0.989757 -0.311103
O10   O     O_2   0.987773 0.735983 0.795310 -0.309608
O11   O     O_3   0.860884 0.523409 0.829914 -0.554516
H15   H     H_    0.774795 0.561987 0.823384 0.369662

loop_
_geom_bond_atom_site_label_1
_geom_bond_atom_site_label_2
_ccdc_geom_bond_type
C2    C4    A    
C23   C24   A    
C15   H14   S    
C6    C7    A    
C14   H3    S    
C14   C18   S    
C9    C20   A    
C6    H8    S    
C1    C11   S    
S1    O11   S    
O5    Zn1   S    
C4    C8    A    
O11   H15   S    
O8    Zn2   S    
C2    C3    A    
C7    H13   S    
H6    N2    S    
O7    Zn1   S    
C3    C10   A    
C8    H10   S    
C10   C22   A    
C11   C13   D    
C9    C21   A    
C16   C17   S    
C10   C12   S    
O2    Zn2   S    
C20   H9    S    
C18   O6    A    
O1    Zn1   S    
C19   C21   S    
S1    O10   D    
C8    C21   A    
C12   O3    A    
C3    C7    A    
C13   C15   S    
C2    C24   A    
C5    C6    A    
C19   O7    A    
C13   H2    S    
C24   H11   S    
C11   I1    S    
C16   N1    D    
C9    H1    S    
N2    Zn1   S    
C18   O5    A    
C1    O2    A    
N1    Zn2   S    
S1    O9    D    
C22   S1    S    
C23   H12   S    
O4    Zn2   S    
C5    C20   A    
O6    Zn2   S    
C14   C15   D    
C12   O4    A    
C16   H5    S    
C19   O8    A    
C17   H4    S    
C22   C23   A    
O3    Zn1   S    
C1    O1    A    
H7    N1    S    
C4    C5    A    
C17   N2    D    
