data_mof_unit_1629.cif
_audit_creation_date              2012-12-10T17:50:39-0500
_audit_creation_method            fapswitch 2.2
_symmetry_space_group_name_H-M    P1
_symmetry_Int_Tables_number       1
_space_group_crystal_system       triclinic
_cell_length_a                    15.736581
_cell_length_b                    10.619807
_cell_length_c                    9.979902
_cell_angle_alpha                 87.5776
_cell_angle_beta                  89.215995
_cell_angle_gamma                 93.317412
_cell_volume                      1663.33551425

loop_
_atom_site_label
_atom_site_type_symbol
_atom_type_description
_atom_site_fract_x
_atom_site_fract_y
_atom_site_fract_z
_atom_type_partial_charge
C1    C     C_R   0.510035 0.261343 0.503300 1.001949
C2    C     C_R   0.461804 0.027708 0.866615 0.435369
C3    C     C_R   0.409927 0.921120 0.841977 -0.216661
C4    C     C_R   0.338074 0.500082 0.500705 0.949105
C5    C     C_R   0.405034 0.875623 0.712219 0.151385
C6    C     C_R   0.460015 0.933420 0.609245 0.066419
C7    C     C_R   0.495917 0.054487 0.627883 -0.031358
C8    C     C_R   0.524124 0.127925 0.512494 -0.226878
C9    C     C_R   0.548513 0.068989 0.396318 0.441389
C10   C     C_R   0.531032 0.941335 0.388425 -0.199098
C11   C     C_R   0.486984 0.873406 0.493345 -0.166966
C12   C     C_3   0.083600 0.519093 0.499703 -0.083022
C13   C     C_R   0.355304 0.392975 0.143360 0.423653
C14   C     C_R   0.277046 0.398628 0.077920 0.036236
C15   C     C_R   0.277707 0.408540 0.938790 -0.290804
C16   C     C_R   0.494000 0.739430 0.497669 0.854110
C17   C     C_R   0.354331 0.402683 0.870096 0.414842
C18   C     C_R   0.430472 0.446015 0.931606 0.017916
C19   C     C_R   0.430952 0.443385 0.075725 0.029751
C20   C     C_R   0.562741 0.563234 0.065156 0.217788
C21   C     C_R   0.564915 0.554612 0.923275 -0.071046
C22   C     C_R   0.661758 0.501934 0.499219 0.873436
C23   C     C_3   0.973924 0.587866 0.600247 0.320210
C24   C     C_3   0.967394 0.401189 0.514934 0.083520
C25   C     C_3   0.026575 0.450865 0.396984 -0.265254
C26   C     C_1   0.249353 0.507061 0.501843 -0.153121
C27   C     C_1   0.750645 0.509265 0.497871 -0.138975
C28   C     C_3   0.024841 0.468728 0.616396 0.350700
C29   C     C_3   0.336332 0.774376 0.685583 -0.412326
C30   C     C_3   0.247257 0.818497 0.713126 -0.704137
C31   C     C_3   0.628568 0.652570 0.125320 -0.419810
C32   C     C_3   0.628101 0.786390 0.061692 -0.853873
C33   C     C_3   0.193274 0.370699 0.151875 -0.383320
C34   C     C_3   0.916863 0.520108 0.499274 -0.098309
C35   C     C_3   0.153278 0.240010 0.123033 -0.673618
C36   C     C_3   0.927163 0.266717 0.531614 -0.385468
C37   C     C_3   0.994081 0.168379 0.528340 -0.678986
C38   C     C_3   0.941717 0.630068 0.252869 -0.360206
C39   C     C_3   0.010933 0.650811 0.144604 -0.715890
C40   C     C_3   0.033432 0.638647 0.483762 0.329066
C41   C     C_3   0.975413 0.570813 0.382603 0.076708
C42   C     C_1   0.174367 0.513731 0.501245 0.075352
C43   C     C_1   0.825920 0.515732 0.498422 0.035613
C44   C     C_R   0.503449 0.095818 0.760157 -0.122138
Cl1   Cl    Cl    0.356957 0.262635 0.257792 -0.512520
Cl2   Cl    Cl    0.350253 0.277190 0.761201 -0.555163
Cl3   Cl    Cl    0.078685 0.796213 0.463367 -0.611804
Cl4   Cl    Cl    0.937276 0.678021 0.733792 -0.547290
Cl5   Cl    Cl    0.057071 0.403453 0.773642 -0.634390
Cl6   Cl    Cl    0.611126 0.148609 0.267433 -0.548823
Cl7   Cl    Cl    0.467703 0.082931 0.029093 -0.525020
H1    H     H_    0.047634 0.394258 0.313562 0.175737
H2    H     H_    0.337728 0.748715 0.579252 0.200866
H3    H     H_    0.346257 0.689410 0.750893 0.224188
H4    H     H_    0.652849 0.790018 0.956894 0.264171
H5    H     H_    0.562533 0.820003 0.062820 0.281362
H6    H     H_    0.669720 0.851613 0.119551 0.279467
H7    H     H_    0.615804 0.662826 0.232142 0.268033
H8    H     H_    0.692832 0.615940 0.113261 0.216390
H9    H     H_    0.136516 0.234539 0.015712 0.279807
H10   H     H_    0.197659 0.165551 0.149014 0.297518
H11   H     H_    0.094113 0.221086 0.184083 0.222700
H12   H     H_    0.372684 0.874484 0.923715 0.172206
H13   H     H_    0.202066 0.376374 0.261604 0.226758
H14   H     H_    0.149031 0.443713 0.121307 0.208280
H15   H     H_    0.029041 0.175283 0.430670 0.246542
H16   H     H_    0.040122 0.181757 0.610482 0.294591
H17   H     H_    0.962411 0.072377 0.541323 0.271816
H18   H     H_    0.891297 0.256309 0.628454 0.237470
H19   H     H_    0.881748 0.250344 0.449039 0.218337
H20   H     H_    0.067793 0.703447 0.183351 0.277066
H21   H     H_    0.029238 0.558613 0.108864 0.256239
H22   H     H_    0.986224 0.705958 0.058073 0.284073
H23   H     H_    0.555517 0.894458 0.303020 0.194922
H24   H     H_    0.889406 0.567125 0.214916 0.215507
H25   H     H_    0.915439 0.721909 0.275068 0.232349
H26   H     H_    0.218955 0.390811 0.886197 0.252104
H27   H     H_    0.617410 0.599411 0.864606 0.164712
H28   H     H_    0.542728 0.178896 0.782735 0.196520
H29   H     H_    0.236266 0.904680 0.650224 0.298372
H30   H     H_    0.238488 0.838717 0.820468 0.248785
H31   H     H_    0.199062 0.742851 0.688410 0.278676
N1    N     N_R   0.499210 0.498800 0.142780 -0.115970
N2    N     N_R   0.499180 0.498720 0.857170 -0.131140
O1    O     O_R   0.500000 0.316780 0.614690 -0.592923
O2    O     O_R   0.499990 0.316750 0.385360 -0.499827
O3    O     O_R   0.376780 0.500000 0.614650 -0.606271
O4    O     O_R   0.376770 0.499980 0.385310 -0.615386
O5    O     O_R   0.500010 0.683250 0.614640 -0.625124
O6    O     O_R   0.500000 0.683220 0.385310 -0.641296
O7    O     O_R   0.623230 0.500020 0.614690 -0.616480
O8    O     O_R   0.623220 0.500000 0.385350 -0.633147
Zn1   Zn    Zn3+2 0.500010 0.500020 0.653130 0.979628
Zn2   Zn    Zn3+2 0.499990 0.499980 0.346870 1.014125

loop_
_geom_bond_atom_site_label_1
_geom_bond_atom_site_label_2
_ccdc_geom_bond_type
C30   H31   S    
C40   Cl3   S    
C16   O6    A    
C1    C8    S    
C14   C33   S    
C33   H14   S    
C7    C8    A    
C4    O3    A    
C38   H25   S    
C24   C36   S    
C12   C28   S    
C5    C6    A    
C31   H7    S    
C36   C37   S    
C38   C39   S    
C29   H3    S    
C23   C40   S    
C37   H17   S    
O3    Zn1   S    
C18   C19   A    
C28   Cl5   S    
C31   H8    S    
C12   C42   S    
O2    Zn2   S    
O1    Zn1   S    
C2    C44   A    
C8    C9    A    
C21   H27   S    
C18   N2    A    
C39   H21   S    
C9    C10   A    
C32   H4    S    
C30   H29   S    
C16   O5    A    
C13   C14   A    
C34   C41   S    
C32   H6    S    
C19   N1    A    
C36   H19   S    
O6    Zn2   S    
C5    C29   S    
C38   H24   S    
C1    O1    A    
O4    Zn2   S    
C13   C19   A    
C17   Cl2   S    
C38   C41   S    
C10   C11   A    
C25   C41   S    
C6    C11   A    
C7    C44   A    
N1    Zn2   S    
C24   C34   S    
C35   H9    S    
C12   C40   S    
C29   C30   S    
O7    Zn1   S    
C11   C16   S    
C31   C32   S    
C21   N2    A    
C22   O7    A    
C23   C34   S    
C37   H15   S    
O8    Zn2   S    
C17   C18   A    
C35   H10   S    
C23   C28   S    
C24   C25   S    
C40   C41   S    
C22   C27   S    
C36   H18   S    
C26   C42   T    
C1    O2    A    
C15   C17   A    
C39   H20   S    
C23   Cl4   S    
C44   H28   S    
C9    Cl6   S    
C24   C28   S    
C3    C5    A    
C4    C26   S    
C6    C7    A    
C4    O4    A    
C3    H12   S    
C12   C25   S    
C30   H30   S    
C2    C3    A    
C25   H1    S    
C13   Cl1   S    
C10   H23   S    
C15   H26   S    
C29   H2    S    
C33   H13   S    
C37   H16   S    
C33   C35   S    
C35   H11   S    
N2    Zn1   S    
C39   H22   S    
O5    Zn1   S    
C2    Cl7   S    
C27   C43   T    
C20   C21   A    
C20   N1    A    
C22   O8    A    
C14   C15   A    
C34   C43   S    
C32   H5    S    
C20   C31   S    
