data_mof_unit_2336.cif
_audit_creation_date              2012-12-10T17:28:37-0500
_audit_creation_method            fapswitch 2.2
_symmetry_space_group_name_H-M    P1
_symmetry_Int_Tables_number       1
_space_group_crystal_system       triclinic
_cell_length_a                    10.62428
_cell_length_b                    11.926555
_cell_length_c                    12.896673
_cell_angle_alpha                 92.997585
_cell_angle_beta                  89.855573
_cell_angle_gamma                 87.154587
_cell_volume                      1629.88173202

loop_
_atom_site_label
_atom_site_type_symbol
_atom_type_description
_atom_site_fract_x
_atom_site_fract_y
_atom_site_fract_z
_atom_type_partial_charge
C1    C     C_R   0.498840 0.521845 0.700548 0.884952
C2    C     C_R   0.480290 0.561183 0.132148 -0.280280
C3    C     C_R   0.513748 0.446997 0.974437 0.186908
C4    C     C_R   0.486256 0.553003 0.025563 0.186907
C5    C     C_R   0.365314 0.955553 0.419693 -0.349916
C6    C     C_R   0.634686 0.044447 0.580306 -0.349914
C7    C     C_R   0.380529 0.838760 0.425251 0.019015
C8    C     C_R   0.619471 0.161239 0.574748 0.019018
C9    C     C_R   0.560928 0.857515 0.531864 -0.074045
C10   C     C_R   0.439072 0.142485 0.468135 -0.074057
C11   C     C_R   0.549697 0.975272 0.528403 0.097269
C12   C     C_R   0.501160 0.478154 0.299452 0.884926
C13   C     C_R   0.450303 0.024728 0.471597 0.097273
C14   C     C_R   0.739812 0.499354 0.484660 0.895776
C15   C     C_R   0.260182 0.500644 0.515325 0.895764
C16   C     C_R   0.899584 0.293856 0.432229 -0.126316
C17   C     C_R   0.100391 0.706139 0.567728 -0.126317
C18   C     C_R   0.961014 0.191735 0.453657 -0.158583
C19   C     C_R   0.038959 0.808260 0.546295 -0.158602
C20   C     C_R   0.069098 0.190873 0.514129 -0.177563
C21   C     C_R   0.930885 0.809117 0.485810 -0.177549
C22   C     C_R   0.120701 0.292111 0.546305 -0.131429
C23   C     C_R   0.502637 0.465266 0.188263 -0.052719
C24   C     C_R   0.879290 0.707875 0.453631 -0.131403
C25   C     C_R   0.065034 0.396359 0.517297 0.090811
C26   C     C_R   0.934958 0.603632 0.482648 0.090810
C27   C     C_R   0.946091 0.397036 0.471322 0.084087
C28   C     C_R   0.053896 0.602957 0.528628 0.084078
C29   C     C_R   0.124405 0.499668 0.532018 -0.263324
C30   C     C_R   0.875584 0.500325 0.467939 -0.263338
C31   C     C_R   0.497365 0.534734 0.811737 -0.052727
C32   C     C_R   0.465590 0.649297 0.969460 -0.221966
C33   C     C_R   0.534415 0.350703 0.030540 -0.221965
C34   C     C_R   0.471174 0.640174 0.862159 -0.208864
C35   C     C_R   0.528829 0.359826 0.137841 -0.208866
C36   C     C_R   0.519714 0.438818 0.867852 -0.280278
H1    H     H_    0.885879 0.888206 0.465050 0.133955
H2    H     H_    0.453708 0.714788 0.818905 0.161451
H3    H     H_    0.444689 0.730894 0.008369 0.138601
H4    H     H_    0.555315 0.269106 0.991631 0.138601
H5    H     H_    0.364271 0.182294 0.424107 0.139447
H6    H     H_    0.635729 0.817706 0.575893 0.139451
H7    H     H_    0.287846 0.991296 0.375695 0.148858
H8    H     H_    0.712155 0.008704 0.624304 0.148859
H9    H     H_    0.458919 0.642762 0.171146 0.160514
H10   H     H_    0.541085 0.357238 0.828854 0.160513
H11   H     H_    0.685359 0.214921 0.614123 0.145179
H12   H     H_    0.114103 0.111782 0.534886 0.133954
H13   H     H_    0.314641 0.785079 0.385876 0.145180
H14   H     H_    0.815609 0.291704 0.384913 0.146983
H15   H     H_    0.184353 0.708296 0.615060 0.146985
H16   H     H_    0.922889 0.113338 0.425617 0.132684
H17   H     H_    0.077075 0.886659 0.574341 0.132686
H18   H     H_    0.202574 0.287823 0.595859 0.157094
H19   H     H_    0.797420 0.712154 0.404072 0.157072
H20   H     H_    0.546295 0.285212 0.181095 0.161450
N1    N     N_R   0.523130 0.207800 0.519340 -0.105201
N2    N     N_R   0.476870 0.792200 0.480660 -0.105201
O1    O     O_R   0.506170 0.421700 0.658830 -0.628715
O2    O     O_R   0.493830 0.578300 0.341170 -0.628723
O3    O     O_R   0.491330 0.609310 0.646410 -0.629176
O4    O     O_R   0.508670 0.390690 0.353590 -0.629185
O5    O     O_R   0.690650 0.406190 0.506220 -0.622080
O6    O     O_R   0.309350 0.593810 0.493780 -0.622079
O7    O     O_R   0.675800 0.593810 0.493800 -0.623857
O8    O     O_R   0.324200 0.406190 0.506200 -0.623867
Zn1   Zn    Zn3+2 0.509910 0.374730 0.508290 0.930495
Zn2   Zn    Zn3+2 0.490090 0.625270 0.491710 0.930499

loop_
_geom_bond_atom_site_label_1
_geom_bond_atom_site_label_2
_ccdc_geom_bond_type
C18   C20   A    
C2    C4    A    
C15   O6    A    
C36   H10   S    
C19   C21   A    
C15   C29   S    
C8    N1    A    
C25   C27   A    
C11   C13   A    
C7    N2    A    
C5    C13   A    
C12   C23   S    
C20   C22   A    
O7    Zn2   S    
O1    Zn1   S    
C19   H17   S    
C16   C27   A    
O8    Zn1   S    
C5    H7    S    
C8    H11   S    
C18   H16   S    
C22   H18   S    
C6    H8    S    
C27   C30   A    
C9    C11   A    
O3    Zn2   S    
C7    H13   S    
C9    H6    S    
C4    C32   A    
C3    C36   A    
N1    Zn1   S    
C10   H5    S    
C14   O5    A    
O6    Zn2   S    
N2    Zn2   S    
C28   C29   A    
C17   C19   A    
C14   O7    A    
C16   H14   S    
C26   C30   A    
C23   C35   A    
C1    O1    A    
C2    H9    S    
C25   C29   A    
O5    Zn1   S    
C21   C24   A    
C31   C34   A    
C33   H4    S    
O4    Zn1   S    
C3    C33   A    
C6    C11   A    
C1    O3    A    
C3    C4    A    
C12   O2    A    
C1    C31   S    
C10   N1    A    
C12   O4    A    
O2    Zn2   S    
C21   H1    S    
C16   C18   A    
C9    N2    A    
C32   H3    S    
C2    C23   A    
C5    C7    A    
C31   C36   A    
C6    C8    A    
C17   H15   S    
C20   H12   S    
C33   C35   A    
C35   H20   S    
C34   H2    S    
C15   O8    A    
C26   C28   A    
C10   C13   A    
C14   C30   S    
C17   C28   A    
C24   C26   A    
C24   H19   S    
C22   C25   A    
C32   C34   A    
