data_mof_unit_805.cif
_audit_creation_date              2012-12-11T15:42:54-0500
_audit_creation_method            fapswitch 2.2
_symmetry_space_group_name_H-M    P1
_symmetry_Int_Tables_number       1
_space_group_crystal_system       triclinic
_cell_length_a                    19.014224
_cell_length_b                    10.981232
_cell_length_c                    18.747153
_cell_angle_alpha                 89.960337
_cell_angle_beta                  90.107537
_cell_angle_gamma                 90.210914
_cell_volume                      3914.36380669

loop_
_atom_site_label
_atom_site_type_symbol
_atom_type_description
_atom_site_fract_x
_atom_site_fract_y
_atom_site_fract_z
_atom_type_partial_charge
C1    C     C_R   0.730549 0.377894 0.146130 0.547677
C2    C     C_R   0.269348 0.380179 0.852323 0.542250
C3    C     C_R   0.230760 0.879121 0.146391 0.542103
C4    C     C_R   0.769928 0.878751 0.853228 0.541133
C5    C     C_R   0.531797 0.377512 0.932811 0.035548
C6    C     C_R   0.484180 0.397989 0.075866 0.041103
C7    C     C_R   0.037561 0.871350 0.931261 0.034707
C8    C     C_R   0.992603 0.901714 0.074685 0.043039
C9    C     C_R   0.040215 0.985366 0.964649 -0.125270
C10   C     C_R   0.015578 0.000940 0.033657 -0.144961
C11   C     C_R   0.529882 0.490524 0.967541 -0.125918
C12   C     C_R   0.503593 0.501107 0.036301 -0.143109
C13   C     C_R   0.756131 0.920628 0.924509 0.017872
C14   C     C_R   0.257552 0.940652 0.082289 0.014142
C15   C     C_R   0.252745 0.429827 0.921168 0.022848
C16   C     C_R   0.757391 0.435219 0.081296 0.015004
C17   C     C_R   0.690162 0.925429 0.956461 -0.007185
C18   C     C_R   0.311963 0.891047 0.041673 0.001818
C19   C     C_R   0.185171 0.443018 0.949260 -0.007826
C20   C     C_R   0.807520 0.377414 0.038848 0.000735
C21   C     C_R   0.685312 0.929689 0.029733 0.038383
C22   C     C_R   0.319643 0.920933 0.970162 0.015813
C23   C     C_R   0.177285 0.460205 0.022079 0.016650
C24   C     C_R   0.815323 0.408262 0.967815 0.010213
C25   C     C_R   0.810190 0.949677 0.039856 -0.184131
C26   C     C_R   0.228903 0.070169 0.981077 -0.156629
C27   C     C_R   0.302591 0.476826 0.035795 -0.184287
C28   C     C_R   0.734061 0.572363 0.982314 -0.157265
C29   C     C_R   0.815786 0.944484 0.967133 -0.150668
C30   C     C_R   0.220604 0.039810 0.053124 -0.143931
C31   C     C_R   0.310984 0.457377 0.964661 -0.152575
C32   C     C_R   0.725542 0.540894 0.054225 -0.146486
C33   C     C_3   0.623045 0.856786 0.947946 -0.289396
C34   C     C_3   0.328767 0.761238 0.028055 -0.267883
C35   C     C_3   0.120760 0.366462 0.943263 -0.286341
C36   C     C_3   0.819441 0.245730 0.024175 -0.259511
C37   C     C_3   0.620104 0.853316 0.029370 -0.268872
C38   C     C_3   0.338574 0.793702 0.950177 -0.264448
C39   C     C_3   0.116865 0.372677 0.024243 -0.263175
C40   C     C_3   0.829546 0.279811 0.946327 -0.267294
C41   C     C_R   0.745575 0.932966 0.073247 0.010176
C42   C     C_R   0.273597 0.002490 0.937049 0.010744
C43   C     C_R   0.236067 0.472278 0.066730 0.012364
C44   C     C_R   0.773311 0.498194 0.936575 0.012132
C45   C     C_R   0.529774 0.156043 0.147925 0.543304
C46   C     C_R   0.466191 0.155104 0.855456 0.528607
C47   C     C_R   0.029645 0.656413 0.148024 0.537203
C48   C     C_R   0.965392 0.654849 0.855904 0.526574
C49   C     C_R   0.505641 0.162954 0.579592 0.014692
C50   C     C_R   0.520441 0.163846 0.431046 0.017118
C51   C     C_R   0.005640 0.662955 0.579591 0.014543
C52   C     C_R   0.020433 0.663847 0.431043 0.017082
C53   C     C_R   0.516923 0.054514 0.542042 0.030412
C54   C     C_R   0.523699 0.055746 0.469528 0.043347
C55   C     C_R   0.016921 0.554516 0.542040 0.030403
C56   C     C_R   0.023693 0.555748 0.469525 0.043568
C57   C     C_R   0.522827 0.274495 0.469080 -0.159775
C58   C     C_R   0.516134 0.273981 0.543670 -0.166677
C59   C     C_R   0.022819 0.774496 0.469076 -0.159773
C60   C     C_R   0.016133 0.773982 0.543667 -0.166716
C61   C     C_3   0.475428 0.937921 0.539202 -0.269261
C62   C     C_3   0.483493 0.940398 0.459132 -0.280736
C63   C     C_3   0.975427 0.437921 0.539202 -0.269278
C64   C     C_3   0.983489 0.440398 0.459131 -0.280787
C65   C     C_R   0.749150 0.933868 0.580816 0.015360
C66   C     C_R   0.237759 0.892259 0.430256 0.016254
C67   C     C_R   0.249143 0.433881 0.580821 0.015609
C68   C     C_R   0.737760 0.392257 0.430257 0.016497
C69   C     C_R   0.798308 0.004872 0.543510 0.029796
C70   C     C_R   0.181480 0.941172 0.467766 0.043734
C71   C     C_R   0.298294 0.504903 0.543520 0.030036
C72   C     C_R   0.681484 0.441182 0.467766 0.043813
C73   C     C_R   0.795344 0.012851 0.470791 0.042600
C74   C     C_R   0.182897 0.950525 0.540425 0.028243
C75   C     C_R   0.295332 0.512884 0.470800 0.041922
C76   C     C_R   0.682900 0.450534 0.540424 0.028231
C77   C     C_R   0.686493 0.900998 0.469764 -0.159693
C78   C     C_R   0.292412 0.840678 0.543647 -0.165827
C79   C     C_R   0.186490 0.401004 0.469767 -0.159866
C80   C     C_R   0.792409 0.340671 0.543648 -0.165871
C81   C     C_R   0.688881 0.893219 0.544366 -0.166763
C82   C     C_R   0.290803 0.832147 0.469049 -0.161027
C83   C     C_R   0.188877 0.393223 0.544369 -0.166546
C84   C     C_R   0.790800 0.332135 0.469051 -0.160930
C85   C     C_3   0.877284 0.001185 0.541860 -0.268832
C86   C     C_3   0.144966 0.059682 0.457378 -0.280604
C87   C     C_3   0.377271 0.501248 0.541875 -0.268834
C88   C     C_3   0.644976 0.559698 0.457377 -0.280703
C89   C     C_R   0.740289 0.971122 0.146701 0.536923
C90   C     C_R   0.273309 0.021616 0.859541 0.566340
C91   C     C_R   0.229251 0.512461 0.139648 0.558118
C92   C     C_R   0.773219 0.520802 0.859606 0.563474
C93   C     C_3   0.873108 0.010242 0.461626 -0.282749
C94   C     C_3   0.146366 0.071446 0.537602 -0.270575
C95   C     C_3   0.373098 0.510299 0.461641 -0.282640
C96   C     C_3   0.646375 0.571461 0.537601 -0.270496
C97   C     C_R   0.743566 0.952178 0.432178 0.017228
C98   C     C_R   0.241934 0.911879 0.578868 0.014748
C99   C     C_R   0.243561 0.452197 0.432183 0.015781
C100  C     C_R   0.741935 0.411880 0.578868 0.014734
C101  C     C_R   0.727909 0.373331 0.354568 0.544669
C102  C     C_R   0.269713 0.380880 0.648550 0.546548
C103  C     C_R   0.227909 0.873332 0.354568 0.547273
C104  C     C_R   0.769715 0.880876 0.648548 0.547034
C105  C     C_R   0.535637 0.156865 0.355520 0.540454
C106  C     C_R   0.468989 0.156900 0.647381 0.544175
C107  C     C_R   0.035634 0.656865 0.355519 0.538775
C108  C     C_R   0.968991 0.656900 0.647381 0.543895
C109  C     C_R   0.739964 0.976415 0.356468 0.540911
C110  C     C_R   0.257451 0.969305 0.646679 0.550646
C111  C     C_R   0.239963 0.476421 0.356470 0.546624
C112  C     C_R   0.757451 0.469305 0.646679 0.550425
C113  C     C_R   0.487023 0.162285 0.931594 -0.003124
C114  C     C_R   0.489474 0.169405 0.081209 0.000712
C115  C     C_R   0.985243 0.661918 0.932338 -0.002193
C116  C     C_R   0.988665 0.672225 0.081888 0.001226
C117  C     C_R   0.502085 0.274104 0.967424 0.026715
C118  C     C_R   0.490391 0.280838 0.042681 0.041148
C119  C     C_R   0.004307 0.772692 0.967177 0.024258
C120  C     C_R   0.993185 0.782820 0.042481 0.040040
C121  C     C_R   0.472024 0.062240 0.045896 -0.166031
C122  C     C_R   0.471306 0.058694 0.972528 -0.162998
C123  C     C_R   0.966629 0.566577 0.047608 -0.170539
C124  C     C_R   0.965298 0.561462 0.974117 -0.164140
Cr1   Cr    Cr6+3 0.772010 0.169670 0.250090 0.993690
Cr2   Cr    Cr6+3 0.227990 0.169670 0.749910 0.985583
Cr3   Cr    Cr6+3 0.272010 0.669670 0.250090 0.986795
Cr4   Cr    Cr6+3 0.727990 0.669670 0.749910 0.985649
Cr5   Cr    Cr6+3 0.615000 0.323260 0.249260 0.991905
Cr6   Cr    Cr6+3 0.385000 0.323260 0.750740 0.992463
Cr7   Cr    Cr6+3 0.115000 0.823260 0.249260 0.983825
Cr8   Cr    Cr6+3 0.885000 0.823260 0.750740 0.993765
Cr9   Cr    Cr6+3 0.616710 0.010760 0.250840 1.003313
Cr10  Cr    Cr6+3 0.383290 0.010760 0.749160 0.998863
Cr11  Cr    Cr6+3 0.116710 0.510760 0.250840 1.001359
Cr12  Cr    Cr6+3 0.883290 0.510760 0.749160 0.998524
H1    H     H_    0.464267 0.978010 0.075023 0.131260
H2    H     H_    0.458772 0.972475 0.947810 0.142579
H3    H     H_    0.956688 0.483805 0.077517 0.131899
H4    H     H_    0.949766 0.476183 0.949904 0.145208
H5    H     H_    0.527397 0.360493 0.441333 0.130481
H6    H     H_    0.513545 0.359629 0.572019 0.119895
H7    H     H_    0.027387 0.860493 0.441327 0.130613
H8    H     H_    0.013547 0.859629 0.572016 0.119991
H9    H     H_    0.920103 0.450531 0.555869 0.168297
H10   H     H_    0.016573 0.365204 0.438450 0.133594
H11   H     H_    0.420103 0.950537 0.555867 0.168302
H12   H     H_    0.516576 0.865202 0.438453 0.133451
H13   H     H_    0.503458 0.860815 0.564975 0.126402
H14   H     H_    0.433039 0.954484 0.430219 0.135393
H15   H     H_    0.003461 0.360817 0.564973 0.126456
H16   H     H_    0.933033 0.454481 0.430221 0.135142
H17   H     H_    0.641682 0.863509 0.441675 0.131711
H18   H     H_    0.336051 0.801290 0.572623 0.122355
H19   H     H_    0.141683 0.363505 0.441677 0.131716
H20   H     H_    0.836047 0.301278 0.572626 0.122409
H21   H     H_    0.647103 0.846188 0.572357 0.121621
H22   H     H_    0.331881 0.782748 0.441909 0.131761
H23   H     H_    0.147102 0.346181 0.572359 0.121609
H24   H     H_    0.831875 0.282724 0.441912 0.131781
H25   H     H_    0.898237 0.912250 0.559603 0.169400
H26   H     H_    0.091040 0.048776 0.435373 0.133097
H27   H     H_    0.398240 0.412324 0.559619 0.169471
H28   H     H_    0.591050 0.548800 0.435372 0.132986
H29   H     H_    0.901649 0.082524 0.567274 0.125655
H30   H     H_    0.178355 0.128245 0.429663 0.135568
H31   H     H_    0.401623 0.582599 0.567289 0.125542
H32   H     H_    0.678370 0.628256 0.429664 0.134969
H33   H     H_    0.894646 0.097124 0.440450 0.132681
H34   H     H_    0.180752 0.147029 0.555598 0.168582
H35   H     H_    0.394630 0.597184 0.440465 0.132673
H36   H     H_    0.680765 0.647038 0.555599 0.168533
H37   H     H_    0.891425 0.926823 0.433755 0.133017
H38   H     H_    0.093209 0.068317 0.562161 0.125827
H39   H     H_    0.391425 0.426883 0.433776 0.133645
H40   H     H_    0.593218 0.568340 0.562160 0.125746
H41   H     H_    0.063641 0.062985 0.937936 0.104468
H42   H     H_    0.017322 0.091600 0.056439 0.094096
H43   H     H_    0.550488 0.571552 0.941931 0.102488
H44   H     H_    0.501164 0.590991 0.059978 0.093186
H45   H     H_    0.856434 0.972805 0.069234 0.150605
H46   H     H_    0.196625 0.139816 0.958646 0.124671
H47   H     H_    0.348946 0.499212 0.065654 0.153842
H48   H     H_    0.707001 0.649850 0.961522 0.129299
H49   H     H_    0.868487 0.951428 0.945539 0.163052
H50   H     H_    0.180285 0.085677 0.083565 0.133178
H51   H     H_    0.364737 0.456036 0.945525 0.164001
H52   H     H_    0.689561 0.592541 0.086837 0.128778
H53   H     H_    0.128886 0.275096 0.920567 0.137559
H54   H     H_    0.771212 0.190645 0.033593 0.160652
H55   H     H_    0.627783 0.767209 0.921582 0.138896
H56   H     H_    0.281509 0.704557 0.037472 0.152647
H57   H     H_    0.581792 0.915091 0.923911 0.141797
H58   H     H_    0.377961 0.731949 0.055101 0.128690
H59   H     H_    0.077654 0.417150 0.916559 0.144163
H60   H     H_    0.868182 0.211422 0.050002 0.134760
H61   H     H_    0.574747 0.901954 0.051980 0.159387
H62   H     H_    0.394033 0.785613 0.932303 0.132135
H63   H     H_    0.068316 0.414198 0.044390 0.155950
H64   H     H_    0.884545 0.267274 0.927798 0.135221
H65   H     H_    0.628490 0.761250 0.051925 0.118890
H66   H     H_    0.299398 0.749526 0.914476 0.146334
H67   H     H_    0.130924 0.285500 0.050697 0.127736
H68   H     H_    0.788744 0.240808 0.910510 0.143981
O1    O     O_R   0.787520 0.042810 0.170440 -0.540933
O2    O     O_R   0.212480 0.042810 0.829560 -0.544585
O3    O     O_R   0.287520 0.542810 0.170440 -0.548738
O4    O     O_R   0.712480 0.542810 0.829560 -0.543021
O5    O     O_R   0.556610 0.252880 0.323980 -0.515955
O6    O     O_R   0.443390 0.252880 0.676020 -0.512316
O7    O     O_R   0.056610 0.752880 0.323980 -0.516055
O8    O     O_R   0.943390 0.752880 0.676020 -0.511894
O9    O     O_R   0.545950 0.051210 0.330860 -0.519897
O10   O     O_R   0.454050 0.051210 0.669140 -0.520773
O11   O     O_R   0.045950 0.551210 0.330860 -0.519207
O12   O     O_R   0.954050 0.551210 0.669140 -0.520635
O13   O     O_R   0.681390 0.959480 0.325510 -0.508289
O14   O     O_R   0.318610 0.959480 0.674490 -0.505774
O15   O     O_R   0.181390 0.459480 0.325510 -0.503677
O16   O     O_R   0.818610 0.459480 0.674490 -0.505740
O17   O     O_3   0.667900 0.167900 0.250060 -0.241320
O18   O     O_3   0.332100 0.167900 0.749940 -0.257857
O19   O     O_3   0.167900 0.667900 0.250060 -0.255435
O20   O     O_3   0.832100 0.667900 0.749940 -0.258019
O21   O     O_R   0.765640 0.292100 0.175020 -0.499583
O22   O     O_R   0.234360 0.292100 0.824980 -0.519544
O23   O     O_R   0.265640 0.792100 0.175020 -0.511662
O24   O     O_R   0.734360 0.792100 0.824980 -0.518839
O25   O     O_R   0.670190 0.408840 0.168540 -0.521018
O26   O     O_R   0.329810 0.408840 0.831460 -0.528468
O27   O     O_R   0.170190 0.908840 0.168540 -0.522852
O28   O     O_R   0.829810 0.908840 0.831460 -0.527917
O29   O     O_R   0.556620 0.251410 0.175160 -0.500602
O30   O     O_R   0.443380 0.251410 0.824840 -0.507748
O31   O     O_R   0.056620 0.751410 0.175160 -0.502309
O32   O     O_R   0.943380 0.751410 0.824840 -0.507307
O33   O     O_R   0.545960 0.049620 0.170320 -0.528426
O34   O     O_R   0.454040 0.049620 0.829680 -0.532165
O35   O     O_R   0.045960 0.549620 0.170320 -0.531754
O36   O     O_R   0.954040 0.549620 0.829680 -0.532755
O37   O     O_R   0.681390 0.958010 0.176690 -0.495738
O38   O     O_R   0.318610 0.958010 0.823310 -0.502544
O39   O     O_R   0.181390 0.458010 0.176690 -0.495242
O40   O     O_R   0.818610 0.458010 0.823310 -0.502789
O41   O     O_R   0.787510 0.044390 0.330970 -0.526114
O42   O     O_R   0.212490 0.044390 0.669030 -0.522280
O43   O     O_R   0.287510 0.544390 0.330970 -0.522445
O44   O     O_R   0.712490 0.544390 0.669030 -0.522265
O45   O     O_R   0.765630 0.293570 0.323840 -0.507877
O46   O     O_R   0.234370 0.293570 0.676160 -0.508569
O47   O     O_R   0.265630 0.793570 0.323840 -0.506583
O48   O     O_R   0.734370 0.793570 0.676160 -0.508265
O49   O     O_R   0.670190 0.410420 0.329080 -0.521884
O50   O     O_R   0.329810 0.410420 0.670920 -0.522688
O51   O     O_R   0.170190 0.910420 0.329080 -0.520153
O52   O     O_R   0.829810 0.910420 0.670920 -0.522239
C125  C     C_3   0.578893 0.367522 0.867581 -0.261663
C126  C     C_3   0.641534 0.284394 0.882183 -0.423606
H69   H     H_    0.667975 0.311486 0.932598 0.167749
H70   H     H_    0.624378 0.188004 0.886654 0.141127
H71   H     H_    0.679669 0.291159 0.837575 0.161662
H72   H     H_    0.551951 0.337036 0.818810 0.165111
H73   H     H_    0.599070 0.458782 0.853202 0.170942
C127  C     C_3   0.453338 0.422378 0.150232 -0.254103
C128  C     C_3   0.395853 0.333257 0.175052 -0.405625
H74   H     H_    0.360365 0.307381 0.130496 0.161016
H75   H     H_    0.418201 0.250066 0.199090 0.139473
H76   H     H_    0.364390 0.376003 0.217969 0.175220
H77   H     H_    0.495253 0.430846 0.191038 0.170450
H78   H     H_    0.429401 0.514499 0.150712 0.123454
C129  C     C_3   0.084201 0.853637 0.866291 -0.263247
C130  C     C_3   0.146892 0.772579 0.884231 -0.425007
H79   H     H_    0.173731 0.805842 0.933151 0.167050
H80   H     H_    0.129319 0.677301 0.893103 0.146137
H81   H     H_    0.184854 0.773457 0.839300 0.157449
H82   H     H_    0.057305 0.816754 0.819068 0.162788
H83   H     H_    0.103894 0.942836 0.847769 0.175108
C131  C     C_3   0.965177 0.934350 0.149576 -0.247094
C132  C     C_3   0.910460 0.847880 0.183132 -0.414971
H84   H     H_    0.876495 0.804189 0.142314 0.143818
H85   H     H_    0.935151 0.776619 0.216326 0.154439
H86   H     H_    0.876860 0.899570 0.220596 0.163365
H87   H     H_    0.009702 0.949686 0.186883 0.172392
H88   H     H_    0.939810 0.025348 0.146792 0.112669

loop_
_geom_bond_atom_site_label_1
_geom_bond_atom_site_label_2
_ccdc_geom_bond_type
C47   C116  S    
C25   C41   A    
C87   H27   S    
C55   C56   A    
C88   C96   S    
C67   C83   A    
C127  H77   S    
C98   C110  S    
C116  C123  A    
C39   H67   S    
C8    C131  S    
Cr2   O42   S    
C103  O51   A    
C14   C18   A    
C35   C39   S    
C42   C90   S    
C86   H30   S    
C73   C93   S    
C72   C76   A    
Cr4   O20   S    
C7    C129  S    
C84   H24   S    
C75   C95   S    
C123  C124  A    
C74   C98   A    
C22   C42   A    
C53   C54   A    
C15   C19   A    
Cr8   O8    S    
C94   H34   S    
Cr11  O39   S    
C26   C42   A    
Cr4   O48   S    
C17   C33   S    
C64   H16   S    
C59   H7    S    
C36   H54   S    
C30   H50   S    
C13   C29   A    
C65   C104  S    
C45   O29   A    
Cr2   O46   S    
C5    C11   A    
Cr7   O19   S    
C6    C12   A    
C82   H22   S    
C65   C69   A    
C107  O7    A    
Cr11  O19   S    
Cr6   O26   S    
C11   H43   S    
Cr7   O27   S    
C129  C130  S    
C22   C38   S    
C123  H3    S    
C105  O5    A    
Cr6   O30   S    
C112  O44   A    
C125  C126  S    
C132  H86   S    
C121  H1    S    
C4    C13   S    
C19   C35   S    
Cr3   O3    S    
C85   H25   S    
Cr10  O38   S    
C95   H39   S    
C86   C94   S    
Cr9   O37   S    
C79   C99   A    
C114  C121  A    
C85   C93   S    
C45   C114  S    
C87   H31   S    
C113  C122  A    
C40   H68   S    
C52   C107  S    
Cr11  O35   S    
C127  C128  S    
Cr10  O18   S    
C87   C95   S    
C70   C74   A    
C50   C105  S    
Cr9   O17   S    
C132  H84   S    
C56   C64   S    
C77   C97   A    
C99   C111  S    
C86   H26   S    
C37   H61   S    
Cr1   O45   S    
C96   H40   S    
C128  H74   S    
Cr3   O47   S    
C44   C92   S    
C16   C20   A    
C58   H6    S    
C77   H17   S    
C34   H58   S    
C46   O34   A    
C72   C88   S    
C109  O41   A    
C59   C60   A    
C35   H53   S    
C131  H88   S    
C80   C100  A    
Cr3   O23   S    
Cr10  O34   S    
Cr8   O20   S    
Cr2   O22   S    
C55   C63   S    
Cr9   O33   S    
C14   C30   A    
C111  O15   A    
Cr1   O21   S    
Cr8   O28   S    
C75   C99   A    
C34   C38   S    
C108  O8    A    
Cr1   O1    S    
C25   H45   S    
C5    C125  S    
C80   H20   S    
C47   O31   A    
C18   C34   S    
C130  H80   S    
C25   C29   A    
C129  H82   S    
C106  O10   A    
Cr11  O11   S    
C71   C75   A    
C105  O9    A    
C32   H52   S    
C27   C31   A    
C125  H72   S    
C10   H42   S    
C20   C24   A    
C76   C100  A    
C28   C32   A    
Cr6   O18   S    
C81   H21   S    
C68   C101  S    
C122  H2    S    
Cr5   O17   S    
Cr3   O19   S    
C3    O27   A    
C80   C84   A    
Cr12  O40   S    
C78   H18   S    
C20   C36   S    
C54   C62   S    
C51   C55   A    
Cr7   O31   S    
C27   C43   A    
Cr10  O14   S    
C79   H19   S    
C15   C31   A    
C28   C44   A    
C43   C91   S    
C49   C58   A    
C116  C120  A    
Cr5   O29   S    
C68   C72   A    
C102  O50   A    
C68   C84   A    
C19   C23   A    
C17   C21   A    
C36   H60   S    
C78   C98   A    
C92   O4    A    
C52   C59   A    
C7    C119  A    
C66   C82   A    
C97   C109  S    
C78   C82   A    
C65   C81   A    
Cr12  O20   S    
C36   C40   S    
Cr4   O24   S    
Cr3   O43   S    
Cr11  O15   S    
C46   O30   A    
C38   H62   S    
C112  O16   A    
Cr1   O17   S    
C83   H23   S    
C1    C16   S    
C108  O12   A    
Cr5   O25   S    
C69   C73   A    
C2    C15   S    
C128  H75   S    
C63   H15   S    
C121  C122  A    
C114  C118  A    
Cr4   O44   S    
C38   H66   S    
C94   H38   S    
C48   C115  S    
C21   C41   A    
C26   H46   S    
C111  O43   A    
C103  O47   A    
C12   H44   S    
Cr5   O49   S    
C73   C97   A    
C115  C119  A    
C131  H87   S    
C90   O38   A    
C102  O46   A    
Cr7   O7    S    
C24   C44   A    
C89   O37   A    
Cr6   O6    S    
C126  H71   S    
C3    C14   S    
C130  H79   S    
C125  H73   S    
Cr5   O5    S    
C70   C86   S    
C3    O23   A    
C126  H70   S    
C9    H41   S    
C2    O22   A    
C4    O28   A    
C33   C37   S    
C9    C10   A    
C113  C117  A    
C1    O21   A    
C104  O48   A    
C7    C9    A    
C8    C120  A    
C39   H63   S    
C101  O49   A    
C93   H33   S    
C127  H78   S    
C115  C124  A    
C62   H14   S    
C46   C113  S    
C64   H10   S    
C41   C89   S    
C18   C22   A    
C50   C57   A    
C66   C103  S    
C69   C85   S    
C101  O45   A    
C124  H4    S    
C90   O2    A    
C91   O39   A    
C63   C64   S    
Cr6   O50   S    
C107  O11   A    
Cr10  O10   S    
C6    C127  S    
C119  C120  A    
Cr2   O18   S    
C100  C112  S    
C49   C106  S    
Cr12  O16   S    
C35   H59   S    
C16   C32   A    
C45   O33   A    
C40   H64   S    
C48   O36   A    
C51   C108  S    
C104  O52   A    
C57   H5    S    
C33   H55   S    
C85   H29   S    
Cr8   O52   S    
Cr12  O36   S    
C126  H69   S    
C61   H11   S    
Cr9   O9    S    
C50   C54   A    
C88   H28   S    
C117  C118  A    
C60   H8    S    
C132  H85   S    
C79   C83   A    
C92   O40   A    
C110  O42   A    
C57   C58   A    
C66   C70   A    
C61   H13   S    
C34   H56   S    
Cr2   O2    S    
C130  H81   S    
C23   C39   S    
C88   H32   S    
C93   H37   S    
C91   O3    A    
C48   O32   A    
C47   O35   A    
C29   H49   S    
Cr7   O51   S    
C67   C71   A    
C53   C61   S    
C4    O24   A    
C89   O1    A    
C28   H48   S    
C61   C62   S    
C110  O14   A    
C128  H76   S    
C27   H47   S    
C24   C40   S    
C49   C53   A    
C109  O13   A    
C2    O26   A    
C33   H57   S    
C13   C17   A    
Cr8   O32   S    
C1    O25   A    
C129  H83   S    
C21   C37   S    
C67   C102  S    
C8    C10   A    
C77   C81   A    
C96   H36   S    
C5    C117  A    
C74   C94   S    
C37   H65   S    
C131  C132  S    
C71   C87   S    
C62   H12   S    
C51   C60   A    
Cr4   O4    S    
Cr1   O41   S    
C31   H51   S    
C23   C43   A    
C95   H35   S    
C63   H9    S    
C76   C96   S    
C52   C56   A    
C11   C12   A    
C6    C118  A    
Cr9   O13   S    
Cr12  O12   S    
C26   C30   A    
C106  O6    A    
