data_mof_unit_2608.cif
_audit_creation_date              2012-12-11T15:13:48-0500
_audit_creation_method            fapswitch 2.2
_symmetry_space_group_name_H-M    P1
_symmetry_Int_Tables_number       1
_space_group_crystal_system       triclinic
_cell_length_a                    6.949227
_cell_length_b                    13.61397
_cell_length_c                    20.065449
_cell_angle_alpha                 104.071651
_cell_angle_beta                  90.742452
_cell_angle_gamma                 90.515816
_cell_volume                      1841.06006343

loop_
_atom_site_label
_atom_site_type_symbol
_atom_type_description
_atom_site_fract_x
_atom_site_fract_y
_atom_site_fract_z
_atom_type_partial_charge
O1    O     O_R   0.506780 0.600060 0.449950 -0.533038
O2    O     O_R   0.179840 0.597110 0.589410 -0.542968
O3    O     O_R   0.004570 0.399940 0.550050 -0.538402
C1    C     C_R   0.349374 0.618957 0.616910 0.675699
O4    O     O_R   0.177380 0.612160 0.452890 -0.547493
O5    O     O_R   0.002100 0.415100 0.412560 -0.540903
C2    C     C_R   0.346353 0.640536 0.437906 0.696218
O6    O     O_R   0.509250 0.584900 0.587440 -0.541135
O7    O     O_3   0.337570 0.435330 0.486930 -0.370479
V1    V     V_3+5 0.064650 0.512000 0.502430 1.405354
O8    O     O_R   0.672090 0.402890 0.410590 -0.544594
C3    C     C_R   0.838873 0.381031 0.382999 0.678116
O9    O     O_R   0.674540 0.387840 0.547110 -0.540858
C4    C     C_R   0.843542 0.361065 0.563466 0.697481
V2    V     V_3+5 0.564040 0.488000 0.497570 1.413445
O10   O     O_3   0.840990 0.564670 0.513070 -0.370307
C5    C     C_R   0.873106 0.108828 0.607171 -0.162348
H1    H     H_    0.867414 0.158584 0.513572 0.099618
H2    H     H_    0.887338 0.983424 0.689518 0.117918
H3    H     H_    0.882315 0.029770 0.580133 0.111839
C6    C     C_R   0.852692 0.283987 0.602805 -0.029452
C7    C     C_R   0.848307 0.317414 0.933261 -0.168691
C8    C     C_R   0.840011 0.393692 0.898308 -0.122116
C9    C     C_R   0.842875 0.370168 0.826750 -0.161904
C10   C     C_R   0.854303 0.268403 0.787938 0.078165
C11   C     C_R   0.862978 0.190497 0.824220 0.069937
C12   C     C_R   0.857541 0.241358 0.714510 0.072775
C13   C     C_R   0.869622 0.137445 0.679274 0.145846
C14   C     C_R   0.878111 0.062724 0.716061 -0.216604
C15   C     C_R   0.874782 0.088608 0.787314 -0.203984
C16   C     C_R   0.849146 0.313717 0.674547 -0.217584
C17   C     C_R   0.864689 0.181768 0.569174 -0.176561
C18   C     C_R   0.859758 0.216208 0.896989 -0.070758
H4    H     H_    0.839700 0.393791 0.697249 0.090429
H5    H     H_    0.846018 0.337338 0.988936 0.093310
H6    H     H_    0.836062 0.433625 0.803640 0.102112
H7    H     H_    0.831357 0.471937 0.926922 0.114271
H8    H     H_    0.881607 0.027638 0.813261 0.117161
C19   C     C_3   0.702068 0.185293 0.237825 -0.124044
C20   C     C_3   0.849854 0.192862 0.297788 -0.196266
H9    H     H_    0.843753 0.147587 0.336875 0.109329
H10   H     H_    0.568757 0.138384 0.228325 0.151536
C21   C     C_3   0.843464 0.309540 0.312676 -0.071754
C22   C     C_3   0.700982 0.300997 0.252750 0.334149
C23   C     C_3   0.864586 0.302801 0.202696 -0.175431
C24   C     C_3   0.010360 0.309797 0.262906 -0.169539
C25   C     C_3   0.017460 0.192355 0.247128 -0.107748
C26   C     C_3   0.869009 0.186429 0.188061 -0.034058
H11   H     H_    0.872457 0.348509 0.163895 0.090529
H12   H     H_    0.127674 0.366334 0.276685 0.123048
H13   H     H_    0.150426 0.146950 0.244021 0.108889
C27   C     C_3   0.538707 0.725830 0.731741 -0.124042
C28   C     C_3   0.457883 0.834691 0.749997 -0.137054
H14   H     H_    0.541255 0.904839 0.750511 0.109561
H15   H     H_    0.688995 0.705461 0.716566 0.106892
C29   C     C_3   0.355460 0.811582 0.812229 -0.002867
C30   C     C_3   0.436447 0.703557 0.794768 -0.142311
C31   C     C_3   0.254936 0.666151 0.749796 -0.136220
C32   C     C_3   0.174130 0.775012 0.768037 -0.120347
C33   C     C_3   0.276385 0.797253 0.704992 -0.137416
C34   C     C_3   0.357388 0.689185 0.687553 -0.005378
H16   H     H_    0.501833 0.665174 0.832274 0.098957
H17   H     H_    0.171534 0.596020 0.749308 0.099517
H18   H     H_    0.023895 0.795556 0.783206 0.105021
H19   H     H_    0.210936 0.835691 0.667523 0.098858
C35   C     C_R   0.393934 0.891761 0.393592 -0.143083
H20   H     H_    0.355288 0.843151 0.486653 0.113005
H21   H     H_    0.516757 0.004999 0.311114 0.134077
H22   H     H_    0.416698 0.970219 0.420743 0.120955
C36   C     C_R   0.354582 0.716637 0.397584 -0.080266
C37   C     C_R   0.272377 0.691843 0.070930 -0.179531
C38   C     C_R   0.219901 0.621648 0.107580 -0.143736
C39   C     C_R   0.247430 0.643822 0.178483 -0.108305
C40   C     C_R   0.337162 0.735498 0.214101 0.038953
C41   C     C_R   0.392309 0.807106 0.176661 -0.044891
C42   C     C_R   0.363659 0.760370 0.286769 0.030681
C43   C     C_R   0.400957 0.862305 0.321659 0.032151
C44   C     C_R   0.462818 0.930651 0.284474 -0.285839
C45   C     C_R   0.480187 0.899025 0.213114 0.385230
C46   C     C_R   0.367652 0.686459 0.325523 0.206209
C47   C     C_R   0.361446 0.819518 0.431123 -0.221283
C48   C     C_R   0.355720 0.785006 0.104577 -0.085371
H23   H     H_    0.240655 0.675144 0.016266 0.102678
H24   H     H_    0.189435 0.590338 0.205114 0.133111
H25   H     H_    0.150276 0.551174 0.081233 0.114420
O11   O     O_R   0.203580 0.914920 0.912610 -0.543163
O12   O     O_R   0.535710 0.887810 0.047120 -0.518363
O13   O     O_R   0.710730 0.084950 0.087430 -0.518686
C49   C     C_R   0.367532 0.863232 0.065581 0.760780
O14   O     O_R   0.533010 0.902850 0.910600 -0.546073
O15   O     O_R   0.708010 0.100090 0.949930 -0.540845
C50   C     C_R   0.363504 0.881330 0.883004 0.671393
O16   O     O_R   0.206300 0.899780 0.050100 -0.555030
O17   O     O_3   0.375170 0.064580 0.013100 -0.369530
V3    V     V_3+5 0.648200 0.988020 0.997570 1.444450
O18   O     O_R   0.038030 0.112330 0.952840 -0.541124
C51   C     C_R   0.869001 0.138727 0.936296 0.682001
O19   O     O_R   0.040730 0.097300 0.089360 -0.553386
C52   C     C_R   0.873834 0.118610 0.116935 0.700049
V4    V     V_3+5 0.148780 0.012220 0.002360 1.407140
O20   O     O_3   0.871930 0.935430 0.986900 -0.375812
N1    N     N_2   0.525565 0.356525 0.253598 -0.535031
H26   H     H_    0.437939 0.349365 0.293116 0.248615
C53   C     C_3   0.427756 0.340834 0.187503 -0.556846
H27   H     H_    0.312275 0.397325 0.190405 0.200368
H28   H     H_    0.364041 0.263318 0.172221 0.200194
H29   H     H_    0.528190 0.351699 0.147269 0.195459
N2    N     N_2   0.426867 0.586460 0.293758 -0.536863
H30   H     H_    0.374083 0.529701 0.314489 0.254610
C54   C     C_3   0.628913 0.577579 0.275699 -0.439114
H31   H     H_    0.708257 0.540234 0.310957 0.187324
H32   H     H_    0.698878 0.652428 0.278773 0.171587
H33   H     H_    0.642161 0.531816 0.222150 0.209970
O21   O     O_3   0.603055 0.951809 0.180734 -0.560799
C55   C     C_3   0.790579 0.914171 0.185737 -0.195764
H34   H     H_    0.795653 0.830022 0.167832 0.127148
H35   H     H_    0.848160 0.939313 0.239248 0.123027
H36   H     H_    0.888056 0.944213 0.152155 0.151825

loop_
_geom_bond_atom_site_label_1
_geom_bond_atom_site_label_2
_ccdc_geom_bond_type
C20   C25   S    
C39   C40   A    
C1    O6    A    
C2    C36   S    
C53   H28   S    
C38   H25   S    
O14   V3    S    
C43   C44   A    
C29   C30   S    
C7    H5    S    
C6    C16   A    
C32   H18   S    
C9    H6    S    
C48   C49   S    
C40   C42   A    
C4    C6    S    
C13   C14   A    
H20   C47   S    
C3    C21   S    
C27   C34   S    
O5    C3    A    
C28   C29   S    
C35   H22   S    
C55   H34   S    
C5    H3    S    
N2    H30   S    
C15   H8    S    
C35   C43   A    
C36   C47   A    
C54   H31   S    
O8    V2    S    
C20   C21   S    
C55   H35   S    
O12   V3    S    
C8    C9    A    
O1    V2    S    
O17   V4    S    
O11   V4    S    
O7    V1    S    
C39   H24   S    
C27   H15   S    
C37   C48   A    
C31   C34   S    
O13   V3    S    
C32   C33   S    
O9    C4    A    
C49   O16   A    
O17   V3    S    
C53   H27   S    
C28   C33   S    
O21   C55   S    
C19   H10   S    
C37   H23   S    
H21   C44   S    
C6    C17   A    
C40   C41   A    
C12   C16   A    
C30   H16   S    
C9    C10   A    
C19   C20   S    
O4    C2    A    
C22   N1    S    
C44   C45   A    
C25   H13   S    
C10   C11   A    
C8    H7    S    
C36   C46   A    
C1    C34   S    
O15   C51   A    
C33   C34   S    
O2    C1    A    
C21   C22   S    
C14   C15   A    
C11   C18   A    
O14   C50   A    
C25   C26   S    
C54   H33   S    
C23   H11   S    
C55   H36   S    
O18   C51   A    
C16   H4    S    
C27   C28   S    
C42   C43   A    
N1    C53   S    
O16   V4    S    
O3    C4    A    
C20   H9    S    
C33   H19   S    
C11   C15   A    
O6    V2    S    
O19   V4    S    
O12   C49   A    
H1    C17   S    
O2    V1    S    
C22   C23   S    
C23   C26   S    
C31   H17   S    
C26   C52   S    
C7    C18   A    
C24   H12   S    
C24   C25   S    
O1    C2    A    
C5    C13   A    
C42   C46   A    
C38   C39   A    
O5    V1    S    
O8    C3    A    
C41   C48   A    
C28   H14   S    
C19   C22   S    
C10   C12   A    
C46   N2    S    
V3    O20   S    
C29   C32   S    
O9    V2    S    
C31   C32   S    
O4    V1    S    
O3    V1    S    
O11   C50   A    
C35   C47   A    
C30   C31   S    
O18   V4    S    
V4    O20   S    
N2    C54   S    
C18   C51   S    
O7    V2    S    
N1    H26   S    
C21   C24   S    
C54   H32   S    
O13   C52   A    
C27   C30   S    
O15   V3    S    
C23   C24   S    
C29   C50   S    
C37   C38   A    
O19   C52   A    
C45   O21   S    
C12   C13   A    
C5    C17   A    
C7    C8    A    
V1    O10   S    
C41   C45   A    
C53   H29   S    
V2    O10   S    
C19   C26   S    
H2    C14   S    
