data_mof_unit_682.cif
_audit_creation_date              2012-12-10T20:31:04-0500
_audit_creation_method            fapswitch 2.2
_symmetry_space_group_name_H-M    P1
_symmetry_Int_Tables_number       1
_space_group_crystal_system       triclinic
_cell_length_a                    14.99521
_cell_length_b                    10.699544
_cell_length_c                    9.847176
_cell_angle_alpha                 89.457989
_cell_angle_beta                  89.869208
_cell_angle_gamma                 89.946305
_cell_volume                      1579.8242476

loop_
_atom_site_label
_atom_site_type_symbol
_atom_type_description
_atom_site_fract_x
_atom_site_fract_y
_atom_site_fract_z
_atom_type_partial_charge
C1    C     C_R   0.500658 0.259745 0.500206 0.873697
C2    C     C_R   0.907417 0.527211 0.377598 0.118812
C3    C     C_R   0.953261 0.476438 0.746740 -0.219726
C4    C     C_R   0.045896 0.477116 0.746907 -0.220432
C5    C     C_R   0.092514 0.493813 0.624749 0.118500
C6    C     C_R   0.046357 0.511769 0.501395 0.061973
C7    C     C_R   0.092964 0.529410 0.378074 0.108937
C8    C     C_R   0.046740 0.546954 0.256003 -0.209895
C9    C     C_R   0.954074 0.545795 0.255753 -0.224346
C10   C     C_R   0.184699 0.491394 0.623469 -0.261041
C11   C     C_R   0.230705 0.506725 0.500774 -0.091927
C12   C     C_R   0.326571 0.501526 0.500177 0.885650
C13   C     C_R   0.185187 0.527822 0.378909 -0.262162
C14   C     C_R   0.542529 0.062197 0.609599 0.043855
C15   C     C_R   0.510445 0.127776 0.497215 -0.071670
C16   C     C_R   0.496772 0.064991 0.374477 -0.235569
C17   C     C_R   0.499214 0.936292 0.373041 -0.191672
C18   C     C_R   0.516402 0.870908 0.494141 -0.142299
C19   C     C_R   0.548200 0.934459 0.606657 0.015879
C20   C     C_3   0.525904 0.922669 0.754930 0.365964
C21   C     C_3   0.516633 0.064458 0.756522 -0.580957
C22   C     C_R   0.425248 0.465666 0.072148 0.188511
C23   C     C_R   0.503249 0.739835 0.499025 0.868944
C24   C     C_R   0.570968 0.544057 0.071260 -0.134833
C25   C     C_R   0.571054 0.543604 0.927308 -0.082796
C26   C     C_R   0.425061 0.466623 0.929210 0.145600
C27   C     C_3   0.380101 0.342865 0.924338 -0.562957
C28   C     C_3   0.381596 0.340557 0.078433 0.298316
C29   C     C_R   0.673430 0.500828 0.499915 0.888670
C30   C     C_R   0.815191 0.523861 0.378018 -0.258610
C31   C     C_R   0.769302 0.504195 0.500122 -0.071020
C32   C     C_R   0.814912 0.488946 0.622906 -0.272421
C33   C     C_R   0.907061 0.492181 0.624392 0.115107
C34   C     C_R   0.953604 0.510802 0.501186 0.055632
H1    H     H_    0.779326 0.536627 0.283360 0.153402
H2    H     H_    0.480765 0.888988 0.280441 0.181670
H3    H     H_    0.461119 0.874697 0.772926 0.117097
H4    H     H_    0.446178 0.093655 0.770083 0.170836
H5    H     H_    0.565809 0.113615 0.821133 0.207737
H6    H     H_    0.628859 0.577817 0.124881 0.150185
H7    H     H_    0.629073 0.576160 0.872605 0.145434
H8    H     H_    0.312134 0.349179 0.880004 0.216074
H9    H     H_    0.423556 0.270926 0.879031 0.177168
H10   H     H_    0.778892 0.474037 0.717323 0.155526
H11   H     H_    0.426889 0.267435 0.121218 0.066622
H12   H     H_    0.917818 0.462753 0.841777 0.141817
H13   H     H_    0.081024 0.463754 0.842047 0.151230
H14   H     H_    0.220404 0.476325 0.717821 0.162000
H15   H     H_    0.221349 0.541958 0.284525 0.198379
H16   H     H_    0.082201 0.560497 0.160955 0.153709
H17   H     H_    0.918965 0.558599 0.160521 0.141209
H18   H     H_    0.478073 0.113810 0.282132 0.159750
N1    N     N_R   0.499390 0.499140 0.142800 -0.142987
N2    N     N_R   0.499390 0.499180 0.857150 -0.107510
O1    O     O_R   0.500010 0.316790 0.614690 -0.609918
O2    O     O_R   0.500000 0.316760 0.385350 -0.640851
O3    O     O_R   0.367850 0.499990 0.614680 -0.620730
O4    O     O_R   0.367840 0.499950 0.385340 -0.612518
O5    O     O_R   0.500000 0.683240 0.614650 -0.615422
O6    O     O_R   0.499990 0.683210 0.385310 -0.615280
O7    O     O_R   0.632160 0.500050 0.614660 -0.638284
O8    O     O_R   0.632150 0.500010 0.385320 -0.628545
Zn1   Zn    Zn3+2 0.500010 0.500020 0.653130 0.950674
Zn2   Zn    Zn3+2 0.499990 0.499980 0.346870 0.949776
O9    O     O_3   0.593995 0.872732 0.841368 -0.626549
C35   C     C_3   0.682846 0.906962 0.806569 0.110905
H19   H     H_    0.719686 0.922378 0.902690 0.149066
H20   H     H_    0.688182 0.996192 0.748568 0.137679
C36   C     C_3   0.729175 0.800983 0.729861 -0.336753
H21   H     H_    0.736586 0.718698 0.798358 0.208550
H22   H     H_    0.688568 0.772763 0.641203 0.228213
C37   C     C_3   0.821427 0.840553 0.679912 -0.954260
H23   H     H_    0.815932 0.921694 0.609206 0.265726
H24   H     H_    0.853316 0.762180 0.624946 0.279588
H25   H     H_    0.864342 0.866090 0.767138 0.262462
O10   O     O_3   0.294380 0.348583 0.133225 -0.633651
C38   C     C_3   0.278938 0.251738 0.229215 0.115322
H26   H     H_    0.218573 0.277067 0.288423 0.168776
H27   H     H_    0.334278 0.243548 0.303973 0.136244
C39   C     C_3   0.261323 0.126506 0.159375 -0.391621
H28   H     H_    0.204192 0.137099 0.088469 0.236036
H29   H     H_    0.320772 0.097644 0.099846 0.211888
C40   C     C_3   0.240078 0.024006 0.263284 -0.949509
H30   H     H_    0.296789 0.011127 0.334450 0.267367
H31   H     H_    0.228209 0.934490 0.210146 0.269494
H32   H     H_    0.179225 0.048445 0.321879 0.267061

loop_
_geom_bond_atom_site_label_1
_geom_bond_atom_site_label_2
_ccdc_geom_bond_type
C8    C9    A    
C35   H20   S    
C24   C25   A    
C19   C20   S    
C9    H17   S    
C7    C8    A    
C38   H26   S    
C23   O5    A    
C26   C27   S    
C30   H1    S    
C14   C21   S    
C1    O2    A    
C37   H25   S    
C5    C6    A    
N1    Zn2   S    
C35   C36   S    
N2    Zn1   S    
C3    C33   A    
C15   C16   A    
C36   H22   S    
C18   C19   A    
O7    Zn1   S    
O8    Zn2   S    
C21   H4    S    
C31   C32   A    
C16   C17   A    
O1    Zn1   S    
O2    Zn2   S    
C1    C15   S    
C17   H2    S    
C12   O4    A    
C2    C34   A    
C35   H19   S    
C22   C28   S    
C39   C40   S    
C26   N2    A    
O3    Zn1   S    
C22   N1    A    
C38   H27   S    
O4    Zn2   S    
C23   O6    A    
C29   O7    A    
C28   H11   S    
C18   C23   S    
C20   O9    S    
C25   N2    A    
C37   H24   S    
C25   H7    S    
C39   H28   S    
C24   N1    A    
C6    C34   A    
C36   C37   S    
C40   H30   S    
C21   H5    S    
C7    C13   A    
C17   C18   A    
C32   H10   S    
O10   C38   S    
C13   H15   S    
C12   O3    A    
C39   H29   S    
C40   H31   S    
C10   H14   S    
C3    C4    A    
C28   O10   S    
C8    H16   S    
C38   C39   S    
C29   O8    A    
C14   C19   A    
C16   H18   S    
C37   H23   S    
C11   C12   S    
C6    C7    A    
C3    H12   S    
O5    Zn1   S    
C2    C30   A    
O6    Zn2   S    
C32   C33   A    
C1    O1    A    
C5    C10   A    
C29   C31   S    
C20   H3    S    
C11   C13   A    
C27   H8    S    
C30   C31   A    
C24   H6    S    
C33   C34   A    
C36   H21   S    
C10   C11   A    
C27   H9    S    
C4    C5    A    
C40   H32   S    
C20   C21   S    
O9    C35   S    
C22   C26   A    
C27   C28   S    
C14   C15   A    
C2    C9    A    
C4    H13   S    
