data_mof_unit_3381.cif
_audit_creation_date              2012-12-11T15:44:59-0500
_audit_creation_method            fapswitch 2.2
_symmetry_space_group_name_H-M    P1
_symmetry_Int_Tables_number       1
_space_group_crystal_system       triclinic
_cell_length_a                    19.049963
_cell_length_b                    10.891482
_cell_length_c                    18.72365
_cell_angle_alpha                 89.805329
_cell_angle_beta                  90.216726
_cell_angle_gamma                 90.226016
_cell_volume                      3884.74626727

loop_
_atom_site_label
_atom_site_type_symbol
_atom_type_description
_atom_site_fract_x
_atom_site_fract_y
_atom_site_fract_z
_atom_type_partial_charge
C1    C     C_R   0.760803 0.535099 0.646853 0.535993
C2    C     C_R   0.281819 0.009870 0.520269 -0.127341
C3    C     C_R   0.465450 0.955339 0.972670 -0.049528
C4    C     C_R   0.942063 0.238844 0.977996 -0.151052
C5    C     C_R   0.961536 0.237912 0.050539 -0.164630
C6    C     C_R   0.442072 0.738839 0.977994 -0.151053
C7    C     C_R   0.461543 0.737908 0.050537 -0.164632
C8    C     C_3   0.032768 0.560999 0.034876 -0.049305
C9    C     C_3   0.015862 0.557298 0.955369 -0.059299
C10   C     C_3   0.532767 0.061000 0.034877 -0.049304
C11   C     C_3   0.515861 0.057303 0.955371 -0.059299
C12   C     C_R   0.761160 0.531268 0.852756 0.536629
C13   C     C_R   0.326128 0.589361 0.447733 -0.160973
C14   C     C_R   0.239446 0.531542 0.147350 0.539431
C15   C     C_R   0.261160 0.031269 0.852756 0.536629
C16   C     C_R   0.739446 0.031542 0.147350 0.539434
C17   C     C_R   0.772530 0.127124 0.853288 0.535534
C18   C     C_R   0.227017 0.125663 0.146911 0.553957
C19   C     C_R   0.272530 0.627124 0.853288 0.535535
C20   C     C_R   0.727018 0.625662 0.146912 0.553958
C21   C     C_R   0.936583 0.351226 0.860706 0.568805
C22   C     C_R   0.027899 0.347453 0.147563 0.537578
C23   C     C_R   0.436582 0.851226 0.860707 0.568797
C24   C     C_R   0.781924 0.510047 0.520278 -0.127395
C25   C     C_R   0.527899 0.847453 0.147563 0.537576
C26   C     C_R   0.759425 0.107837 0.416476 0.004409
C27   C     C_R   0.252314 0.079414 0.575478 0.033347
C28   C     C_R   0.259438 0.607849 0.416468 0.004393
C29   C     C_R   0.752323 0.579451 0.575483 0.033308
C30   C     C_R   0.710820 0.177209 0.454664 0.013116
C31   C     C_R   0.202538 0.168487 0.559622 0.011417
C32   C     C_R   0.210848 0.677269 0.454647 0.013095
C33   C     C_R   0.702452 0.668339 0.559611 0.011505
C34   C     C_R   0.722355 0.202880 0.526264 0.024855
C35   C     C_3   0.633957 0.159446 0.465510 -0.256151
C36   C     C_R   0.189015 0.199014 0.489154 0.013126
C37   C     C_R   0.222379 0.702926 0.526250 0.024792
C38   C     C_R   0.688937 0.698867 0.489144 0.013241
C39   C     C_2   0.009888 0.678548 0.070067 0.540197
C40   C     C_2   0.076717 0.517424 0.909582 0.592898
C41   C     C_2   0.509886 0.178546 0.070071 0.540198
C42   C     C_2   0.576716 0.017434 0.909582 0.592904
C43   C     C_3   0.201481 0.299669 0.582472 -0.278219
C44   C     C_3   0.133977 0.659593 0.465479 -0.256149
C45   C     C_3   0.701193 0.799482 0.582486 -0.278299
C46   C     C_3   0.646945 0.184040 0.544257 -0.261523
C47   C     C_3   0.186914 0.332723 0.505191 -0.283246
C48   C     C_3   0.146960 0.684163 0.544230 -0.261490
C49   C     C_R   0.239992 0.535758 0.353373 0.526312
C50   C     C_3   0.686647 0.832545 0.505200 -0.283330
C51   C     C_R   0.782938 0.162071 0.561590 -0.001672
C52   C     C_R   0.223468 0.138911 0.433930 0.032760
C53   C     C_R   0.282945 0.662070 0.561588 -0.001684
C54   C     C_R   0.723478 0.638926 0.433929 0.032760
C55   C     C_R   0.989722 0.329473 0.420859 -0.042023
C56   C     C_R   0.996413 0.346982 0.570990 -0.047969
C57   C     C_R   0.489677 0.829449 0.420830 -0.042063
C58   C     C_R   0.496350 0.846962 0.570962 -0.048014
C59   C     C_R   0.006813 0.104382 0.431916 -0.083080
C60   C     C_R   0.260802 0.035097 0.646853 0.535990
C61   C     C_R   0.031572 0.129737 0.577639 -0.086379
C62   C     C_R   0.506769 0.604362 0.431881 -0.083046
C63   C     C_R   0.531506 0.629703 0.577608 -0.086413
C64   C     C_R   0.024715 0.002297 0.473037 -0.131301
C65   C     C_R   0.038447 0.015532 0.545499 -0.120751
C66   C     C_R   0.524678 0.502276 0.472999 -0.131298
C67   C     C_R   0.538400 0.515506 0.545461 -0.120771
C68   C     C_R   0.009787 0.233306 0.537713 -0.009834
C69   C     C_R   0.002186 0.222557 0.462756 0.007674
C70   C     C_R   0.509716 0.733276 0.537686 -0.009883
C71   C     C_R   0.739989 0.035749 0.353378 0.526320
C72   C     C_R   0.502126 0.722530 0.462727 0.007670
C73   C     C_R   0.983540 0.453524 0.527477 0.002194
C74   C     C_R   0.968993 0.438247 0.454475 -0.002224
C75   C     C_R   0.483462 0.953498 0.527445 0.002209
C76   C     C_R   0.468922 0.938208 0.454442 -0.002206
C77   C     C_R   0.791835 0.173031 0.638985 0.562585
C78   C     C_R   0.208508 0.171190 0.361209 0.559288
C79   C     C_R   0.291837 0.673033 0.638984 0.562580
C80   C     C_R   0.708508 0.671193 0.361209 0.559289
C81   C     C_R   0.984088 0.575955 0.553814 -0.076851
C82   C     C_R   0.837461 0.115208 0.519876 -0.167451
C83   C     C_R   0.939420 0.536275 0.414870 -0.081688
C84   C     C_R   0.484003 0.075940 0.553772 -0.076819
C85   C     C_R   0.439340 0.036216 0.414828 -0.081629
C86   C     C_R   0.957531 0.673165 0.513425 -0.133268
C87   C     C_R   0.932825 0.652415 0.444737 -0.116045
C88   C     C_R   0.457436 0.173135 0.513374 -0.133308
C89   C     C_R   0.432729 0.152360 0.444688 -0.116012
C90   C     C_R   0.746925 0.062687 0.072714 0.007475
C91   C     C_R   0.253651 0.068484 0.926289 0.017371
C92   C     C_R   0.246925 0.562687 0.072714 0.007475
C93   C     C_R   0.266775 0.038728 0.449438 -0.127063
C94   C     C_R   0.753652 0.568480 0.926290 0.017370
C95   C     C_R   0.777527 0.974361 0.028829 0.044474
C96   C     C_R   0.190819 0.039938 0.959762 0.024939
C97   C     C_R   0.277527 0.474361 0.028829 0.044477
C98   C     C_R   0.690820 0.539930 0.959764 0.024940
C99   C     C_R   0.777805 0.984583 0.955978 0.046548
C100  C     C_R   0.184731 0.050324 0.032257 0.035700
C101  C     C_R   0.277805 0.484583 0.955978 0.046549
C102  C     C_R   0.684733 0.550317 0.032258 0.035702
C103  C     C_R   0.712060 0.172903 0.966346 -0.121835
C104  C     C_R   0.337456 0.615152 0.519883 -0.167460
C105  C     C_R   0.307701 0.097682 0.043416 -0.173257
C106  C     C_R   0.212059 0.672902 0.966346 -0.121835
C107  C     C_R   0.807702 0.597681 0.043417 -0.173255
C108  C     C_R   0.709461 0.158404 0.040576 -0.173203
C109  C     C_R   0.313293 0.092220 0.968907 -0.168389
C110  C     C_R   0.209460 0.658403 0.040575 -0.173205
C111  C     C_R   0.813294 0.592218 0.968908 -0.168389
C112  C     C_3   0.848508 0.917088 0.030899 -0.252243
C113  C     C_3   0.119978 0.092629 0.945809 -0.262133
C114  C     C_3   0.348509 0.417088 0.030899 -0.252242
C115  C     C_R   0.766877 0.538886 0.449444 -0.127111
C116  C     C_3   0.619978 0.592615 0.945809 -0.262131
C117  C     C_3   0.846730 0.919932 0.949911 -0.272423
C118  C     C_3   0.113574 0.106863 0.025767 -0.231613
C119  C     C_3   0.346730 0.419932 0.949911 -0.272424
C120  C     C_3   0.613575 0.606852 0.025768 -0.231614
C121  C     C_R   0.750873 0.089798 0.923929 0.042221
C122  C     C_R   0.241791 0.085004 0.075061 0.014601
C123  C     C_R   0.250873 0.589797 0.923929 0.042219
C124  C     C_R   0.741793 0.585002 0.075062 0.014600
C125  C     C_R   0.971042 0.347777 0.645900 0.532223
C126  C     C_R   0.826128 0.089405 0.447729 -0.160903
C127  C     C_R   0.026098 0.343975 0.351572 0.520584
C128  C     C_R   0.471026 0.847775 0.645889 0.532222
C129  C     C_R   0.526090 0.843972 0.351565 0.520560
C130  C     C_R   0.987081 0.346133 0.081992 0.017384
C131  C     C_R   0.949384 0.346814 0.937205 0.028010
C132  C     C_R   0.487084 0.846131 0.081991 0.017386
C133  C     C_R   0.449390 0.846812 0.937203 0.028020
C134  C     C_R   0.981139 0.456597 0.043879 0.009666
C135  C     C_R   0.965449 0.455338 0.972670 -0.049525
C136  C     C_R   0.481140 0.956596 0.043878 0.009665
Cr1   Cr    Cr6+3 0.885860 0.491680 0.749630 1.020294
Cr2   Cr    Cr6+3 0.112430 0.179310 0.249850 1.007626
Cr3   Cr    Cr6+3 0.387570 0.679310 0.750150 1.000703
Cr4   Cr    Cr6+3 0.612430 0.679310 0.249850 1.007625
Cr5   Cr    Cr6+3 0.114140 0.491680 0.250370 1.047350
Cr6   Cr    Cr6+3 0.385860 0.991680 0.749630 1.020286
Cr7   Cr    Cr6+3 0.614140 0.991680 0.250370 1.047353
Cr8   Cr    Cr6+3 0.730490 0.332970 0.748720 1.022878
Cr9   Cr    Cr6+3 0.269510 0.332970 0.251280 1.024401
Cr10  Cr    Cr6+3 0.230490 0.832970 0.748720 1.022864
Cr11  Cr    Cr6+3 0.769510 0.832970 0.251280 1.024423
Cr12  Cr    Cr6+3 0.887570 0.179310 0.750150 1.000718
H1    H     H_    0.886611 0.088597 0.544239 0.158103
H2    H     H_    0.353375 0.118645 0.075522 0.168030
H3    H     H_    0.187950 0.753660 0.943102 0.173334
H4    H     H_    0.853375 0.618649 0.075522 0.168025
H5    H     H_    0.680465 0.223351 0.072594 0.156176
H6    H     H_    0.363683 0.107903 0.944474 0.131025
H7    H     H_    0.180464 0.723349 0.072594 0.156172
H8    H     H_    0.863683 0.607904 0.944474 0.131026
H9    H     H_    0.847833 0.824199 0.054174 0.175044
H10   H     H_    0.082966 0.023510 0.923372 0.160936
H11   H     H_    0.347835 0.324199 0.054174 0.175045
H12   H     H_    0.289925 0.985210 0.406995 0.130377
H13   H     H_    0.582967 0.523492 0.923373 0.160937
H14   H     H_    0.888834 0.979198 0.054128 0.128092
H15   H     H_    0.122066 0.181384 0.916426 0.188989
H16   H     H_    0.388835 0.479200 0.054128 0.128092
H17   H     H_    0.622064 0.681370 0.916425 0.188979
H18   H     H_    0.889927 0.973838 0.926096 0.154072
H19   H     H_    0.113313 0.204527 0.042809 0.168036
H20   H     H_    0.389928 0.473839 0.926096 0.154070
H21   H     H_    0.613313 0.704516 0.042808 0.168034
H22   H     H_    0.840196 0.827913 0.925604 0.147284
H23   H     H_    0.386591 0.588488 0.544255 0.158120
H24   H     H_    0.072137 0.048025 0.049540 0.148202
H25   H     H_    0.340197 0.327913 0.925605 0.147281
H26   H     H_    0.572137 0.548013 0.049541 0.148205
H27   H     H_    0.926398 0.154760 0.952797 0.127384
H28   H     H_    0.962184 0.152223 0.079881 0.113159
H29   H     H_    0.426411 0.654754 0.952794 0.127384
H30   H     H_    0.462194 0.652218 0.079878 0.113158
H31   H     H_    0.087354 0.534616 0.048811 0.141708
H32   H     H_    0.988574 0.640011 0.934242 0.136840
H33   H     H_    0.587354 0.034620 0.048811 0.141708
H34   H     H_    0.790082 0.485456 0.407006 0.130373
H35   H     H_    0.488572 0.140014 0.934245 0.136828
H36   H     H_    0.866831 0.041188 0.419272 0.141827
H37   H     H_    0.316225 0.933343 0.532087 0.122117
H38   H     H_    0.366818 0.541099 0.419287 0.141846
H39   H     H_    0.816399 0.433628 0.532101 0.122192
H40   H     H_    0.115714 0.564930 0.454107 0.158888
H41   H     H_    0.753081 0.832837 0.601970 0.156144
H42   H     H_    0.615729 0.064756 0.454149 0.158836
H43   H     H_    0.253443 0.332814 0.601900 0.156154
H44   H     H_    0.602871 0.232482 0.438779 0.145107
H45   H     H_    0.956471 0.764831 0.535495 0.108788
H46   H     H_    0.156657 0.319628 0.618412 0.138453
H47   H     H_    0.102925 0.732668 0.438745 0.145080
H48   H     H_    0.656317 0.819202 0.618388 0.138426
H49   H     H_    0.622151 0.269473 0.563455 0.140415
H50   H     H_    0.133880 0.371362 0.496507 0.135199
H51   H     H_    0.122195 0.769621 0.563430 0.140440
H52   H     H_    0.633575 0.870972 0.496468 0.135260
H53   H     H_    0.638457 0.101853 0.578625 0.142751
H54   H     H_    0.230655 0.383871 0.479791 0.147865
H55   H     H_    0.138443 0.601979 0.578595 0.142705
H56   H     H_    0.911081 0.727222 0.413641 0.127497
H57   H     H_    0.730331 0.883903 0.479852 0.147761
H58   H     H_    0.027771 0.912751 0.448506 0.106405
H59   H     H_    0.053227 0.937056 0.577458 0.108650
H60   H     H_    0.527751 0.412734 0.448463 0.106420
H61   H     H_    0.553193 0.437030 0.577415 0.108660
H62   H     H_    0.993390 0.088399 0.376578 0.133828
H63   H     H_    0.044840 0.136534 0.633707 0.135519
H64   H     H_    0.493360 0.588387 0.376540 0.133828
H65   H     H_    0.544778 0.636491 0.633674 0.135529
H66   H     H_    0.922343 0.523231 0.360145 0.135114
H67   H     H_    0.456371 0.264810 0.535435 0.108754
H68   H     H_    0.007493 0.599886 0.604521 0.144445
H69   H     H_    0.422276 0.023154 0.360100 0.135096
H70   H     H_    0.507415 0.099898 0.604470 0.144453
H71   H     H_    0.009790 0.863155 0.067658 0.322962
H72   H     H_    0.129849 0.542491 0.817837 0.338661
H73   H     H_    0.509792 0.363155 0.067669 0.322960
H74   H     H_    0.629846 0.042509 0.817837 0.338670
H75   H     H_    0.410980 0.227156 0.413586 0.127516
H76   H     H_    0.687953 0.253662 0.943103 0.173332
O1    O     O_R   0.957020 0.451640 0.669920 -0.515197
O2    O     O_R   0.168040 0.093290 0.169870 -0.513815
O3    O     O_R   0.331960 0.593290 0.830130 -0.533829
O4    O     O_R   0.668040 0.593290 0.169870 -0.513813
O5    O     O_R   0.945600 0.250580 0.824860 -0.500905
O6    O     O_R   0.054400 0.250580 0.175140 -0.517895
O7    O     O_R   0.445600 0.750580 0.824860 -0.500897
O8    O     O_R   0.554400 0.750580 0.175140 -0.517899
O9    O     O_3   0.834640 0.334650 0.749500 -0.292973
O10   O     O_3   0.165360 0.334650 0.250500 -0.269921
O11   O     O_3   0.334640 0.834650 0.749500 -0.292970
O12   O     O_R   0.042980 0.451640 0.330080 -0.512000
O13   O     O_3   0.665360 0.834650 0.250500 -0.269931
O14   O     O_R   0.821450 0.543440 0.674610 -0.500386
O15   O     O_R   0.178550 0.543440 0.325390 -0.497304
O16   O     O_R   0.321450 0.043440 0.674610 -0.500390
O17   O     O_R   0.678550 0.043440 0.325390 -0.497305
O18   O     O_R   0.715320 0.458650 0.668100 -0.523168
O19   O     O_R   0.284680 0.458650 0.331900 -0.535972
O20   O     O_R   0.215320 0.958650 0.668100 -0.523194
O21   O     O_R   0.784680 0.958650 0.331900 -0.535931
O22   O     O_R   0.737170 0.209590 0.674530 -0.495962
O23   O     O_R   0.457020 0.951640 0.669920 -0.515192
O24   O     O_R   0.262830 0.209590 0.325470 -0.505823
O25   O     O_R   0.237170 0.709590 0.674530 -0.495960
O26   O     O_R   0.762830 0.709590 0.325470 -0.505812
O27   O     O_R   0.832710 0.092740 0.669580 -0.518699
O28   O     O_R   0.167290 0.092740 0.330420 -0.509119
O29   O     O_R   0.332710 0.592740 0.669580 -0.518730
O30   O     O_R   0.667290 0.592740 0.330420 -0.509093
O31   O     O_R   0.946290 0.250060 0.676040 -0.514705
O32   O     O_R   0.053710 0.250060 0.323960 -0.522848
O33   O     O_R   0.446290 0.750060 0.676040 -0.514710
O34   O     O_R   0.542980 0.951640 0.330080 -0.511984
O35   O     O_R   0.553710 0.750060 0.323960 -0.522849
O36   O     O_R   0.956270 0.452200 0.830470 -0.486940
O37   O     O_R   0.043730 0.452200 0.169530 -0.483184
O38   O     O_R   0.456270 0.952200 0.830470 -0.486930
O39   O     O_R   0.543730 0.952200 0.169530 -0.483186
O40   O     O_R   0.820760 0.543950 0.823440 -0.527276
O41   O     O_R   0.179240 0.543950 0.176560 -0.499401
O42   O     O_R   0.320760 0.043950 0.823440 -0.527278
O43   O     O_R   0.679240 0.043950 0.176560 -0.499400
O44   O     O_R   0.714570 0.459210 0.828640 -0.509089
O45   O     O_R   0.736470 0.210100 0.823360 -0.492083
O46   O     O_R   0.285430 0.459210 0.171360 -0.513600
O47   O     O_R   0.214570 0.959210 0.828640 -0.509089
O48   O     O_R   0.785430 0.959210 0.171360 -0.513601
O49   O     O_2   0.976699 0.675705 0.125837 -0.518665
O50   O     O_R   0.028649 0.791166 0.039591 -0.734289
O51   O     O_2   0.111593 0.427429 0.925936 -0.560707
O52   O     O_R   0.091202 0.582013 0.846730 -0.674737
O53   O     O_2   0.476692 0.175696 0.125838 -0.518670
O54   O     O_R   0.528652 0.291169 0.039602 -0.734287
O55   O     O_2   0.611593 0.927441 0.925933 -0.560696
O56   O     O_R   0.263530 0.210100 0.176640 -0.489434
O57   O     O_R   0.591200 0.082028 0.846732 -0.674740
O58   O     O_R   0.236470 0.710100 0.823360 -0.492078
O59   O     O_R   0.763530 0.710100 0.176640 -0.489437
O60   O     O_R   0.831960 0.093290 0.830130 -0.533828

loop_
_geom_bond_atom_site_label_1
_geom_bond_atom_site_label_2
_ccdc_geom_bond_type
C35   H44   S    
C78   O28   A    
C74   C83   A    
C90   C95   A    
C48   H55   S    
C80   O30   A    
Cr8   O9    S    
C43   H46   S    
C57   C76   A    
C86   H45   S    
C95   C99   A    
C81   H68   S    
C40   O52   S    
C29   C33   A    
C94   C111  A    
C33   C45   S    
Cr9   O19   S    
C36   C47   S    
C26   C126  A    
C125  O31   A    
C41   O54   S    
C91   C96   A    
C55   C74   A    
C117  H22   S    
C108  H5    S    
Cr12  O27   S    
Cr8   O18   S    
C47   H50   S    
C60   O16   A    
C81   C86   A    
C59   H62   S    
C99   C121  A    
Cr5   O15   S    
Cr9   O10   S    
C22   C130  S    
C10   C41   S    
C26   C71   S    
C130  C134  A    
Cr7   O34   S    
C107  C124  A    
H74   O57   S    
C73   C81   A    
C48   H51   S    
C27   C31   A    
C28   C32   A    
C17   O45   A    
C30   C34   A    
C58   C70   A    
C98   C102  A    
C75   C76   A    
Cr11  O48   S    
C22   O6    A    
C117  H18   S    
C1    C29   S    
C79   O29   A    
C109  H6    S    
C7    C132  A    
C84   H70   S    
C18   C122  S    
C104  H23   S    
C39   O50   S    
C5    C130  A    
C35   H42   S    
C6    H29   S    
Cr3   O11   S    
C5    H28   S    
C71   O21   A    
C103  C121  A    
C87   H56   S    
C56   C73   A    
Cr5   O37   S    
C84   C88   A    
C4    C5    A    
C6    C7    A    
C33   C38   A    
C27   C60   S    
C45   C50   S    
C67   H61   S    
C3    C11   S    
C15   C91   S    
Cr1   O40   S    
C61   C65   A    
C88   C89   A    
Cr10  O20   S    
C62   H64   S    
C31   C36   A    
Cr3   O7    S    
C43   C47   S    
C76   C85   A    
C23   O7    A    
C44   C48   S    
C25   O8    A    
C58   C128  S    
Cr7   O13   S    
C49   O15   A    
C15   O42   A    
C19   C123  S    
C34   C51   A    
C31   C43   S    
C24   H39   S    
Cr2   O28   S    
C120  H21   S    
C113  H15   S    
C53   C104  A    
C118  H19   S    
Cr2   O2    S    
Cr12  O9    S    
C12   O40   A    
C19   O3    A    
Cr1   O1    S    
C110  H7    S    
C17   O60   A    
C46   H53   S    
C82   C126  A    
C4    H27   S    
C78   O24   A    
C34   C46   S    
C20   O59   A    
C114  C119  S    
C36   C52   A    
C37   C53   A    
C45   H48   S    
C66   C67   A    
C80   O26   A    
H73   O54   S    
C49   O19   A    
C92   C97   A    
Cr4   O4    S    
C62   C66   A    
Cr10  O25   S    
C8    C134  S    
C116  H13   S    
Cr2   O6    S    
C56   C68   A    
C116  C120  S    
C47   H54   S    
Cr9   O46   S    
C12   O44   A    
C99   C117  S    
C28   C49   S    
C114  H16   S    
C132  C136  A    
C52   C93   A    
C32   C37   A    
C55   C69   A    
C9    C135  S    
C120  H26   S    
Cr6   O11   S    
C55   C127  S    
C26   C30   A    
C115  H34   S    
C105  C109  A    
Cr10  O11   S    
C128  O23   A    
C107  C111  A    
Cr6   O42   S    
C129  O35   A    
C89   H75   S    
C134  C135  A    
C65   H59   S    
C20   O4    A    
C128  O33   A    
C2    H37   S    
C90   C108  A    
C92   C110  A    
C96   C100  A    
Cr4   O13   S    
C105  C122  A    
C20   C124  S    
C16   O43   A    
C41   O53   D    
C1    O18   A    
Cr6   O23   S    
C97   C114  S    
C25   C132  S    
C83   C87   A    
C16   C90   S    
C82   H1    S    
C88   H67   S    
C73   C74   A    
C83   H66   S    
Cr11  O26   S    
Cr6   O16   S    
C105  H2    S    
Cr10  O47   S    
C6    C133  A    
C95   C112  S    
C112  C117  S    
C52   C78   S    
C94   C98   A    
C11   C42   S    
Cr3   O3    S    
C77   O22   A    
C24   C29   A    
C21   C131  S    
C68   C69   A    
Cr7   O17   S    
C13   C28   A    
C2    C27   A    
Cr10  O58   S    
C14   O41   A    
C39   O49   D    
C12   C94   S    
Cr8   O44   S    
C102  C124  A    
C16   O48   A    
C54   C80   S    
Cr11  O13   S    
C60   O20   A    
C112  H9    S    
C85   C89   A    
C86   C87   A    
C46   H49   S    
C40   O51   D    
C64   H58   S    
C9    C40   S    
C7    H30   S    
C93   H12   S    
C51   C77   S    
C103  H76   S    
C66   H60   S    
C38   C54   A    
C118  H24   S    
C21   O5    A    
C54   C115  A    
Cr2   O32   S    
C59   C64   A    
C56   C125  S    
C13   C104  A    
C18   O56   A    
C17   C121  S    
Cr4   O8    S    
C116  H17   S    
Cr2   O10   S    
Cr4   O30   S    
C102  C120  S    
C125  O1    A    
C44   H47   S    
C13   H38   S    
Cr3   O29   S    
C14   O46   A    
C64   C65   A    
Cr8   O45   S    
C119  H25   S    
C8    H31   S    
Cr3   O33   S    
C57   C72   A    
C75   C84   A    
C106  H3    S    
C10   H33   S    
Cr6   O38   S    
C35   C46   S    
C119  H20   S    
Cr4   O35   S    
Cr8   O22   S    
H72   O52   S    
C126  H36   S    
C127  O12   A    
C101  C123  A    
C30   C35   S    
C57   C129  S    
C53   C79   S    
C10   C136  S    
C3    C136  A    
C131  C135  A    
C25   O39   A    
C22   O37   A    
Cr11  O59   S    
C61   H63   S    
Cr1   O14   S    
C85   H69   S    
C18   O2    A    
C8    C9    S    
C106  C123  A    
C103  C108  A    
C77   O27   A    
C8    C39   S    
C113  H10   S    
C111  H8    S    
Cr7   O43   S    
C43   H43   S    
C79   O25   A    
C15   O47   A    
C58   C75   A    
C4    C131  A    
C63   C67   A    
C23   C133  S    
C127  O32   A    
C101  C119  S    
C11   H35   S    
C71   O17   A    
C129  O34   A    
C10   C11   S    
C50   H52   S    
Cr5   O10   S    
C23   O38   A    
H71   O50   S    
C3    C133  A    
Cr5   O41   S    
C98   C116  S    
C63   C70   A    
C32   C44   S    
C62   C72   A    
C63   H65   S    
C37   C48   S    
C51   C82   A    
C14   C92   S    
C9    H32   S    
C44   H40   S    
C107  H4    S    
C45   H41   S    
C59   C69   A    
Cr12  O31   S    
Cr9   O56   S    
Cr1   O9    S    
C106  C110  A    
Cr1   O36   S    
C19   O58   A    
C42   O57   S    
Cr12  O60   S    
Cr9   O24   S    
C2    C93   A    
C21   O36   A    
C38   C50   S    
C1    O14   A    
C112  H14   S    
C91   C109  A    
C42   O55   D    
C61   C68   A    
Cr5   O12   S    
C100  C122  A    
C100  C118  S    
C96   C113  S    
C114  H11   S    
C113  C118  S    
C50   H57   S    
Cr7   O39   S    
Cr11  O21   S    
C24   C115  A    
C70   C72   A    
Cr12  O5    S    
C97   C101  A    
