data_mof_unit_2867.cif
_audit_creation_date              2012-12-10T19:48:43-0500
_audit_creation_method            fapswitch 2.2
_symmetry_space_group_name_H-M    P1
_symmetry_Int_Tables_number       1
_space_group_crystal_system       triclinic
_cell_length_a                    13.1227
_cell_length_b                    14.241234
_cell_length_c                    14.973287
_cell_angle_alpha                 90.821346
_cell_angle_beta                  91.151403
_cell_angle_gamma                 70.014987
_cell_volume                      2629.13995607

loop_
_atom_site_label
_atom_site_type_symbol
_atom_type_description
_atom_site_fract_x
_atom_site_fract_y
_atom_site_fract_z
_atom_type_partial_charge
C1    C     C_R   0.498551 0.500836 0.671897 0.886344
C2    C     C_R   0.820843 0.407945 0.485364 -0.248310
C3    C     C_R   0.539974 0.417379 0.906609 -0.175313
C4    C     C_R   0.704095 0.444227 0.498474 1.007289
C5    C     C_R   0.547285 0.416565 0.814870 -0.210741
C6    C     C_R   0.490985 0.502785 0.767099 -0.022202
C7    C     C_R   0.424347 0.588888 0.810175 -0.202609
C8    C     C_R   0.415716 0.589285 0.902091 -0.169165
C9    C     C_R   0.474628 0.503872 0.950326 0.120693
C10   C     C_R   0.490286 0.585698 0.092746 -0.181831
C11   C     C_R   0.499038 0.583522 0.184853 -0.193824
C12   C     C_R   0.975892 0.463925 0.479014 0.068473
C13   C     C_R   0.491557 0.501300 0.231099 -0.027554
C14   C     C_R   0.473657 0.422129 0.184723 -0.174928
C15   C     C_R   0.463861 0.424815 0.092777 -0.196052
C16   C     C_R   0.498870 0.499831 0.327526 0.868867
C17   C     C_R   0.473447 0.505996 0.046723 0.117765
C18   C     C_R   0.568548 0.874356 0.556731 -0.404468
C19   C     C_R   0.561110 0.777773 0.561832 0.622971
C20   C     C_R   0.436863 0.814061 0.439759 -0.100649
C21   C     C_R   0.434560 0.913672 0.438809 -0.279509
C22   C     C_R   0.501963 0.945913 0.497484 0.126699
C23   C     C_R   0.882437 0.462568 0.523378 -0.120964
C24   C     C_R   0.464290 0.115545 0.424579 -0.384801
C25   C     C_R   0.459065 0.216520 0.427662 0.704975
C26   C     C_R   0.538382 0.193175 0.572449 -0.104483
C27   C     C_R   0.537726 0.094567 0.573926 -0.286555
C28   C     C_R   0.295935 0.555552 0.500217 0.884876
C29   C     C_R   0.501732 0.052795 0.498643 0.105781
C30   C     C_R   0.029822 0.670624 0.608509 0.520410
C31   C     C_R   0.179699 0.590154 0.511430 -0.129273
C32   C     C_R   0.863857 0.337338 0.416935 0.507116
C33   C     C_R   0.960581 0.332876 0.377854 -0.228813
C34   C     C_R   0.026563 0.532433 0.508970 0.045037
C35   C     C_R   0.013372 0.398073 0.405413 -0.253380
C36   C     C_3   0.577560 0.752781 0.712645 0.068586
C37   C     C_3   0.640223 0.683171 0.787027 -0.243797
C38   C     C_3   0.599937 0.725403 0.879112 -1.012705
C39   C     C_3   0.311246 0.284071 0.335208 -0.402652
C40   C     C_3   0.896129 0.816478 0.648535 0.061902
C41   C     C_3   0.928442 0.907309 0.628082 -0.341100
C42   C     C_3   0.829351 0.998159 0.605260 -0.986873
C43   C     C_3   0.832731 0.190924 0.419985 -0.282792
C44   C     C_3   0.822394 0.424782 0.714513 -0.422759
C45   C     C_R   0.981906 0.599633 0.580674 -0.065674
C46   C     C_R   0.895773 0.589935 0.627948 -0.277872
C47   C     C_R   0.849966 0.518778 0.603140 0.582568
C48   C     C_R   0.124423 0.531750 0.473678 -0.235022
C49   C     C_R   0.130682 0.663305 0.575186 -0.279285
H1    H     H_    0.174290 0.708720 0.604607 0.161699
H2    H     H_    0.386261 0.790404 0.393082 0.148078
H3    H     H_    0.866622 0.634663 0.687033 0.186066
H4    H     H_    0.379165 0.964503 0.392529 0.142406
H5    H     H_    0.439954 0.087008 0.363665 0.148143
H6    H     H_    0.568707 0.222566 0.630138 0.152392
H7    H     H_    0.564751 0.052409 0.634533 0.144961
H8    H     H_    0.166426 0.478629 0.423443 0.146816
H9    H     H_    0.081232 0.396466 0.365781 0.139543
H10   H     H_    0.991019 0.283261 0.321543 0.157123
H11   H     H_    0.587093 0.351459 0.943542 0.133904
H12   H     H_    0.598480 0.349589 0.781344 0.135944
H13   H     H_    0.490034 0.761799 0.717084 0.133890
H14   H     H_    0.587207 0.826513 0.725076 0.109346
H15   H     H_    0.631359 0.608962 0.778641 0.262228
H16   H     H_    0.727509 0.673352 0.783519 0.217733
H17   H     H_    0.617371 0.795476 0.891919 0.264417
H18   H     H_    0.642001 0.670259 0.931177 0.273068
H19   H     H_    0.511291 0.741514 0.883867 0.266368
H20   H     H_    0.271248 0.352980 0.296267 0.189916
H21   H     H_    0.310859 0.219757 0.292565 0.168503
H22   H     H_    0.262506 0.288373 0.396217 0.164401
H23   H     H_    0.378898 0.655013 0.772773 0.137421
H24   H     H_    0.836873 0.836247 0.703676 0.163663
H25   H     H_    0.853132 0.797775 0.589407 0.136198
H26   H     H_    0.971071 0.925397 0.687233 0.232652
H27   H     H_    0.984726 0.889682 0.570857 0.213125
H28   H     H_    0.787647 0.983369 0.544142 0.274303
H29   H     H_    0.855479 0.063090 0.593234 0.255998
H30   H     H_    0.771840 0.017001 0.661586 0.260520
H31   H     H_    0.816815 0.199609 0.492890 0.157925
H32   H     H_    0.919250 0.145819 0.408160 0.146559
H33   H     H_    0.782226 0.149166 0.391072 0.196438
H34   H     H_    0.364245 0.656076 0.935609 0.130118
H35   H     H_    0.886856 0.438483 0.756683 0.179258
H36   H     H_    0.856181 0.353661 0.676169 0.167234
H37   H     H_    0.760676 0.416253 0.760077 0.196135
H38   H     H_    0.499594 0.648046 0.057375 0.135027
H39   H     H_    0.512840 0.645480 0.219544 0.158427
H40   H     H_    0.467248 0.358222 0.219031 0.211074
H41   H     H_    0.450174 0.363134 0.057463 0.135467
H42   H     H_    0.626086 0.892536 0.600048 0.138721
N1    N     N_R   0.500000 0.747530 0.500020 -0.125297
N2    N     N_R   0.499940 0.252470 0.500020 -0.126057
O1    O     O_R   0.499990 0.420530 0.630930 -0.638730
O2    O     O_3   0.418486 0.278698 0.355773 -0.600062
O3    O     O_3   0.988228 0.736591 0.678285 -0.658410
O4    O     O_3   0.803546 0.284509 0.377954 -0.599908
O5    O     O_3   0.771887 0.505807 0.657347 -0.594065
O6    O     O_R   0.499990 0.579480 0.630940 -0.581401
O7    O     O_R   0.653620 0.381060 0.499970 -0.600409
O8    O     O_R   0.653620 0.540010 0.499980 -0.562045
O9    O     O_R   0.500010 0.420520 0.369060 -0.551597
O10   O     O_R   0.500010 0.579470 0.369070 -0.645660
O11   O     O_R   0.346380 0.459990 0.500020 -0.592705
O12   O     O_R   0.346380 0.618940 0.500030 -0.634599
O13   O     O_3   0.617797 0.712499 0.627942 -0.597841
Zn1   Zn    Zn3+2 0.500000 0.393860 0.499990 0.997222
Zn2   Zn    Zn3+2 0.500000 0.606140 0.500010 0.983956

loop_
_geom_bond_atom_site_label_1
_geom_bond_atom_site_label_2
_ccdc_geom_bond_type
C25   N2    A    
C22   C29   S    
C27   C29   A    
C8    H34   S    
C41   C42   S    
C30   C45   A    
C26   H6    S    
C1    O6    A    
C48   H8    S    
C45   C46   A    
C32   O4    S    
O6    Zn2   S    
C20   N1    A    
C12   C23   A    
C26   C27   A    
C47   O5    S    
C35   H9    S    
C18   H42   S    
C36   C37   S    
C31   C49   A    
C20   H2    S    
C5    C6    A    
C44   H37   S    
C10   C17   A    
C24   H5    S    
C46   H3    S    
C40   H24   S    
C2    C32   A    
C18   C19   A    
C24   C29   A    
C30   O3    S    
C19   N1    A    
C44   O5    S    
N1    Zn2   S    
C38   H17   S    
C8    C9    A    
C37   H16   S    
O10   Zn2   S    
C36   H14   S    
C28   O12   A    
C3    H11   S    
C26   N2    A    
C42   H30   S    
C33   H10   S    
C13   C14   A    
C40   O3    S    
C36   H13   S    
C10   H38   S    
O12   Zn2   S    
O1    Zn1   S    
C23   C47   A    
C36   O13   S    
C1    C6    S    
C7    C8    A    
C24   C25   A    
C7    H23   S    
C27   H7    S    
C1    O1    A    
C3    C5    A    
C43   H31   S    
C2    C4    S    
C14   H40   S    
C37   C38   S    
C3    C9    A    
C41   H26   S    
C28   O11   A    
C16   O10   A    
C11   H39   S    
C4    O8    A    
C39   H20   S    
C5    H12   S    
O9    Zn1   S    
C34   C45   A    
C38   H18   S    
C12   C35   A    
C39   O2    S    
C9    C17   S    
C40   C41   S    
C30   C49   A    
C38   H19   S    
C42   H29   S    
C31   C48   A    
C4    O7    A    
C43   H32   S    
C34   C48   A    
C12   C34   A    
C44   H36   S    
C37   H15   S    
C16   O9    A    
C15   C17   A    
C46   C47   A    
O7    Zn1   S    
C18   C22   A    
C28   C31   S    
C43   O4    S    
C44   H35   S    
C25   O2    S    
C6    C7    A    
C32   C33   A    
N2    Zn1   S    
C15   H41   S    
C21   H4    S    
C11   C13   A    
O8    Zn2   S    
C33   C35   A    
C39   H21   S    
C40   H25   S    
C10   C11   A    
C19   O13   S    
C20   C21   A    
C42   H28   S    
C49   H1    S    
C13   C16   S    
C2    C23   A    
C43   H33   S    
C39   H22   S    
C14   C15   A    
C21   C22   A    
O11   Zn1   S    
C41   H27   S    
