data_mof_unit_1039.cif
_audit_creation_date              2012-12-11T15:39:12-0500
_audit_creation_method            fapswitch 2.2
_symmetry_space_group_name_H-M    P1
_symmetry_Int_Tables_number       1
_space_group_crystal_system       triclinic
_cell_length_a                    17.358121
_cell_length_b                    24.40809
_cell_length_c                    14.919624
_cell_angle_alpha                 89.469795
_cell_angle_beta                  125.709534
_cell_angle_gamma                 90.721377
_cell_volume                      5132.24677508

loop_
_atom_site_label
_atom_site_type_symbol
_atom_type_description
_atom_site_fract_x
_atom_site_fract_y
_atom_site_fract_z
_atom_type_partial_charge
C1    C     C_R   0.311402 0.372968 0.906517 -0.127861
C2    C     C_R   0.649596 0.348568 0.090556 -0.138812
C3    C     C_R   0.809519 0.875869 0.907917 -0.123316
C4    C     C_R   0.155368 0.851416 0.093813 -0.153103
C5    C     C_R   0.367859 0.678055 0.993808 -0.128249
C6    C     C_R   0.616614 0.684619 0.998565 -0.131558
C7    C     C_R   0.813023 0.139729 0.997898 -0.145510
C8    C     C_R   0.111709 0.185492 0.998411 -0.112768
C9    C     C_R   0.459939 0.500147 0.286313 0.021318
C10   C     C_R   0.434100 0.500033 0.632452 0.013840
C11   C     C_R   0.067925 0.999763 0.369227 -0.000128
C12   C     C_R   0.049191 0.000619 0.723880 0.016324
C13   C     C_R   0.196578 0.501254 0.632306 0.069870
C14   C     C_R   0.825421 0.501645 0.275969 0.062079
C15   C     C_R   0.697259 0.001061 0.631725 0.067964
C16   C     C_R   0.325549 0.001871 0.277020 0.069305
C17   C     C_R   0.071982 0.553000 0.466561 0.163058
C18   C     C_R   0.978292 0.553345 0.376351 0.163988
C19   C     C_R   0.572013 0.053059 0.467309 0.167379
C20   C     C_R   0.478190 0.053517 0.377582 0.165248
C21   C     C_R   0.117526 0.503351 0.515364 0.031146
C22   C     C_R   0.928096 0.503946 0.332046 0.032327
C23   C     C_R   0.617803 0.003322 0.515095 0.032854
C24   C     C_R   0.428099 0.004168 0.332863 0.030923
C25   C     C_R   0.075727 0.455049 0.453680 -0.195510
C26   C     C_R   0.980841 0.455416 0.361409 -0.191100
C27   C     C_R   0.575824 0.955157 0.453052 -0.194459
C28   C     C_R   0.480788 0.955662 0.361196 -0.196602
C29   C     C_3   0.957878 0.603119 0.417186 -0.517580
C30   C     C_3   0.060349 0.602833 0.515187 -0.520858
C31   C     C_3   0.457834 0.102800 0.419631 -0.522230
C32   C     C_3   0.560469 0.102403 0.517229 -0.522588
C33   C     C_R   0.210845 0.710999 0.916392 -0.177110
C34   C     C_R   0.710101 0.767713 0.100103 -0.156136
C35   C     C_R   0.665620 0.193674 0.894163 -0.155856
C36   C     C_R   0.205151 0.268429 0.098404 -0.159020
C37   C     C_R   0.618824 0.238904 0.894290 -0.176346
C38   C     C_R   0.258478 0.311009 0.098516 -0.178892
C39   C     C_R   0.152051 0.743655 0.924786 -0.194582
C40   C     C_R   0.758438 0.813447 0.100939 -0.178679
C41   C     C_R   0.645605 0.261493 0.994804 0.145392
C42   C     C_R   0.241682 0.327953 0.998552 0.155676
C43   C     C_R   0.192349 0.783737 0.005720 0.155817
C44   C     C_R   0.738202 0.833738 0.001203 0.152916
C45   C     C_R   0.436189 0.650247 0.087884 0.685509
C46   C     C_R   0.556790 0.651650 0.907762 0.703923
C47   C     C_R   0.903221 0.126781 0.090586 0.708950
C48   C     C_R   0.052980 0.152480 0.907846 0.672488
C49   C     C_R   0.705991 0.232161 0.092926 -0.201173
C50   C     C_R   0.158092 0.311662 0.898764 -0.208954
C51   C     C_R   0.290615 0.792245 0.077753 -0.203581
C52   C     C_R   0.655544 0.816221 0.901495 -0.205773
C53   C     C_R   0.349496 0.759718 0.069028 -0.104656
C54   C     C_R   0.607032 0.770525 0.900540 -0.141980
C55   C     C_R   0.752319 0.186436 0.092532 -0.118910
C56   C     C_R   0.104506 0.269369 0.898610 -0.145014
C57   C     C_R   0.309269 0.718899 0.989420 0.163392
C58   C     C_R   0.640772 0.742529 0.999485 0.174223
C59   C     C_R   0.740086 0.171027 0.994600 0.165220
C60   C     C_R   0.135197 0.243181 0.998279 0.174620
C61   C     C_R   0.393586 0.549732 0.465616 -0.165225
C62   C     C_R   0.400999 0.549789 0.378429 -0.162273
C63   C     C_R   0.104320 0.050300 0.625342 -0.162198
C64   C     C_R   0.108047 0.050034 0.535219 -0.159716
C65   C     C_R   0.415031 0.500171 0.343581 0.143300
C66   C     C_R   0.400157 0.500065 0.517322 0.139757
C67   C     C_R   0.100701 0.000197 0.484454 0.137707
C68   C     C_R   0.092768 0.000770 0.664516 0.142139
C69   C     C_R   0.398577 0.450548 0.377865 -0.162889
C70   C     C_R   0.391355 0.450465 0.465305 -0.162369
C71   C     C_R   0.109430 0.950836 0.538217 -0.161750
C72   C     C_R   0.106161 0.951151 0.628755 -0.163978
C73   C     C_R   0.492822 0.454661 0.263511 -0.114115
C74   C     C_R   0.451444 0.454339 0.696808 -0.114344
C75   C     C_R   0.050312 0.954331 0.304899 -0.138056
C76   C     C_R   0.017845 0.954539 0.749502 -0.116010
C77   C     C_R   0.245840 0.546214 0.696932 -0.137241
C78   C     C_R   0.767364 0.546672 0.246125 -0.129174
C79   C     C_R   0.746773 0.045966 0.695937 -0.137099
C80   C     C_R   0.267349 0.046824 0.246574 -0.144732
C81   C     C_R   0.484969 0.545902 0.253259 -0.128918
C82   C     C_R   0.451095 0.545655 0.696169 -0.099611
C83   C     C_R   0.052092 0.045198 0.305159 -0.031179
C84   C     C_R   0.019488 0.046273 0.751002 -0.116303
C85   C     C_R   0.243858 0.455122 0.695050 -0.137394
C86   C     C_R   0.769230 0.454951 0.250738 -0.121229
C87   C     C_R   0.744089 0.955009 0.694904 -0.138309
C88   C     C_R   0.269617 0.955171 0.252177 -0.121100
C89   C     C_R   0.343714 0.648080 0.904272 -0.229194
C90   C     C_R   0.646897 0.652495 0.090540 -0.254890
C91   C     C_R   0.810507 0.124809 0.906499 -0.208618
C92   C     C_R   0.144936 0.152935 0.090475 -0.264109
C93   C     C_R   0.406762 0.367619 0.090351 -0.129790
C94   C     C_R   0.558545 0.349860 0.906830 -0.121618
C95   C     C_R   0.902122 0.875950 0.092564 -0.123872
C96   C     C_R   0.064264 0.850795 0.909665 -0.138248
C97   C     C_R   0.315994 0.356030 0.998348 0.046591
C98   C     C_R   0.620749 0.317977 0.997763 0.052447
C99   C     C_R   0.811713 0.863122 0.000483 0.042352
C100  C     C_R   0.133019 0.823192 0.003234 0.053574
H1    H     H_    0.252915 0.368983 0.820688 0.096170
H2    H     H_    0.688524 0.334226 0.174860 0.091121
H3    H     H_    0.751156 0.870783 0.822295 0.097234
H4    H     H_    0.200608 0.838485 0.179164 0.098494
H5    H     H_    0.939710 0.639244 0.362477 0.193133
H6    H     H_    0.069008 0.594566 0.594039 0.202088
H7    H     H_    0.439329 0.139235 0.365552 0.193003
H8    H     H_    0.569630 0.093531 0.596193 0.199030
H9    H     H_    0.909131 0.594898 0.441363 0.204593
H10   H     H_    0.101255 0.638603 0.516434 0.194998
H11   H     H_    0.409306 0.094025 0.443926 0.201784
H12   H     H_    0.601065 0.138460 0.518890 0.198267
H13   H     H_    0.179524 0.678240 0.856181 0.126310
H14   H     H_    0.734423 0.749547 0.178667 0.117170
H15   H     H_    0.649153 0.180635 0.815753 0.113748
H16   H     H_    0.226404 0.251967 0.177172 0.112892
H17   H     H_    0.568670 0.258590 0.816003 0.110213
H18   H     H_    0.317868 0.326468 0.177215 0.105339
H19   H     H_    0.075827 0.738056 0.868397 0.121391
H20   H     H_    0.817746 0.828567 0.179922 0.111552
H21   H     H_    0.723344 0.246449 0.171124 0.119728
H22   H     H_    0.138648 0.327221 0.820102 0.120302
H23   H     H_    0.321498 0.825050 0.137911 0.120015
H24   H     H_    0.633606 0.833759 0.823194 0.120287
H25   H     H_    0.425613 0.765750 0.124747 0.168096
H26   H     H_    0.549296 0.755271 0.821187 0.197856
H27   H     H_    0.802533 0.166421 0.170261 0.188573
H28   H     H_    0.046203 0.254350 0.819362 0.198626
H29   H     H_    0.393383 0.588829 0.498821 0.120859
H30   H     H_    0.405575 0.588941 0.347404 0.125215
H31   H     H_    0.100657 0.089447 0.655853 0.117643
H32   H     H_    0.106988 0.089101 0.499950 0.121428
H33   H     H_    0.400683 0.411574 0.345508 0.104011
H34   H     H_    0.389121 0.411336 0.498192 0.106172
H35   H     H_    0.109555 0.911664 0.505133 0.109199
H36   H     H_    0.104523 0.912150 0.662484 0.111174
H37   H     H_    0.497154 0.413634 0.292517 0.085574
H38   H     H_    0.434653 0.412147 0.670482 0.084434
H39   H     H_    0.068255 0.912401 0.332817 0.091640
H40   H     H_    0.025938 0.912309 0.736750 0.093128
H41   H     H_    0.239873 0.588017 0.669515 0.110502
H42   H     H_    0.785692 0.589165 0.248666 0.113662
H43   H     H_    0.741453 0.087559 0.667710 0.120830
H44   H     H_    0.285561 0.089355 0.249060 0.116044
H45   H     H_    0.474000 0.588113 0.262199 0.167645
H46   H     H_    0.433341 0.587567 0.668462 0.159171
H47   H     H_    0.074441 0.086637 0.334211 0.150423
H48   H     H_    0.030858 0.088814 0.741657 0.149059
H49   H     H_    0.233226 0.413570 0.665349 0.086897
H50   H     H_    0.790912 0.412728 0.262219 0.098681
H51   H     H_    0.733160 0.913350 0.665604 0.091168
H52   H     H_    0.292334 0.913180 0.265881 0.091141
H53   H     H_    0.296323 0.659060 0.817895 0.149398
H54   H     H_    0.683471 0.666343 0.174711 0.152202
H55   H     H_    0.752789 0.129045 0.820445 0.134518
H56   H     H_    0.182261 0.166534 0.174912 0.137267
H57   H     H_    0.438558 0.353127 0.172976 0.085276
H58   H     H_    0.512570 0.337271 0.821545 0.084619
H59   H     H_    0.929783 0.871137 0.178267 0.094919
H60   H     H_    0.026307 0.837215 0.825070 0.091694
H61   H     H_    0.111074 0.416038 0.483274 0.127693
H62   H     H_    0.946712 0.416681 0.323431 0.132286
H63   H     H_    0.611296 0.916149 0.482097 0.129983
H64   H     H_    0.446593 0.917014 0.322682 0.127442
N1    N     N_R   0.394180 0.396910 0.943210 -0.041466
N2    N     N_R   0.605820 0.396910 0.056790 -0.040991
N3    N     N_R   0.894180 0.896910 0.943210 -0.041828
N4    N     N_R   0.105820 0.896910 0.056790 -0.037271
N5    N     N_R   0.450950 0.603070 0.056740 -0.106106
N6    N     N_R   0.549050 0.603070 0.943260 -0.098811
N7    N     N_R   0.950950 0.103070 0.056740 -0.104984
N8    N     N_R   0.049050 0.103070 0.943260 -0.097374
N9    N     N_R   0.525650 0.471570 0.206150 -0.043311
N10   N     N_R   0.474350 0.471570 0.793850 -0.043886
N11   N     N_R   0.025650 0.971570 0.206150 -0.046623
N12   N     N_R   0.974350 0.971570 0.793850 -0.044485
N13   N     N_R   0.319480 0.528420 0.793810 -0.036455
N14   N     N_R   0.680520 0.528420 0.206190 -0.037322
N15   N     N_R   0.819480 0.028420 0.793810 -0.036950
N16   N     N_R   0.180520 0.028420 0.206190 -0.042222
N17   N     N_R   0.525640 0.528390 0.206120 -0.039051
N18   N     N_R   0.474360 0.528390 0.793880 -0.042445
N19   N     N_R   0.025640 0.028390 0.206120 -0.051671
N20   N     N_R   0.974360 0.028390 0.793880 -0.035082
N21   N     N_R   0.319490 0.471590 0.793840 -0.042049
N22   N     N_R   0.680510 0.471590 0.206160 -0.045224
N23   N     N_R   0.819490 0.971590 0.793840 -0.043726
N24   N     N_R   0.180510 0.971590 0.206160 -0.042409
N25   N     N_R   0.394130 0.603080 0.943110 -0.074152
N26   N     N_R   0.605870 0.603080 0.056890 -0.073662
N27   N     N_R   0.894130 0.103080 0.943110 -0.067117
N28   N     N_R   0.105870 0.103080 0.056890 -0.071418
N29   N     N_R   0.450990 0.396900 0.056840 -0.039580
N30   N     N_R   0.549010 0.396900 0.943160 -0.040440
N31   N     N_R   0.950990 0.896900 0.056840 -0.040537
N32   N     N_R   0.049010 0.896900 0.943160 -0.039147
Ni1   Ni    Ni4+2 0.434860 0.434850 0.869700 0.203249
Ni2   Ni    Ni4+2 0.565140 0.434850 0.130300 0.211570
Ni3   Ni    Ni4+2 0.934860 0.934850 0.869700 0.208939
Ni4   Ni    Ni4+2 0.065140 0.934850 0.130300 0.205989
Ni5   Ni    Ni4+2 0.565130 0.565140 0.130240 0.249386
Ni6   Ni    Ni4+2 0.434870 0.565140 0.869760 0.244228
Ni7   Ni    Ni4+2 0.065130 0.065140 0.130240 0.222158
Ni8   Ni    Ni4+2 0.934870 0.065140 0.869760 0.263745
F1    F     F_    0.491351 0.670713 0.191747 -0.745781
F2    F     F_    0.494777 0.668287 0.801945 -0.760747
F3    F     F_    0.941665 0.140197 0.196636 -0.758212
F4    F     F_    0.986224 0.169576 0.803506 -0.750913

loop_
_geom_bond_atom_site_label_1
_geom_bond_atom_site_label_2
_ccdc_geom_bond_type
C1    N1    A    
C51   C53   A    
N20   Ni8   S    
C55   C59   A    
C51   H23   S    
C62   H30   S    
C19   C20   A    
C50   H22   S    
N3    N31   A    
N5    N25   A    
N16   Ni7   S    
C43   C51   A    
N10   N18   A    
N2    Ni2   S    
C82   N18   A    
C3    N3    A    
C5    C57   S    
C34   C58   A    
N8    N28   A    
C12   C68   S    
C33   C39   A    
C73   H37   S    
C30   H10   S    
C37   C41   A    
C34   C40   A    
C80   N16   A    
C29   H9    S    
C35   C37   A    
C74   N10   A    
C86   H50   S    
C54   C58   A    
C44   C99   S    
C65   C69   A    
C72   H36   S    
N30   Ni1   S    
N15   N23   A    
N24   Ni4   S    
C95   C99   A    
N29   Ni2   S    
C54   H26   S    
C2    H2    S    
C96   C100  A    
C14   C78   A    
N13   N21   A    
C12   C84   A    
C35   C59   A    
C96   N32   A    
C41   C49   A    
N8    Ni8   S    
C6    C58   S    
N16   N24   A    
C27   H63   S    
C48   N8    A    
C61   C66   A    
C79   H43   S    
C64   H32   S    
C25   H61   S    
C78   N14   A    
C80   H44   S    
C8    C60   S    
C45   F1    S    
C35   H15   S    
C8    C92   A    
C63   H31   S    
C90   H54   S    
C32   H12   S    
C2    N2    A    
C61   H29   S    
C52   H24   S    
C33   H13   S    
C44   C52   A    
C15   C23   S    
N9    N17   A    
C16   C24   S    
C87   H51   S    
C30   H6    S    
N7    Ni7   S    
C17   C30   S    
C88   H52   S    
C29   H5    S    
C69   C70   A    
C88   N24   A    
C9    C73   A    
C11   C75   A    
N32   Ni3   S    
C19   C32   S    
C7    C59   S    
C82   H46   S    
C11   C67   S    
C9    C65   S    
C10   C66   S    
C85   N21   A    
C13   C77   A    
N7    N27   A    
C64   C67   A    
N2    N30   A    
C84   N20   A    
C43   C100  S    
C14   C86   A    
C42   C97   S    
C1    C97   A    
C53   C57   A    
C87   N23   A    
C11   C83   A    
C25   C26   A    
C6    C90   A    
C91   N27   A    
C26   H62   S    
C50   C56   A    
C4    N4    A    
N23   Ni3   S    
C77   N13   A    
C16   C80   A    
C38   H18   S    
C84   H48   S    
C19   C23   A    
C8    C48   A    
C91   H55   S    
C29   C30   S    
N1    Ni1   S    
C74   H38   S    
C89   H53   S    
C31   C32   S    
C76   N12   A    
C68   C72   A    
C49   H21   S    
N12   N20   A    
C48   F4    S    
C17   C18   A    
C83   N19   A    
C33   C57   A    
C92   H56   S    
C18   C29   S    
C93   H57   S    
C69   H33   S    
C46   N6    A    
C53   H25   S    
C42   C50   A    
C83   H47   S    
C96   H60   S    
C55   H27   S    
C86   N22   A    
C1    H1    S    
C23   C27   A    
C12   C76   A    
N4    N32   A    
C95   H59   S    
N14   Ni5   S    
N27   Ni8   S    
N1    N29   A    
C76   H40   S    
C13   C85   A    
C36   H16   S    
C93   C97   A    
C7    C91   A    
N13   Ni6   S    
C28   H64   S    
C16   C88   A    
N31   Ni4   S    
C90   N26   A    
C3    H3    S    
C46   F2    S    
C75   N11   A    
C21   C25   A    
C63   C68   A    
N10   Ni1   S    
C95   N31   A    
C6    C46   A    
C62   C65   A    
C40   H20   S    
N9    Ni2   S    
C18   C22   A    
N11   N19   A    
C31   H7    S    
C32   H8    S    
N3    Ni3   S    
N17   Ni5   S    
C24   C28   A    
C36   C60   A    
C45   N5    A    
C47   N7    A    
N18   Ni6   S    
N26   Ni5   S    
C38   C42   A    
C15   C79   A    
N25   Ni6   S    
C34   H14   S    
C81   N17   A    
C7    C47   A    
N6    N26   A    
C81   H45   S    
C4    C100  A    
C47   F3    S    
N19   Ni7   S    
C14   C22   S    
C78   H42   S    
C37   H17   S    
C71   C72   A    
C49   C55   A    
C89   N25   A    
C13   C21   S    
C71   H35   S    
C10   C74   A    
C94   N30   A    
C66   C70   A    
C5    C45   A    
C39   H19   S    
C4    H4    S    
C36   C38   A    
N28   Ni7   S    
C10   C82   A    
C52   C54   A    
C31   H11   S    
C67   C71   A    
C56   H28   S    
C73   N9    A    
C61   C62   A    
N4    Ni4   S    
C85   H49   S    
N11   Ni4   S    
N6    Ni6   S    
N5    Ni5   S    
C63   C64   A    
N14   N22   A    
C3    C99   A    
C40   C44   A    
C79   N15   A    
C56   C60   A    
N15   Ni8   S    
C2    C98   A    
C77   H41   S    
C94   H58   S    
C22   C26   A    
C15   C87   A    
C93   N29   A    
C27   C28   A    
C70   H34   S    
C94   C98   A    
C41   C98   S    
N22   Ni2   S    
C75   H39   S    
N12   Ni3   S    
N21   Ni1   S    
C39   C43   A    
C20   C24   A    
C5    C89   A    
C92   N28   A    
C9    C81   A    
C20   C31   S    
C17   C21   A    
