data_mof_unit_2902.cif
_audit_creation_date              2012-12-10T16:46:46-0500
_audit_creation_method            fapswitch 2.2
_symmetry_space_group_name_H-M    P1
_symmetry_Int_Tables_number       1
_space_group_crystal_system       triclinic
_cell_length_a                    15.866937
_cell_length_b                    8.701467
_cell_length_c                    7.514037
_cell_angle_alpha                 103.159468
_cell_angle_beta                  95.021707
_cell_angle_gamma                 92.576726
_cell_volume                      1004.05613878

loop_
_atom_site_label
_atom_site_type_symbol
_atom_type_description
_atom_site_fract_x
_atom_site_fract_y
_atom_site_fract_z
_atom_type_partial_charge
C1    C     C_R   0.496490 0.199928 0.453813 0.888671
C2    C     C_3   0.957326 0.480465 0.685903 -0.515223
C3    C     C_3   0.917125 0.507459 0.499736 0.046186
C4    C     C_3   0.953340 0.669053 0.464486 0.368271
C5    C     C_3   0.054009 0.666638 0.466346 0.632509
C6    C     C_1   0.824538 0.504798 0.499426 0.108287
C7    C     C_1   0.175650 0.500732 0.501232 0.087031
C8    C     C_1   0.251134 0.500105 0.502180 -0.153409
C9    C     C_2   0.496890 0.032216 0.431506 -0.377285
C10   C     C_2   0.489006 0.966594 0.574473 0.237693
C11   C     C_R   0.340521 0.499547 0.500935 0.799275
C12   C     C_R   0.498287 0.799425 0.547153 0.752790
C13   C     C_R   0.659486 0.500634 0.499096 0.806500
C14   C     C_3   0.056427 0.481143 0.692652 0.412593
C15   C     C_3   0.037850 0.361019 0.340467 0.413384
C16   C     C_3   0.938981 0.367877 0.343327 0.229713
C17   C     C_1   0.748966 0.502464 0.498183 -0.144277
C18   C     C_3   0.082976 0.502271 0.500816 0.103879
Cu1   Cu    Cu3+1 0.509300 0.517380 0.684380 1.016496
Cu2   Cu    Cu3+1 0.490700 0.482620 0.315620 1.039421
H1    H     H_    0.930588 0.365291 0.704362 0.238952
H2    H     H_    0.936950 0.569368 0.802543 0.193443
H3    H     H_    0.506974 0.962316 0.296361 0.155971
H4    H     H_    0.434080 0.376505 0.948850 0.213346
H5    H     H_    0.911271 0.389876 0.210099 0.186246
N1    N     N_2   0.476670 0.456430 0.038530 -0.111221
N2    N     N_2   0.523330 0.543570 0.961470 0.069471
O1    O     O_R   0.506050 0.286130 0.619770 -0.524667
O2    O     O_R   0.490330 0.256780 0.308370 -0.597489
O3    O     O_R   0.387300 0.514690 0.655770 -0.595175
O4    O     O_R   0.371580 0.485340 0.344370 -0.584106
O5    O     O_R   0.509670 0.743220 0.691630 -0.608022
O6    O     O_R   0.493950 0.713870 0.380230 -0.543948
O7    O     O_R   0.628420 0.514660 0.655630 -0.590439
O8    O     O_R   0.612700 0.485310 0.344230 -0.514112
C19   C     C_3   0.098679 0.610754 0.857974 -0.655692
H6    H     H_    0.166223 0.639208 0.843623 0.238137
H7    H     H_    0.065030 0.721089 0.882898 0.224457
H8    H     H_    0.098387 0.567430 0.983996 0.288171
O9    O     O_3   0.917014 0.679233 0.288927 -0.723730
H9    H     H_    0.928119 0.788407 0.273490 0.334097
O10   O     O_3   0.470686 0.055836 0.743128 -0.711766
H10   H     H_    0.459071 0.985888 0.826450 0.338211
O11   O     O_3   0.579230 0.648206 0.075730 -0.575338
H11   H     H_    0.608653 0.703647 0.995137 0.339426
O12   O     O_3   0.084338 0.336197 0.721250 -0.735437
H12   H     H_    0.056561 0.309483 0.824478 0.365237
O13   O     O_3   0.056990 0.383690 0.168543 -0.748288
H13   H     H_    0.118435 0.370810 0.158773 0.343037
C20   C     C_3   0.066729 0.193221 0.349721 -0.737599
H14   H     H_    0.037891 0.143877 0.455461 0.268518
H15   H     H_    0.047159 0.108212 0.216296 0.211425
H16   H     H_    0.136722 0.193602 0.374292 0.218000
O14   O     O_3   0.899629 0.224956 0.363474 -0.755850
H17   H     H_    0.891712 0.151821 0.239882 0.326270
O15   O     O_3   0.096358 0.790719 0.604958 -0.770274
H18   H     H_    0.089126 0.893002 0.570199 0.328218
O16   O     O_3   0.079853 0.682684 0.296142 -0.718831
H19   H     H_    0.070450 0.791099 0.281027 0.309980
C21   C     C_3   0.925694 0.812921 0.608170 -0.840996
H20   H     H_    0.951067 0.814285 0.750286 0.225116
H21   H     H_    0.947643 0.926353 0.577845 0.230198
H22   H     H_    0.855585 0.812690 0.603069 0.244554

loop_
_geom_bond_atom_site_label_1
_geom_bond_atom_site_label_2
_ccdc_geom_bond_type
C2    H2    S    
C15   C18   S    
C20   H15   S    
O9    H9    S    
Cu2   O4    S    
C1    O1    A    
Cu1   N2    S    
C9    C10   D    
C14   C18   S    
C5    O15   S    
Cu1   Cu2   S    
C13   C17   S    
C7    C18   S    
C15   C16   S    
C4    C21   S    
C2    H1    S    
C1    O2    A    
C20   H14   S    
O16   H19   S    
C11   O4    A    
C13   O7    A    
C14   O12   S    
C12   O5    A    
Cu1   O1    S    
Cu1   O3    S    
N1    N2    D    
C10   C12   S    
C15   O13   S    
C21   H20   S    
C21   H22   S    
Cu1   O5    S    
C5    O16   S    
C19   H7    S    
O13   H13   S    
H4    N1    S    
C13   O8    A    
C2    C3    S    
Cu2   O2    S    
C8    C11   S    
C14   C19   S    
C2    C14   S    
C16   O14   S    
C15   C20   S    
C20   H16   S    
C10   O10   S    
O10   H10   S    
Cu2   O6    S    
C3    C4    S    
C7    C8    T    
C1    C9    S    
O15   H18   S    
C21   H21   S    
C3    C6    S    
C16   H5    S    
C6    C17   T    
O14   H17   S    
C19   H6    S    
C5    C18   S    
C12   O6    A    
O12   H12   S    
Cu2   O8    S    
N2    O11   S    
C3    C16   S    
C19   H8    S    
C9    H3    S    
O11   H11   S    
C4    O9    S    
C11   O3    A    
C4    C5    S    
Cu2   N1    S    
Cu1   O7    S    
