data_mof_unit_2294.cif
_audit_creation_date              2012-12-10T16:59:20-0500
_audit_creation_method            fapswitch 2.2
_symmetry_space_group_name_H-M    P1
_symmetry_Int_Tables_number       1
_space_group_crystal_system       triclinic
_cell_length_a                    7.81061
_cell_length_b                    8.638486
_cell_length_c                    27.638152
_cell_angle_alpha                 93.149774
_cell_angle_beta                  85.448526
_cell_angle_gamma                 93.542579
_cell_volume                      1853.01591435

loop_
_atom_site_label
_atom_site_type_symbol
_atom_type_description
_atom_site_fract_x
_atom_site_fract_y
_atom_site_fract_z
_atom_type_partial_charge
Br1   Br    Br    0.535662 0.825021 0.647600 -0.458189
Br2   Br    Br    0.445319 0.159954 0.366006 -0.480910
Br3   Br    Br    0.039991 0.321292 0.437648 -0.242076
Br4   Br    Br    0.959763 0.678346 0.562458 -0.253150
Br5   Br    Br    0.011493 0.661334 0.859678 -0.463498
Br6   Br    Br    0.028999 0.212409 0.138144 -0.463259
Br7   Br    Br    0.772257 0.030305 0.536284 -0.347866
Br8   Br    Br    0.222137 0.969178 0.466808 -0.333045
C1    C     C_R   0.544624 0.794273 0.498864 0.915817
C2    C     C_R   0.667560 0.489507 0.123804 0.003456
C3    C     C_R   0.502618 0.488759 0.645449 -0.184883
C4    C     C_R   0.495914 0.491569 0.354126 -0.159972
C5    C     C_R   0.674387 0.479036 0.021341 0.076686
C6    C     C_R   0.372103 0.376315 0.975015 0.077226
C7    C     C_R   0.373497 0.372333 0.026207 -0.007363
C8    C     C_R   0.673104 0.483297 0.970124 -0.006626
C9    C     C_R   0.522414 0.428500 0.049219 0.084572
C10   C     C_R   0.522482 0.431237 0.947196 0.083521
C11   C     C_R   0.823224 0.523620 0.045909 -0.225602
C12   C     C_R   0.455162 0.205775 0.501396 0.911609
C13   C     C_R   0.222809 0.331869 0.950649 -0.226404
C14   C     C_R   0.818753 0.530812 0.096098 -0.084623
C15   C     C_R   0.222761 0.336419 0.900762 -0.092390
C16   C     C_R   0.501359 0.500127 0.593506 0.919032
C17   C     C_R   0.498853 0.500198 0.406471 0.913702
C18   C     C_R   0.815240 0.545799 0.941229 -0.273108
C19   C     C_R   0.231309 0.310756 0.055264 -0.271043
C20   C     C_2   0.565332 0.956761 0.505062 0.018607
C21   C     C_2   0.433159 0.043172 0.496117 0.023346
C22   C     C_R   0.662677 0.488420 0.816813 0.553089
C23   C     C_R   0.520929 0.436628 0.895992 -0.097164
C24   C     C_R   0.366972 0.408747 0.179945 0.598719
C25   C     C_R   0.367240 0.398651 0.823034 0.547482
C26   C     C_R   0.662461 0.499076 0.174455 0.525083
C27   C     C_R   0.483966 0.331272 0.715265 -0.108256
C28   C     C_R   0.532722 0.614762 0.277422 -0.133128
C29   C     C_R   0.480419 0.341712 0.665412 0.121994
C30   C     C_R   0.527714 0.627015 0.327949 0.120858
C31   C     C_R   0.519674 0.624595 0.675413 0.218587
C32   C     C_R   0.475673 0.345004 0.329867 0.177017
C33   C     C_R   0.519112 0.613513 0.725844 0.207084
C34   C     C_R   0.519383 0.434654 0.100690 -0.096924
C35   C     C_R   0.485083 0.333477 0.278999 0.207718
C36   C     C_R   0.504035 0.465302 0.745353 0.144767
C37   C     C_R   0.511232 0.469508 0.253046 0.182618
C38   C     C_3   0.685912 0.840833 0.757684 -0.562852
C39   C     C_3   0.629539 0.118286 0.238288 -0.650996
C40   C     C_3   0.735849 0.830257 0.350570 -0.630078
C41   C     C_3   0.274827 0.149919 0.634214 -0.591952
C42   C     C_R   0.668793 0.492022 0.867629 -0.109950
C43   C     C_R   0.368678 0.386463 0.129096 -0.112326
C44   C     C_R   0.814315 0.551708 0.891178 0.326602
C45   C     C_R   0.227454 0.316827 0.105603 0.329147
C46   C     C_R   0.369911 0.388597 0.873159 -0.001166
H1    H     H_    0.553386 0.718470 0.256885 0.170190
H2    H     H_    0.739284 0.834985 0.793575 0.243518
H3    H     H_    0.664563 0.963973 0.751754 0.239070
H4    H     H_    0.782334 0.798383 0.729003 0.272861
H5    H     H_    0.378029 0.108524 0.269097 0.282269
H6    H     H_    0.604868 0.009032 0.216218 0.235534
H7    H     H_    0.696359 0.091296 0.270574 0.257095
H8    H     H_    0.713724 0.198821 0.215714 0.284498
H9    H     H_    0.494182 0.789466 0.385877 0.246487
H10   H     H_    0.747281 0.947992 0.368659 0.271870
H11   H     H_    0.791407 0.837226 0.312427 0.249150
H12   H     H_    0.471205 0.218338 0.730855 0.181376
H13   H     H_    0.810086 0.751012 0.370109 0.248796
H14   H     H_    0.518459 0.203721 0.602044 0.239738
H15   H     H_    0.265292 0.040174 0.611446 0.266721
H16   H     H_    0.201812 0.237862 0.617976 0.239349
H17   H     H_    0.216730 0.127175 0.671340 0.261098
H18   H     H_    0.935521 0.568685 0.113129 0.201812
H19   H     H_    0.104783 0.301210 0.883968 0.200509
H20   H     H_    0.946937 0.552674 0.027659 0.148352
H21   H     H_    0.101095 0.296416 0.968911 0.148983
H22   H     H_    0.928724 0.597719 0.956547 0.177976
H23   H     H_    0.120721 0.252721 0.040019 0.178011
H24   H     H_    0.457638 0.741904 0.790781 0.243330
N1    N     N_R   0.511537 0.449827 0.796285 -0.357158
N2    N     N_R   0.513416 0.460178 0.201221 -0.347362
N3    N     N_2   0.950320 0.457960 0.486880 0.083406
N4    N     N_2   0.049680 0.542040 0.513120 0.082829
N5    N     N_2   0.523197 0.750625 0.757055 -0.291921
N6    N     N_2   0.468112 0.186393 0.253338 -0.289639
N7    N     N_2   0.556758 0.775671 0.351781 -0.286533
N8    N     N_2   0.453545 0.203366 0.635929 -0.279288
O1    O     O_R   0.389250 0.738570 0.503220 -0.590193
O2    O     O_2   0.220514 0.383195 0.208284 -0.467958
O3    O     O_2   0.805308 0.546294 0.196951 -0.514765
O4    O     O_2   0.221358 0.358799 0.801058 -0.504291
O5    O     O_R   0.610750 0.261430 0.496780 -0.586697
O6    O     O_R   0.678390 0.711630 0.494810 -0.572492
O7    O     O_R   0.321610 0.288370 0.505190 -0.572847
O8    O     O_R   0.355440 0.513440 0.575450 -0.601969
O9    O     O_R   0.644560 0.486560 0.424550 -0.600180
O10   O     O_R   0.644590 0.486500 0.567040 -0.588265
O11   O     O_R   0.355410 0.513500 0.432960 -0.582405
O12   O     O_2   0.805720 0.519909 0.787653 -0.473365
Zn1   Zn    Zn3+2 0.306940 0.517990 0.505620 1.116110
Zn2   Zn    Zn3+2 0.693060 0.482010 0.494380 1.116850

loop_
_geom_bond_atom_site_label_1
_geom_bond_atom_site_label_2
_ccdc_geom_bond_type
C12   O7    A    
C2    C34   A    
H14   N8    S    
N4    Zn1   S    
C6    C10   A    
C39   H8    S    
N3    N4    D    
C31   C33   A    
C2    C14   A    
Br8   C21   S    
C6    C13   A    
C20   C21   D    
C27   C29   A    
C18   C44   A    
C16   O10   A    
C40   H10   S    
C24   O2    S    
C3    C16   S    
C3    C29   A    
C9    C34   A    
C26   N2    A    
C39   H6    S    
H24   N5    S    
C32   C35   A    
Br3   N3    S    
C42   C44   A    
Br5   C44   S    
C40   H11   S    
O7    Zn1   S    
C34   C43   A    
C22   C42   A    
C40   H13   S    
C41   H15   S    
H9    N7    S    
C35   N6    S    
C15   H19   S    
C1    O6    A    
C14   H18   S    
O11   Zn1   S    
O1    Zn1   S    
C12   C21   S    
C11   H20   S    
C8    C18   A    
C12   O5    A    
C5    C11   A    
C30   N7    S    
C29   N8    S    
C11   C14   A    
H5    N6    S    
O9    Zn2   S    
C25   N1    A    
C27   H12   S    
Br7   C20   S    
C43   C45   A    
C4    C32   A    
C24   C43   A    
C16   O8    A    
C24   N2    A    
C7    C19   A    
C28   C37   A    
C2    C26   A    
C39   N6    S    
C3    C31   A    
C27   C36   A    
C35   C37   A    
C22   N1    A    
C17   O11   A    
C17   O9    A    
C41   H16   S    
C13   C15   A    
C38   H3    S    
O5    Zn2   S    
C33   C36   A    
C23   C42   A    
C18   H22   S    
O6    Zn2   S    
C15   C46   A    
C25   C46   A    
C7    C9    A    
C13   H21   S    
C6    C7    A    
C41   N8    S    
C36   N1    S    
C19   H23   S    
C39   H7    S    
C19   C45   A    
N3    Zn2   S    
C22   O12   S    
C5    C9    A    
C4    C17   S    
C28   C30   A    
C26   O3    S    
C28   H1    S    
C25   O4    S    
C1    O1    A    
O8    Zn1   S    
O10   Zn2   S    
C37   N2    S    
C23   C46   A    
C4    C30   A    
Br1   C31   S    
C38   N5    S    
Br2   C32   S    
Br4   N4    S    
C8    C10   A    
C41   H17   S    
C5    C8    A    
C38   H2    S    
C40   N7    S    
C10   C23   A    
Br6   C45   S    
C38   H4    S    
C1    C20   S    
C33   N5    S    
