data_mof_unit_2054.cif
_audit_creation_date              2012-12-11T16:06:41-0500
_audit_creation_method            fapswitch 2.2
_symmetry_space_group_name_H-M    P1
_symmetry_Int_Tables_number       1
_space_group_crystal_system       triclinic
_cell_length_a                    8.232674
_cell_length_b                    12.636363
_cell_length_c                    17.368344
_cell_angle_alpha                 94.215553
_cell_angle_beta                  96.070423
_cell_angle_gamma                 98.039652
_cell_volume                      1771.88838808

loop_
_atom_site_label
_atom_site_type_symbol
_atom_type_description
_atom_site_fract_x
_atom_site_fract_y
_atom_site_fract_z
_atom_type_partial_charge
Ba1   Ba    Ba6+2 0.158660 0.552610 0.463110 1.663184
Ba2   Ba    Ba6+2 0.651510 0.447380 0.536830 1.666542
C1    C     C_3   0.478055 0.995426 0.226743 -0.392577
C2    C     C_R   0.731983 0.816106 0.470162 -0.283749
C3    C     C_R   0.701926 0.996985 0.440986 -0.100462
C4    C     C_3   0.939175 0.840946 0.283919 0.396517
C5    C     C_R   0.637362 0.888139 0.437539 -0.016456
C6    C     C_R   0.888366 0.850634 0.510281 0.043768
C7    C     C_R   0.954349 0.962558 0.516617 -0.019976
C8    C     C_R   0.858966 0.037014 0.481482 -0.017353
C9    C     C_R   0.922372 0.149403 0.489840 0.088002
C10   C     C_R   0.174937 0.111968 0.561409 -0.016092
C11   C     C_R   0.112753 0.002562 0.556044 -0.065188
C12   C     C_3   0.471363 0.883879 0.256012 0.373826
C13   C     C_R   0.601296 0.542963 0.279345 -0.281830
C14   C     C_R   0.445304 0.484968 0.255188 0.095477
C15   C     C_R   0.385675 0.470447 0.175769 -0.109304
C16   C     C_3   0.919189 0.941869 0.243620 -0.382327
C17   C     C_R   0.484067 0.512704 0.120659 -0.004318
C18   C     C_R   0.644835 0.565975 0.145379 -0.066441
C19   C     C_R   0.703692 0.579392 0.224809 -0.019800
C20   C     C_R   0.414566 0.522248 0.835492 -0.112092
C21   C     C_R   0.359135 0.511833 0.755841 0.030527
C22   C     C_R   0.098420 0.412945 0.780358 -0.016990
C23   C     C_3   0.561203 0.774780 0.643933 0.252545
C24   C     C_R   0.151712 0.425303 0.860610 -0.129819
C25   C     C_R   0.312069 0.477494 0.888153 0.006192
C26   C     C_1   0.370291 0.488882 0.970383 0.003859
C27   C     C_1   0.421614 0.499292 0.038882 0.002507
C28   C     C_3   0.749323 0.316369 0.303942 0.304157
C29   C     C_R   0.204771 0.453404 0.728530 -0.278496
C30   C     C_3   0.712311 0.286957 0.216709 -0.404913
C31   C     C_3   0.057470 0.681066 0.695526 0.304901
C32   C     C_3   0.096105 0.709988 0.782763 -0.370229
C33   C     C_3   0.228763 0.229305 0.370845 0.285749
C34   C     C_3   0.574300 0.895523 0.659683 -0.296327
C35   C     C_3   0.242181 0.110435 0.364610 -0.357352
C36   C     C_2   0.434336 0.799821 0.187997 0.839934
C37   C     C_2   0.945435 0.090184 0.734165 0.787780
C38   C     C_3   0.913290 0.171591 0.795813 0.378888
C39   C     C_3   0.847868 0.114402 0.863230 -0.369462
C40   C     C_3   0.381340 0.214223 0.748405 0.414827
C41   C     C_3   0.399723 0.184980 0.831949 -0.351900
C42   C     C_R   0.076737 0.184420 0.532009 -0.234735
H1    H     H_    0.596622 0.228817 0.203673 0.123968
H2    H     H_    0.292204 0.264866 0.428484 0.046752
H3    H     H_    0.355936 0.005451 0.196659 0.109890
H4    H     H_    0.218731 0.077680 0.303094 0.132930
H5    H     H_    0.150936 0.065641 0.397190 0.049921
H6    H     H_    0.367589 0.098317 0.388438 0.125066
H7    H     H_    0.594915 0.878345 0.285175 -0.138253
H8    H     H_    0.571750 0.008309 0.185556 0.102810
H9    H     H_    0.684475 0.754527 0.633833 0.019800
H10   H     H_    0.472302 0.750028 0.590856 0.066761
H11   H     H_    0.660415 0.923550 0.713101 0.139286
H12   H     H_    0.697394 0.359284 0.186066 0.056954
H13   H     H_    0.620757 0.935195 0.609783 0.119257
H14   H     H_    0.450866 0.917510 0.667764 0.129196
H15   H     H_    0.512913 0.057753 0.276322 0.120455
H16   H     H_    0.814670 0.924531 0.196643 0.152263
H17   H     H_    0.032559 0.220401 0.819465 -0.115285
H18   H     H_    0.940513 0.067640 0.889760 0.113629
H19   H     H_    0.823129 0.174543 0.908779 0.096545
H20   H     H_    0.731512 0.059116 0.842856 0.116435
H21   H     H_    0.249236 0.219839 0.730884 -0.095120
H22   H     H_    0.457186 0.293778 0.746491 0.068477
H23   H     H_    0.815689 0.250587 0.194701 0.128137
H24   H     H_    0.336819 0.102284 0.835735 0.161248
H25   H     H_    0.344395 0.241707 0.869449 0.062070
H26   H     H_    0.041361 0.859769 0.332097 0.088147
H27   H     H_    0.532162 0.190144 0.853799 0.126256
H28   H     H_    0.626383 0.049330 0.413272 0.085105
H29   H     H_    0.190364 0.950351 0.582840 0.088777
H30   H     H_    0.125427 0.269060 0.538041 0.045574
H31   H     H_    0.679863 0.732227 0.467298 0.068156
H32   H     H_    0.534849 0.567428 0.856453 0.083785
H33   H     H_    0.724317 0.595349 0.103282 0.090786
H34   H     H_    0.164754 0.651846 0.672654 0.006613
H35   H     H_    0.068806 0.395153 0.901094 0.066297
H36   H     H_    0.264497 0.425085 0.156987 0.075529
H37   H     H_    0.647883 0.552678 0.340478 0.062447
H38   H     H_    0.823773 0.814566 0.309311 -0.085979
H39   H     H_    0.162467 0.446457 0.666966 0.060734
H40   H     H_    0.895102 0.006373 0.286021 0.070746
H41   H     H_    0.032176 0.969029 0.216620 0.128398
H42   H     H_    0.640204 0.343948 0.326177 0.014748
H43   H     H_    0.856354 0.381564 0.314905 0.063441
H44   H     H_    0.274205 0.677688 0.129686 0.308029
H45   H     H_    0.949061 0.616991 0.684724 0.074001
H46   H     H_    0.069261 0.968611 0.707184 0.323661
H47   H     H_    0.211010 0.768999 0.795385 0.142064
H48   H     H_    0.112812 0.637607 0.813097 0.061467
H49   H     H_    0.992569 0.745453 0.805418 0.138659
H50   H     H_    0.097323 0.238960 0.365668 0.016548
O1    O     O_2   0.163080 0.763400 0.536930 -0.466192
O2    O     O_2   0.770237 0.433224 0.771895 -0.489764
O3    O     O_3   0.793565 0.232027 0.765452 -0.571728
O4    O     O_3   0.893330 0.628980 0.538660 -0.493272
O5    O     O_3   0.422000 0.445190 0.409310 -0.488439
O6    O     O_2   0.648720 0.552000 0.685060 -0.454439
O7    O     O_3   0.507527 0.726331 0.708761 -0.637857
O8    O     O_2   0.516123 0.114032 0.558237 -0.456132
O9    O     O_3   0.436363 0.135975 0.699832 -0.572831
O10   O     O_3   0.379830 0.697590 0.399610 -0.456873
O11   O     O_2   0.306869 0.884461 0.451289 -0.496173
O12   O     O_3   0.299092 0.275618 0.309150 -0.640764
O13   O     O_3   0.024229 0.773174 0.660818 -0.644613
O14   O     O_3   0.345627 0.869758 0.305222 -0.590306
O15   O     O_2   0.161570 0.447940 0.314920 -0.467722
O16   O     O_3   0.953630 0.643360 0.361440 -0.492276
O17   O     O_2   0.038156 0.566449 0.225745 -0.450474
O18   O     O_2   0.532391 0.795614 0.140058 -0.658027
O19   O     O_R   0.287824 0.727327 0.179217 -0.684916
O20   O     O_2   0.876794 0.086759 0.667953 -0.615225
O21   O     O_R   0.054902 0.018595 0.753242 -0.793134
O22   O     O_3   0.976463 0.762903 0.229380 -0.534986
O23   O     O_2   0.647210 0.236530 0.463040 -0.460377
O24   O     O_3   0.916960 0.371010 0.461280 -0.501673
O25   O     O_3   0.430470 0.302400 0.600330 -0.484253
O26   O     O_3   0.784660 0.225079 0.339153 -0.652719
O27   O     O_3   0.388290 0.554800 0.590630 -0.481498
O28   O     O_3   0.856660 0.356630 0.638500 -0.445081
P1    P     P_3+3 0.990420 0.746550 0.559720 0.968408
P2    P     P_3+3 0.330880 0.415450 0.326700 0.988764
P3    P     P_3+3 0.918160 0.635871 0.259859 1.017642
P4    P     P_3+3 0.819870 0.253440 0.440220 0.969143
P5    P     P_3+3 0.884058 0.357200 0.740482 0.986435
P6    P     P_3+3 0.421360 0.837085 0.397598 0.966701
P7    P     P_3+3 0.474031 0.587050 0.687342 0.950963
P8    P     P_3+3 0.389035 0.163718 0.603447 0.995507

loop_
_geom_bond_atom_site_label_1
_geom_bond_atom_site_label_2
_ccdc_geom_bond_type
C4    H38   S    
C30   H1    S    
C17   C18   A    
C31   O13   S    
C32   H49   S    
C20   H32   S    
O3    P5    S    
C40   O9    S    
Ba1   O5    S    
Ba2   O24   S    
C13   H37   S    
C10   C11   A    
C24   C25   A    
C10   P8    S    
C18   H33   S    
C26   C27   T    
C33   C35   S    
C23   H9    S    
C3    H28   S    
C34   H14   S    
C1    H8    S    
O26   P4    S    
C31   H34   S    
C33   H50   S    
C13   C14   A    
H44   O19   S    
O25   P8    S    
C29   H39   S    
C21   P7    S    
Ba1   Ba2   S    
O28   P5    S    
C7    C11   A    
C32   H47   S    
C2    H31   S    
Ba1   O15   S    
C14   C15   A    
O17   P3    D    
C22   P5    S    
C16   H40   S    
O13   P1    S    
C5    P6    S    
C28   H42   S    
O23   P4    D    
C2    C6    A    
C12   O14   S    
Ba2   O6    S    
C41   H25   S    
C39   H18   S    
C2    C5    A    
Ba2   O23   S    
C32   H48   S    
Ba2   O28   S    
O4    P1    S    
C4    C16   S    
C16   H41   S    
C9    P4    S    
C23   H10   S    
C34   H13   S    
C38   O3    S    
C3    C5    A    
C36   O19   S    
O6    P7    D    
C6    C7    A    
O16   P3    S    
C15   H36   S    
C38   H17   S    
O2    P5    D    
C21   C29   A    
Ba1   P1    S    
C31   H45   S    
Ba1   O16   S    
C12   C36   S    
C35   H5    S    
C12   H7    S    
O10   P6    S    
Ba1   O1    S    
C37   O20   D    
C31   C32   S    
C9    C42   A    
O15   P2    D    
H46   O21   S    
O14   P6    S    
C35   H4    S    
C42   H30   S    
Ba1   O10   S    
C4    O22   S    
C1    C12   S    
C30   H23   S    
Ba2   P4    S    
C16   H16   S    
C38   C39   S    
C11   H29   S    
Ba2   O5    S    
C37   O21   S    
O22   P3    S    
C40   C41   S    
C39   H19   S    
C36   O18   D    
C17   C27   S    
C37   C38   S    
C40   H22   S    
C7    C8    A    
Ba2   O27   S    
O1    P1    D    
C4    H26   S    
C40   H21   S    
C41   H27   S    
O11   P6    D    
O8    P8    D    
O27   P7    S    
Ba1   O4    S    
Ba2   O25   S    
C6    P1    S    
C41   H24   S    
C24   H35   S    
C20   C25   A    
C14   P2    S    
C22   C29   A    
C3    C8    A    
C10   C42   A    
C33   O12   S    
C28   C30   S    
C35   H6    S    
C22   C24   A    
C23   O7    S    
C28   O26   S    
C1    H3    S    
C15   C17   A    
Ba1   O24   S    
O9    P8    S    
Ba1   O27   S    
Ba1   P2    S    
C8    C9    A    
C23   C34   S    
C13   C19   A    
C18   C19   A    
Ba2   O4    S    
O12   P2    S    
C25   C26   S    
C34   H11   S    
C20   C21   A    
O24   P4    S    
C39   H20   S    
C28   H43   S    
C33   H2    S    
C19   P3    S    
C30   H12   S    
C1    H15   S    
O5    P2    S    
O7    P7    S    
