data_mof_unit_4987.cif
_audit_creation_date              2013-03-05T16:24:18-0500
_audit_creation_method            fapswitch 2.2
_symmetry_space_group_name_H-M    P1
_symmetry_Int_Tables_number       1
_space_group_crystal_system       triclinic
_cell_length_a                    23.342009
_cell_length_b                    15.719344
_cell_length_c                    14.973899
_cell_angle_alpha                 90.984676
_cell_angle_beta                  89.884958
_cell_angle_gamma                 90.003138
_cell_volume                      5493.41660536

loop_
_atom_site_label
_atom_site_type_symbol
_atom_site_description
_atom_site_fract_x
_atom_site_fract_y
_atom_site_fract_z
_atom_type_partial_charge
O1    O     O_R   0.500000 0.376780 0.574460 -0.594743
O2    O     O_R   0.500000 0.623220 0.425540 -0.625535
O3    O     O_R   0.500010 0.376780 0.425520 -0.604468
O4    O     O_R   0.499990 0.623220 0.574480 -0.600428
C1    C     C_R   0.500204 0.337565 0.499207 0.888242
C2    C     C_R   0.499522 0.662282 0.500740 0.856046
O5    O     O_R   0.416150 0.499970 0.574490 -0.633796
O6    O     O_R   0.583850 0.500030 0.425510 -0.572580
O7    O     O_R   0.416160 0.499980 0.425550 -0.556589
O8    O     O_R   0.583840 0.500020 0.574450 -0.608203
C3    C     C_R   0.389154 0.502012 0.500057 0.955388
C4    C     C_R   0.610862 0.503363 0.499858 0.945398
Zn1   Zn    Zn3+2 0.499990 0.500000 0.599450 1.030264
Zn2   Zn    Zn3+2 0.500010 0.500000 0.400550 1.050809
C5    C     C_R   0.879949 0.606267 0.553994 0.598159
C6    C     C_R   0.118654 0.480455 0.448263 0.622801
N1    N     N_R   0.850968 0.553605 0.496866 -0.332745
N2    N     N_R   0.148021 0.537316 0.500101 -0.308627
C7    C     C_R   0.878080 0.500349 0.437910 0.598070
C8    C     C_R   0.121448 0.598826 0.549966 0.631626
C9    C     C_R   0.938174 0.495183 0.437013 -0.175514
C10   C     C_R   0.061230 0.602846 0.552677 -0.174326
C11   C     C_R   0.969414 0.550527 0.494739 -0.068979
C12   C     C_R   0.029831 0.546979 0.495716 -0.067381
C13   C     C_R   0.940205 0.608803 0.552093 -0.178405
C14   C     C_R   0.058896 0.486940 0.440313 -0.177839
C15   C     C_R   0.967705 0.437148 0.380065 0.229111
C16   C     C_R   0.031790 0.661627 0.608814 0.226557
C17   C     C_R   0.027570 0.433981 0.380740 0.224732
C18   C     C_R   0.971855 0.665561 0.607416 0.231048
O9    O     O_2   0.849951 0.655030 0.612485 -0.470861
O10   O     O_2   0.147680 0.417207 0.406244 -0.499792
O11   O     O_2   0.846282 0.452145 0.381444 -0.473085
O12   O     O_2   0.153736 0.655671 0.595833 -0.513098
C19   C     C_R   0.235541 0.487215 0.570482 0.484617
C20   C     C_R   0.764698 0.502410 0.569931 0.512396
C21   C     C_R   0.294852 0.476239 0.568123 -0.395491
C22   C     C_R   0.705724 0.489127 0.569603 -0.363389
H1    H     H_    0.315468 0.438119 0.618370 0.202312
H2    H     H_    0.686357 0.452755 0.622571 0.212548
C23   C     C_R   0.327303 0.512851 0.500164 -0.251799
C24   C     C_R   0.672326 0.519817 0.499771 -0.293914
C25   C     C_R   0.300691 0.562744 0.434697 0.339426
C26   C     C_R   0.697444 0.570121 0.432814 0.399282
C27   C     C_R   0.240812 0.569089 0.433606 0.345552
C28   C     C_R   0.756421 0.585336 0.433952 0.391001
C29   C     C_R   0.208903 0.531854 0.501947 0.077440
C30   C     C_R   0.790003 0.550008 0.501998 -0.009261
C31   C     C_3   0.546626 0.973373 0.545435 0.266908
C32   C     C_3   0.455054 0.025459 0.451781 0.274706
C33   C     C_3   0.549735 0.024140 0.458569 0.272525
C34   C     C_3   0.451997 0.974736 0.538649 0.265883
C35   C     C_1   0.500971 0.248731 0.497113 -0.132875
C36   C     C_1   0.499452 0.750835 0.502369 -0.176515
C37   C     C_3   0.498450 0.030683 0.582763 0.270793
C38   C     C_3   0.503248 0.968102 0.414532 0.258584
C39   C     C_3   0.501542 0.082730 0.495823 -0.166852
C40   C     C_3   0.500154 0.916368 0.501468 -0.157638
C41   C     C_1   0.501513 0.173495 0.495572 0.172039
C42   C     C_1   0.499621 0.825896 0.502811 0.150462
C43   C     C_3   0.501790 0.421453 0.969104 0.278952
C44   C     C_3   0.497801 0.579756 0.031069 0.286562
C45   C     C_3   0.548323 0.462154 0.030305 -0.355553
C46   C     C_3   0.451280 0.539060 0.969801 -0.373710
H3    H     H_    0.588190 0.430591 0.052753 0.218837
H4    H     H_    0.411410 0.570627 0.947372 0.204939
N3    N     N_1   0.500020 0.500000 0.268010 -0.080998
N4    N     N_1   0.499980 0.500000 0.731990 -0.081343
C47   C     C_3   0.454434 0.458986 0.028955 0.272068
C48   C     C_3   0.545169 0.542247 0.971191 0.267754
C49   C     C_3   0.499826 0.500563 0.090618 -0.179346
C50   C     C_3   0.499792 0.500620 0.909489 -0.177495
C51   C     C_1   0.499935 0.500286 0.190167 0.311482
C52   C     C_1   0.499892 0.500301 0.809871 0.300821
N5    N     N_R   0.937616 0.380224 0.320874 0.274954
O13   O     O_R   0.915791 0.310332 0.351494 -0.303426
O14   O     O_R   0.939418 0.391825 0.235108 -0.280097
N6    N     N_R   0.062013 0.717032 0.669464 0.271956
O15   O     O_R   0.083568 0.686766 0.742422 -0.319361
O16   O     O_R   0.061247 0.798870 0.657987 -0.288858
N7    N     N_R   0.502946 0.332960 0.938491 0.238758
O17   O     O_R   0.504425 0.272331 0.996430 -0.352369
O18   O     O_R   0.502674 0.313997 0.853629 -0.376733
N8    N     N_R   0.496538 0.668199 0.061860 0.237042
O19   O     O_R   0.495409 0.728950 0.004044 -0.358180
O20   O     O_R   0.495812 0.686973 0.146760 -0.418634
N9    N     N_R   0.595296 0.590089 0.942941 0.246387
O21   O     O_R   0.629930 0.622182 0.002497 -0.315954
O22   O     O_R   0.605844 0.600788 0.858582 -0.355281
N10   N     N_R   0.404271 0.411277 0.057311 0.241385
O23   O     O_R   0.369535 0.379303 0.997834 -0.341119
O24   O     O_R   0.393610 0.401001 0.141702 -0.359703
N11   N     N_R   0.055932 0.378049 0.318142 0.272987
O25   O     O_R   0.048872 0.296145 0.322779 -0.275782
O26   O     O_R   0.083539 0.409458 0.250710 -0.329430
N12   N     N_R   0.943868 0.728747 0.662231 0.274141
O27   O     O_R   0.947025 0.725088 0.748813 -0.273364
O28   O     O_R   0.921504 0.795441 0.625625 -0.314018
O29   O     O_3   0.202145 0.448928 0.634847 -0.586409
C53   C     C_3   0.214373 0.485520 0.719514 0.084301
H5    H     H_    0.217785 0.556276 0.717054 0.180672
H6    H     H_    0.254940 0.458983 0.746140 0.157972
C54   C     C_3   0.166072 0.464200 0.783641 -0.661256
H7    H     H_    0.161918 0.394116 0.789346 0.260956
H8    H     H_    0.175255 0.492149 0.850709 0.219110
H9    H     H_    0.125040 0.490699 0.758923 0.266711
O30   O     O_3   0.798269 0.470220 0.637376 -0.560084
C55   C     C_3   0.806752 0.382346 0.621297 0.071248
H10   H     H_    0.820788 0.368852 0.551204 0.169898
H11   H     H_    0.766671 0.346482 0.635062 0.152975
C56   C     C_3   0.853402 0.350720 0.683179 -0.689904
H12   H     H_    0.840633 0.361788 0.753920 0.273302
H13   H     H_    0.860336 0.281518 0.671568 0.215888
H14   H     H_    0.894097 0.384999 0.669983 0.256589
O31   O     O_3   0.332831 0.603674 0.370646 -0.586163
C57   C     C_3   0.346068 0.686368 0.402680 0.103648
H15   H     H_    0.371608 0.683778 0.465352 0.121744
H16   H     H_    0.306347 0.724020 0.415419 0.173920
C58   C     C_3   0.381466 0.732097 0.332832 -0.707702
H17   H     H_    0.355920 0.739972 0.271034 0.252339
H18   H     H_    0.394330 0.795816 0.358873 0.196781
H19   H     H_    0.420663 0.694936 0.316488 0.290442
O32   O     O_3   0.665004 0.602404 0.363944 -0.538226
C59   C     C_3   0.643884 0.683202 0.390523 0.088730
H20   H     H_    0.679415 0.728266 0.405677 0.126801
H21   H     H_    0.616151 0.678480 0.450713 0.119844
C60   C     C_3   0.608486 0.719668 0.315054 -0.657706
H22   H     H_    0.573521 0.674985 0.296315 0.286485
H23   H     H_    0.589348 0.781304 0.336757 0.204235
H24   H     H_    0.636097 0.730167 0.255772 0.261321
O33   O     O_3   0.212792 0.617008 0.370441 -0.605894
C61   C     C_3   0.214970 0.574706 0.286421 0.140858
H25   H     H_    0.211704 0.504133 0.291606 0.192188
H26   H     H_    0.255478 0.590745 0.251434 0.199962
C62   C     C_3   0.165070 0.604635 0.229895 -0.704355
H27   H     H_    0.167782 0.674462 0.220562 0.255082
H28   H     H_    0.166277 0.572217 0.163439 0.231782
H29   H     H_    0.123901 0.589326 0.263344 0.268173
O34   O     O_3   0.780916 0.627832 0.363072 -0.541296
C63   C     C_3   0.803216 0.707214 0.392361 0.111062
H30   H     H_    0.849289 0.700141 0.408800 0.169874
H31   H     H_    0.780350 0.734693 0.451775 0.126923
C64   C     C_3   0.798497 0.770442 0.316930 -0.733472
H32   H     H_    0.752917 0.779205 0.298099 0.243804
H33   H     H_    0.816397 0.832848 0.338765 0.214115
H34   H     H_    0.822810 0.746858 0.257669 0.283211
O35   O     O_3   0.599155 0.056970 0.416845 -0.604358
C65   C     C_3   0.637267 0.989909 0.394641 0.083537
H35   H     H_    0.615493 0.936229 0.359297 0.165867
H36   H     H_    0.658072 0.964986 0.455301 0.179964
C66   C     C_3   0.684033 0.023230 0.333705 -0.773995
H37   H     H_    0.707854 0.075472 0.367986 0.272890
H38   H     H_    0.714426 0.971124 0.316322 0.211815
H39   H     H_    0.664885 0.047591 0.271311 0.262004
O36   O     O_3   0.402850 0.940861 0.580143 -0.617456
C67   C     C_3   0.364239 0.007049 0.602847 0.091226
H40   H     H_    0.343452 0.032346 0.542331 0.187880
H41   H     H_    0.385568 0.060676 0.639043 0.183074
C68   C     C_3   0.317560 0.972039 0.662893 -0.760195
H42   H     H_    0.336721 0.947197 0.725066 0.255940
H43   H     H_    0.286652 0.023289 0.680787 0.229808
H44   H     H_    0.294317 0.919769 0.627665 0.269923
O37   O     O_3   0.592956 0.937991 0.592602 -0.612687
C69   C     C_3   0.626969 0.003549 0.630563 0.089955
H45   H     H_    0.604887 0.033884 0.688471 0.187607
H46   H     H_    0.637603 0.053754 0.581746 0.176336
C70   C     C_3   0.682782 0.965567 0.663650 -0.756367
H47   H     H_    0.706530 0.935422 0.607085 0.252068
H48   H     H_    0.709841 0.016360 0.694124 0.221955
H49   H     H_    0.673744 0.916830 0.714635 0.279456
O38   O     O_3   0.408584 0.060121 0.404328 -0.601277
C71   C     C_3   0.374856 0.993947 0.366841 0.077277
H50   H     H_    0.363898 0.944542 0.416344 0.167645
H51   H     H_    0.397289 0.962712 0.309790 0.182575
C72   C     C_3   0.319240 0.031200 0.332185 -0.744972
H52   H     H_    0.328559 0.079183 0.280538 0.277228
H53   H     H_    0.292487 0.979838 0.302095 0.216713
H54   H     H_    0.295061 0.062047 0.387881 0.261132
O39   O     O_3   0.505057 0.926443 0.330258 -0.622305
C73   C     C_3   0.511438 0.986580 0.261965 0.078553
H55   H     H_    0.555196 0.014005 0.262434 0.188762
H56   H     H_    0.479991 0.039519 0.268311 0.187624
C74   C     C_3   0.502318 0.942183 0.172073 -0.711481
H57   H     H_    0.458499 0.914776 0.168711 0.261317
H58   H     H_    0.507528 0.988507 0.117483 0.217543
H59   H     H_    0.534161 0.890244 0.162737 0.285400
O40   O     O_3   0.496639 0.071268 0.667629 -0.602554
C75   C     C_3   0.490337 0.010125 0.735040 0.084352
H60   H     H_    0.521304 0.956707 0.727278 0.183823
H61   H     H_    0.446378 0.983435 0.734888 0.185184
C76   C     C_3   0.500434 0.052789 0.825581 -0.701302
H62   H     H_    0.469067 0.105097 0.836524 0.289534
H63   H     H_    0.495235 0.005570 0.879325 0.213772
H64   H     H_    0.544489 0.079340 0.828751 0.260464

loop_
_geom_bond_atom_site_label_1
_geom_bond_atom_site_label_2
_geom_bond_distance
_ccdc_geom_bond_type
C64   H34   1.110673 S    
C22   H2    1.083726 S    
O38   C71   1.413703 S    
C45   H3    1.110027 S    
N5    O13   1.301185 A    
N11   O25   1.300996 A    
C62   H29   1.111042 S    
O35   C65   1.414230 S    
C67   C68   1.520350 S    
C63   C64   1.521453 S    
N9    O21   1.300283 A    
C19   C29   1.399833 A    
N2    C29   1.424049 S    
C76   H63   1.110583 S    
N7    O17   1.300275 A    
C35   C41   1.182557 T    
O32   C59   1.412980 S    
C72   H53   1.110573 S    
C36   C42   1.179826 T    
C57   H15   1.114139 S    
C34   O36   1.412120 S    
O5    C3    1.282338 A    
C75   C76   1.520990 S    
O1    C1    1.275100 A    
C1    C35   1.396339 S    
C69   H45   1.108589 S    
C19   C21   1.395437 A    
N8    O20   1.300215 A    
C22   C24   1.398056 A    
C74   H58   1.110530 S    
C71   H50   1.112215 S    
N6    O16   1.300920 A    
C39   C41   1.426827 S    
C15   C17   1.398329 A    
C40   C42   1.422710 S    
C64   H32   1.110398 S    
C64   H33   1.110539 S    
C55   H10   1.115757 S    
C44   C48   1.533616 S    
C43   C45   1.553299 S    
C33   C38   1.539822 S    
C66   H39   1.110547 S    
O4    Zn1   1.978994 S    
C47   C49   1.544477 S    
C6    O10   1.349171 S    
C44   C46   1.553625 S    
O5    Zn1   1.993100 S    
C25   O31   1.383799 S    
C54   H8    1.110498 S    
C68   H42   1.110598 S    
C75   H61   1.108525 S    
C26   C28   1.397328 A    
C61   H25   1.115999 S    
C31   C33   1.539249 S    
N12   O28   1.301167 A    
C18   N12   1.434192 S    
Zn2   N3    1.984639 S    
N1    C30   1.426134 S    
C20   C30   1.402543 A    
C32   O38   1.412368 S    
N3    C51   1.165703 T    
C37   O40   1.412653 S    
C38   C40   1.548270 S    
C70   H49   1.110734 S    
C16   N6    1.433987 S    
C73   C74   1.520862 S    
O7    C3    1.280258 A    
C8    O12   1.348739 S    
C15   N5    1.433430 S    
C46   C50   1.562101 S    
C9    C15   1.416163 A    
C66   H37   1.110693 S    
N11   O26   1.301170 A    
C10   C16   1.415517 A    
C20   O30   1.382315 S    
C23   C25   1.410970 A    
O2    C2    1.273299 A    
C24   C26   1.413893 A    
C2    C36   1.391781 S    
C19   O29   1.384082 S    
C48   N9    1.456842 S    
N7    O18   1.300244 A    
C71   H51   1.108545 S    
C72   H54   1.110590 S    
C27   C29   1.400738 A    
C9    C11   1.418570 A    
C6    C14   1.404035 A    
C34   C40   1.547691 S    
O34   C63   1.415073 S    
C28   C30   1.408462 A    
C4    C24   1.457798 S    
C76   H62   1.110840 S    
C57   C58   1.521718 S    
C62   H27   1.110654 S    
C65   C66   1.520165 S    
N8    O19   1.300247 A    
C50   C52   1.491597 S    
C7    O11   1.349223 S    
C74   H59   1.110996 S    
C70   H47   1.110661 S    
C49   C51   1.490723 S    
N6    O15   1.301182 A    
C31   C37   1.539102 S    
C53   C54   1.520588 S    
C32   C38   1.539432 S    
C31   C40   1.547770 S    
C70   H48   1.110495 S    
C75   H60   1.112410 S    
C46   H4    1.110038 S    
C54   H9    1.111125 S    
O7    Zn2   1.991966 S    
C60   H23   1.110181 S    
C74   H57   1.110722 S    
C25   C27   1.401399 A    
N10   O24   1.300229 A    
C72   H52   1.110715 S    
C45   C48   1.553274 S    
C33   O35   1.412612 S    
O6    C4    1.280825 A    
N12   O27   1.300968 A    
C53   H6    1.112143 S    
C68   H44   1.110814 S    
C56   H13   1.110479 S    
C55   C56   1.520344 S    
C46   C47   1.553368 S    
C63   H30   1.109736 S    
N5    O14   1.300832 A    
C58   H18   1.110154 S    
O8    C4    1.283480 A    
C59   C60   1.521317 S    
C33   C39   1.550746 S    
C43   C50   1.544683 S    
O4    C2    1.272685 A    
C45   C49   1.561680 S    
C27   O33   1.384479 S    
C37   C39   1.550982 S    
C10   C12   1.418651 A    
O1    Zn1   1.966430 S    
C8    C10   1.407498 A    
O30   C55   1.411966 S    
C47   N10   1.456909 S    
O36   C67   1.413178 S    
C73   H55   1.108611 S    
C71   C72   1.520109 S    
C59   H21   1.112113 S    
C58   H19   1.110166 S    
C43   C47   1.533314 S    
C13   C18   1.415990 A    
C62   H28   1.110481 S    
C44   N8    1.457468 S    
C67   H40   1.108534 S    
O6    Zn2   1.993102 S    
C73   H56   1.112387 S    
C56   H12   1.110655 S    
C7    C9    1.405096 A    
C32   C39   1.550896 S    
C69   C70   1.520544 S    
C12   C14   1.417791 A    
C65   H36   1.108323 S    
O3    C1    1.273128 A    
O8    Zn1   1.991966 S    
C58   H17   1.110554 S    
C34   C37   1.538919 S    
C5    O9    1.348889 S    
C63   H31   1.117080 S    
O3    Zn2   1.978996 S    
C32   C34   1.538857 S    
C26   O32   1.384035 S    
O29   C53   1.412797 S    
C6    N2    1.359975 A    
C69   H46   1.112586 S    
C68   H43   1.110493 S    
C60   H24   1.110565 S    
C16   C18   1.400576 A    
C21   H1    1.083384 S    
C43   N7    1.457367 S    
C20   C22   1.392296 A    
C17   N11   1.434968 S    
N10   O23   1.300248 A    
C55   H11   1.112987 S    
C61   C62   1.520556 S    
C67   H41   1.112455 S    
C53   H5    1.116317 S    
N1    C7    1.361268 A    
C57   H16   1.114368 S    
C44   C49   1.544460 S    
C3    C23   1.453750 S    
C56   H14   1.111111 S    
N2    C8    1.360342 A    
C65   H35   1.111807 S    
C66   H38   1.110807 S    
C21   C23   1.399103 A    
O33   C61   1.413702 S    
O2    Zn2   1.966428 S    
C31   O37   1.412187 S    
O37   C69   1.413168 S    
C5    C13   1.407303 A    
C11   C12   1.411472 A    
O39   C73   1.412147 S    
O40   C75   1.413161 S    
C11   C13   1.418535 A    
C14   C17   1.414372 A    
C61   H26   1.111130 S    
C54   H7    1.110662 S    
N9    O22   1.300221 A    
C59   H20   1.111889 S    
C48   C50   1.544918 S    
O31   C57   1.412241 S    
C5    N1    1.361098 A    
N4    C52   1.166104 T    
Zn1   N4    1.984640 S    
C76   H64   1.110590 S    
C60   H22   1.110068 S    
C28   O34   1.386179 S    
C38   O39   1.412231 S    
