data_mof_unit_1929.cif
_audit_creation_date              2012-12-10T17:13:37-0500
_audit_creation_method            fapswitch 2.2
_symmetry_space_group_name_H-M    P1
_symmetry_Int_Tables_number       1
_space_group_crystal_system       triclinic
_cell_length_a                    10.909109
_cell_length_b                    13.077489
_cell_length_c                    11.647891
_cell_angle_alpha                 100.171263
_cell_angle_beta                  94.322069
_cell_angle_gamma                 90.177476
_cell_volume                      1630.73730211

loop_
_atom_site_label
_atom_site_type_symbol
_atom_type_description
_atom_site_fract_x
_atom_site_fract_y
_atom_site_fract_z
_atom_type_partial_charge
C1    C     C_R   0.506368 0.298552 0.478114 0.943967
C2    C     C_3   0.877458 0.497816 0.503634 -0.109615
C3    C     C_3   0.928782 0.614215 0.516350 -0.132067
C4    C     C_3   0.914726 0.434138 0.382303 -0.324020
C5    C     C_R   0.517542 0.812241 0.534117 -0.057710
C6    C     C_R   0.518364 0.183497 0.463950 -0.141906
C7    C     C_R   0.456858 0.013553 0.350104 -0.069024
C8    C     C_R   0.481778 0.119435 0.354762 -0.053543
C9    C     C_R   0.559196 0.135925 0.560858 -0.082923
C10   C     C_R   0.557673 0.026242 0.548694 0.075525
C11   C     C_R   0.494584 0.966947 0.447101 0.107109
C12   C     C_R   0.259822 0.496445 0.499423 0.900832
C13   C     C_R   0.477060 0.860285 0.441501 -0.175414
C14   C     C_R   0.584999 0.868140 0.631129 -0.252248
C15   C     C_R   0.613346 0.972647 0.635857 0.004680
C16   C     C_R   0.402468 0.385931 0.019689 -0.151350
C17   C     C_R   0.411118 0.400130 0.142967 0.164496
C18   C     C_R   0.537007 0.549988 0.158089 0.038323
C19   C     C_R   0.531908 0.540246 0.034854 0.051313
C20   C     C_R   0.464258 0.457255 0.963900 -0.037230
C21   C     C_R   0.463738 0.448104 0.840237 0.033542
C22   C     C_R   0.587807 0.599852 0.858907 0.159494
C23   C     C_R   0.503865 0.700431 0.521630 0.791346
C24   C     C_R   0.593944 0.611304 0.981367 -0.272380
C25   C     C_R   0.739768 0.497999 0.500726 0.787550
C26   C     C_3   0.081680 0.442348 0.609173 -0.190749
C27   C     C_3   0.936446 0.439634 0.603161 -0.223267
C28   C     C_3   0.074652 0.610084 0.517602 -0.220256
C29   C     C_3   0.059041 0.426923 0.378511 -0.125974
C30   C     C_3   0.121736 0.493259 0.498944 -0.184099
Cu1   Cu    Cu3+1 0.509350 0.507730 0.615930 1.006119
Cu2   Cu    Cu3+1 0.490650 0.492270 0.384070 1.036630
H1    H     H_    0.878807 0.479754 0.315550 0.159624
H2    H     H_    0.433694 0.812438 0.364051 0.182177
H3    H     H_    0.625392 0.827823 0.698211 0.138349
H4    H     H_    0.415626 0.384433 0.783155 0.189256
H5    H     H_    0.634702 0.655828 0.818847 0.136740
H6    H     H_    0.646372 0.675739 0.033893 0.158865
H7    H     H_    0.364115 0.346596 0.186066 0.190209
H8    H     H_    0.590402 0.612586 0.212771 0.131361
H9    H     H_    0.904567 0.359005 0.569951 0.216999
H10   H     H_    0.113373 0.641989 0.606397 0.201179
N1    N     N_R   0.523430 0.519360 0.790130 -0.194162
N2    N     N_R   0.476570 0.480640 0.209880 -0.202122
O1    O     O_R   0.506640 0.354460 0.582000 -0.573959
O2    O     O_R   0.490840 0.341410 0.386200 -0.543584
O3    O     O_R   0.325590 0.506510 0.597900 -0.597223
O4    O     O_R   0.309790 0.493450 0.402100 -0.511284
O5    O     O_R   0.509160 0.658590 0.613800 -0.602217
O6    O     O_R   0.493360 0.645540 0.418000 -0.595427
O7    O     O_R   0.690210 0.506550 0.597900 -0.584983
O8    O     O_R   0.674410 0.493490 0.402100 -0.585711
C31   C     C_2   0.137186 0.502297 0.728601 0.415162
H11   H     H_    0.218117 0.473575 0.771434 0.140436
O9    O     O_2   0.095129 0.583120 0.778312 -0.484177
C32   C     C_2   0.132942 0.691065 0.457033 0.880690
O10   O     O_2   0.112161 0.782981 0.490732 -0.487640
O11   O     O_R   0.210516 0.664447 0.366941 -0.760982
H12   H     H_    0.237767 0.726640 0.333818 0.366342
C33   C     C_2   0.865504 0.665532 0.418788 0.352875
H13   H     H_    0.771772 0.692348 0.426775 0.051850
O12   O     O_2   0.913769 0.675285 0.330156 -0.536644
C34   C     C_2   0.395066 0.952349 0.240829 0.333962
H14   H     H_    0.431498 0.954302 0.157056 0.094393
O13   O     O_2   0.299584 0.904120 0.243327 -0.500074
C35   C     C_2   0.714841 0.015401 0.723066 0.437121
H15   H     H_    0.720353 0.994914 0.809636 0.085692
O14   O     O_2   0.797843 0.067255 0.696259 -0.446080
C36   C     C_2   0.466172 0.160518 0.243898 0.417955
H16   H     H_    0.378651 0.151038 0.192165 0.125231
O15   O     O_2   0.553401 0.199727 0.206880 -0.508400
C37   C     C_2   0.594743 0.199644 0.677221 0.893892
O16   O     O_2   0.680924 0.261443 0.688894 -0.511599
O17   O     O_R   0.531744 0.186308 0.773805 -0.769279
H17   H     H_    0.566940 0.231639 0.848834 0.332203
C38   C     C_2   0.130698 0.331179 0.608678 0.783737
O18   O     O_2   0.063296 0.260309 0.623374 -0.514356
O19   O     O_R   0.255218 0.310804 0.597351 -0.758770
H18   H     H_    0.276283 0.235761 0.600127 0.347601
C39   C     C_2   0.328367 0.296174 0.954553 0.888919
O20   O     O_2   0.339106 0.211188 0.983908 -0.561961
O21   O     O_R   0.242399 0.309008 0.863532 -0.760132
H19   H     H_    0.196166 0.242103 0.828334 0.382866
C40   C     C_2   0.887107 0.455904 0.724832 0.980614
O22   O     O_2   0.853696 0.540822 0.772692 -0.570122
O23   O     O_R   0.889642 0.372919 0.785920 -0.664987
H20   H     H_    0.857829 0.392248 0.866368 0.344408
C41   C     C_2   0.889340 0.683370 0.627131 0.469744
H21   H     H_    0.794333 0.681921 0.648233 0.050079
O24   O     O_2   0.958888 0.746979 0.689316 -0.449156
C42   C     C_2   0.088850 0.469391 0.268713 0.470526
H22   H     H_    0.060942 0.546214 0.257960 0.166307
O25   O     O_2   0.135436 0.416299 0.186759 -0.526342
C43   C     C_2   0.103287 0.313847 0.363495 0.431782
H23   H     H_    0.046132 0.251869 0.382303 0.112196
O26   O     O_2   0.207396 0.291405 0.337212 -0.537423
C44   C     C_2   0.846438 0.330950 0.335705 0.382520
H24   H     H_    0.853737 0.294949 0.245126 0.113204
O27   O     O_2   0.784163 0.287486 0.396079 -0.515423

loop_
_geom_bond_atom_site_label_1
_geom_bond_atom_site_label_2
_ccdc_geom_bond_type
C35   O14   D    
C34   O13   D    
C11   C13   A    
C19   C20   A    
C9    C37   S    
C29   C42   S    
C12   O4    A    
C6    C9    A    
C44   H24   S    
C28   C32   S    
C7    C8    A    
C21   H4    S    
C31   H11   S    
C7    C11   A    
C26   C27   S    
Cu1   N1    S    
C38   O19   S    
C3    C28   S    
C40   O23   S    
C10   C15   A    
C29   C43   S    
C1    O2    A    
C23   O5    A    
C32   O10   D    
C33   O12   D    
C18   C19   A    
C17   H7    S    
C36   O15   D    
C18   H8    S    
Cu2   O8    S    
C21   N1    A    
Cu1   Cu2   S    
C16   C17   A    
C26   C38   S    
C2    C27   S    
C9    C10   A    
C5    C13   A    
C4    C29   S    
C3    C33   S    
C35   H15   S    
Cu1   O3    S    
C4    C44   S    
Cu2   O4    S    
C43   H23   S    
Cu1   O5    S    
C12   O3    A    
C44   O27   D    
C31   O9    D    
Cu2   N2    S    
O17   H17   S    
C1    C6    S    
C40   O22   D    
C37   O17   S    
C14   H3    S    
O23   H20   S    
C37   O16   D    
C23   O6    A    
C6    C8    A    
O11   H12   S    
C22   H5    S    
C33   H13   S    
C16   C39   S    
C2    C4    S    
C25   O7    A    
C29   C30   S    
C18   N2    A    
C42   O25   D    
C27   H9    S    
C24   H6    S    
C22   N1    A    
C5    C23   S    
C16   C20   A    
Cu2   O6    S    
C20   C21   A    
C8    C36   S    
C38   O18   D    
C43   O26   D    
C7    C34   S    
C5    C14   A    
C39   O21   S    
C41   O24   D    
C26   C30   S    
C22   C24   A    
C26   C31   S    
C42   H22   S    
C4    H1    S    
C27   C40   S    
C12   C30   S    
C3    C41   S    
O19   H18   S    
Cu2   O2    S    
Cu1   O7    S    
C39   O20   D    
C28   C30   S    
C2    C3    S    
C17   N2    A    
C13   H2    S    
C15   C35   S    
C1    O1    A    
C28   H10   S    
C32   O11   S    
C19   C24   A    
C2    C25   S    
C36   H16   S    
C25   O8    A    
C10   C11   A    
C34   H14   S    
C41   H21   S    
O21   H19   S    
Cu1   O1    S    
C14   C15   A    
