data_mof_unit_4243.cif
_audit_creation_date              2012-12-10T18:42:33-0500
_audit_creation_method            fapswitch 2.2
_symmetry_space_group_name_H-M    P1
_symmetry_Int_Tables_number       1
_space_group_crystal_system       triclinic
_cell_length_a                    8.592164
_cell_length_b                    10.747494
_cell_length_c                    9.842241
_cell_angle_alpha                 89.097879
_cell_angle_beta                  98.66496
_cell_angle_gamma                 90.224504
_cell_volume                      898.388007435

loop_
_atom_site_label
_atom_site_type_symbol
_atom_type_description
_atom_site_fract_x
_atom_site_fract_y
_atom_site_fract_z
_atom_type_partial_charge
C1    C     C_R   0.499483 0.259945 0.501301 0.895089
C2    C     C_R   0.445166 0.059466 0.610398 0.217854
C3    C     C_R   0.498848 0.872494 0.495697 -0.095262
C4    C     C_R   0.501135 0.127506 0.504296 -0.095262
C5    C     C_R   0.613096 0.563089 0.085686 -0.074115
C6    C     C_R   0.386903 0.436912 0.914314 -0.074119
C7    C     C_R   0.612909 0.563232 0.941801 -0.088362
C8    C     C_R   0.387091 0.436768 0.058199 -0.088358
C9    C     C_3   0.498140 0.879088 0.153500 -0.758691
C10   C     C_3   0.501707 0.120888 0.846500 -0.758718
C11   C     C_R   0.500512 0.740055 0.498697 0.895081
C12   C     C_R   0.201069 0.499989 0.464048 0.965463
C13   C     C_R   0.798931 0.500011 0.535952 0.965468
C14   C     C_2   0.035953 0.500108 0.444689 -0.386921
C15   C     C_2   0.964047 0.499892 0.555311 -0.386920
C16   C     C_R   0.557138 0.068229 0.396205 -0.310998
C17   C     C_R   0.442841 0.931771 0.603786 -0.310985
C18   C     C_R   0.554800 0.940535 0.389585 0.217854
H1    H     H_    0.974017 0.500421 0.339764 0.174820
H2    H     H_    0.465596 0.975178 0.116903 0.222612
H3    H     H_    0.390361 0.828142 0.171986 0.260983
H4    H     H_    0.549644 0.830746 0.071959 0.224089
H5    H     H_    0.281223 0.082640 0.740272 0.212140
H6    H     H_    0.534203 0.024790 0.883098 0.222616
H7    H     H_    0.450161 0.169232 0.928016 0.224083
H8    H     H_    0.609518 0.171818 0.828071 0.260987
H9    H     H_    0.025983 0.499578 0.660236 0.174821
H10   H     H_    0.602301 0.120949 0.315671 0.174178
H11   H     H_    0.397675 0.879051 0.684318 0.174178
H12   H     H_    0.703347 0.613799 0.151103 0.138033
H13   H     H_    0.296651 0.386203 0.848897 0.138035
H14   H     H_    0.703013 0.614037 0.898301 0.128825
H15   H     H_    0.296986 0.385963 0.101699 0.128822
H16   H     H_    0.718661 0.917382 0.259628 0.212135
N1    N     N_R   0.499960 0.499970 0.857200 -0.076312
N2    N     N_R   0.500040 0.500030 0.142800 -0.076312
N3    N     N_2   0.611782 0.882109 0.277971 -0.289776
N4    N     N_2   0.388132 0.117896 0.721985 -0.289781
O1    O     O_R   0.499990 0.316750 0.614620 -0.592794
O2    O     O_R   0.500010 0.683250 0.385380 -0.592796
O3    O     O_R   0.499990 0.316780 0.385290 -0.633157
O4    O     O_R   0.500010 0.683220 0.614710 -0.633156
O5    O     O_R   0.271750 0.499990 0.587840 -0.618008
O6    O     O_R   0.728250 0.500010 0.412160 -0.618008
O7    O     O_R   0.271750 0.500010 0.358510 -0.633563
O8    O     O_R   0.728250 0.499990 0.641490 -0.633560
Zn1   Zn    Zn3+2 0.500000 0.499980 0.653120 0.943886
Zn2   Zn    Zn3+2 0.500000 0.500020 0.346880 0.943882

loop_
_geom_bond_atom_site_label_1
_geom_bond_atom_site_label_2
_ccdc_geom_bond_type
C4    C16   A    
C2    C4    A    
C16   H10   S    
C12   O5    A    
H5    N4    S    
C17   H11   S    
C2    N4    S    
C9    H2    S    
C15   H9    S    
C10   N4    S    
C1    C4    S    
N1    Zn1   S    
C10   H8    S    
C9    N3    S    
C6    H13   S    
C2    C17   A    
C9    H3    S    
C13   O8    A    
C7    N1    A    
C11   O4    A    
C10   H7    S    
O1    Zn1   S    
O4    Zn1   S    
C18   N3    S    
C12   C14   S    
C3    C17   A    
N2    Zn2   S    
C8    H15   S    
C13   C15   S    
C11   O2    A    
C9    H4    S    
C3    C11   S    
C1    O1    A    
H16   N3    S    
C5    N2    A    
C6    N1    A    
C3    C18   A    
C16   C18   A    
C5    H12   S    
C8    N2    A    
O7    Zn2   S    
C1    O3    A    
C5    C7    A    
O2    Zn2   S    
C14   C15   D    
C6    C8    A    
C7    H14   S    
C10   H6    S    
O8    Zn1   S    
O5    Zn1   S    
C14   H1    S    
O3    Zn2   S    
C13   O6    A    
O6    Zn2   S    
C12   O7    A    
