data_mof_unit_4187.cif
_audit_creation_date              2012-12-10T17:11:00-0500
_audit_creation_method            fapswitch 2.2
_symmetry_space_group_name_H-M    P1
_symmetry_Int_Tables_number       1
_space_group_crystal_system       triclinic
_cell_length_a                    11.732914
_cell_length_b                    13.043943
_cell_length_c                    13.701341
_cell_angle_alpha                 97.151927
_cell_angle_beta                  77.715262
_cell_angle_gamma                 100.838837
_cell_volume                      2004.52019298

loop_
_atom_site_label
_atom_site_type_symbol
_atom_type_description
_atom_site_fract_x
_atom_site_fract_y
_atom_site_fract_z
_atom_type_partial_charge
C1    C     C_R   0.521960 0.700948 0.500073 0.814367
C2    C     C_R   0.454485 0.482633 0.970300 0.052660
C3    C     C_R   0.493238 0.481326 0.864731 0.024141
C4    C     C_R   0.540258 0.513069 0.034377 0.002825
C5    C     C_R   0.662611 0.539273 0.990768 0.042486
C6    C     C_R   0.692694 0.548740 0.887528 -0.130237
C7    C     C_R   0.616417 0.495539 0.827056 -0.095208
C8    C     C_R   0.509306 0.525289 0.140113 -0.064047
C9    C     C_R   0.714971 0.540034 0.153049 -0.270913
C10   C     C_R   0.407579 0.465751 0.801150 -0.118351
C11   C     C_R   0.465761 0.185137 0.498125 -0.045146
C12   C     C_R   0.438520 0.487870 0.694012 0.792869
C13   C     C_R   0.535407 0.814160 0.495114 -0.067296
C14   C     C_R   0.661625 0.982498 0.465995 -0.008427
C15   C     C_R   0.647346 0.873817 0.468627 -0.216848
C16   C     C_R   0.434853 0.862186 0.513972 -0.260316
C17   C     C_R   0.445834 0.969484 0.507697 0.159582
C18   C     C_R   0.559690 0.031008 0.484314 0.110169
C19   C     C_R   0.567801 0.138613 0.478488 -0.256412
C20   C     C_R   0.353944 0.123295 0.520427 -0.201524
C21   C     C_R   0.344001 0.015964 0.525057 -0.199566
C22   C     C_R   0.956843 0.609389 0.587710 -0.327854
C23   C     C_R   0.478294 0.298906 0.498519 0.776281
C24   C     C_R   0.840594 0.605643 0.571843 0.201462
C25   C     C_R   0.847268 0.440498 0.478990 0.036486
C26   C     C_R   0.968032 0.449242 0.486768 0.052043
C27   C     C_R   0.023477 0.534189 0.541214 0.041565
C28   C     C_R   0.146064 0.545039 0.543253 0.012266
C29   C     C_R   0.162003 0.401838 0.416587 0.233750
C30   C     C_R   0.036495 0.378520 0.433924 -0.368148
C31   C     C_R   0.562146 0.510345 0.306026 0.790245
C32   C     C_R   0.750473 0.553858 0.051317 0.018404
C33   C     C_R   0.595568 0.524289 0.198040 -0.107414
C34   C     C_R   0.289390 0.429446 0.841051 -0.247689
C35   C     C_R   0.251928 0.415796 0.942789 0.064045
C36   C     C_R   0.333854 0.443115 0.006646 -0.208060
Cu1   Cu    Cu3+1 0.386470 0.492430 0.492410 0.938417
Cu2   Cu    Cu3+1 0.613530 0.507570 0.507590 0.940660
H1    H     H_    0.781597 0.545364 0.198195 0.160901
H2    H     H_    0.274484 0.158182 0.536158 0.147082
H3    H     H_    0.256690 0.969385 0.543050 0.133258
H4    H     H_    0.724317 0.835591 0.451359 0.169950
H5    H     H_    0.347505 0.815973 0.533581 0.150489
H6    H     H_    0.186532 0.607624 0.590945 0.118663
H7    H     H_    0.999572 0.677118 0.628720 0.164257
H8    H     H_    0.991026 0.311115 0.395048 0.164521
H9    H     H_    0.806201 0.373522 0.436321 0.118739
H10   H     H_    0.226055 0.410030 0.791916 0.148055
H11   H     H_    0.302923 0.426287 0.083476 0.163889
H12   H     H_    0.653431 0.186831 0.457870 0.158085
N1    N     N_R   0.215880 0.481050 0.481000 -0.188832
N2    N     N_R   0.784100 0.518950 0.519000 -0.199481
O1    O     O_R   0.419710 0.645650 0.494620 -0.583651
O2    O     O_R   0.611450 0.658430 0.507430 -0.589395
O3    O     O_R   0.357340 0.490460 0.641450 -0.588087
O4    O     O_R   0.549080 0.503250 0.654260 -0.594463
O5    O     O_R   0.388550 0.341570 0.492570 -0.615651
O6    O     O_R   0.580290 0.354350 0.505380 -0.575940
O7    O     O_R   0.450920 0.496750 0.345740 -0.586072
O8    O     O_R   0.642660 0.509540 0.358550 -0.593522
C37   C     C_R   0.784235 0.041615 0.451343 0.103441
C38   C     C_R   0.819820 0.116281 0.527026 -0.169744
C39   C     C_R   0.939553 0.157560 0.522492 -0.171645
C40   C     C_R   0.024357 0.126172 0.441637 -0.132688
C41   C     C_R   0.989376 0.055213 0.364194 -0.129113
C42   C     C_R   0.869954 0.012412 0.369223 -0.164826
H13   H     H_    0.755792 0.138128 0.592107 0.150183
H14   H     H_    0.966800 0.212925 0.582257 0.150291
H15   H     H_    0.117012 0.157908 0.438364 0.139074
H16   H     H_    0.055080 0.031823 0.301223 0.139201
H17   H     H_    0.844574 0.954389 0.310559 0.123768
C43   C     C_R   0.218741 0.344200 0.316948 0.107179
C44   C     C_R   0.324997 0.301613 0.295294 -0.110762
C45   C     C_R   0.354467 0.233090 0.210400 -0.188747
C46   C     C_R   0.278241 0.202254 0.143751 -0.115123
C47   C     C_R   0.175534 0.244546 0.159154 -0.142564
C48   C     C_R   0.150106 0.318265 0.240433 -0.192973
H18   H     H_    0.391539 0.319216 0.337016 0.177018
H19   H     H_    0.436727 0.202669 0.197151 0.129706
H20   H     H_    0.299627 0.147113 0.079506 0.129866
H21   H     H_    0.115678 0.220806 0.107449 0.161942
H22   H     H_    0.071905 0.352086 0.245219 0.139578
C49   C     C_R   0.797023 0.707424 0.602029 0.158849
C50   C     C_R   0.871323 0.798236 0.565421 -0.221966
C51   C     C_R   0.853440 0.897510 0.609716 -0.126185
C52   C     C_R   0.756160 0.909036 0.686349 -0.089242
C53   C     C_R   0.679446 0.820431 0.721617 -0.163735
C54   C     C_R   0.701743 0.720503 0.681890 -0.072611
H23   H     H_    0.948077 0.791868 0.506330 0.132356
H24   H     H_    0.916568 0.965077 0.585184 0.159873
H25   H     H_    0.741583 0.986347 0.719611 0.121316
H26   H     H_    0.605698 0.828960 0.782994 0.124599
H27   H     H_    0.648395 0.655338 0.718231 0.143165
C55   C     C_1   0.790350 0.625751 0.844981 0.238439
N3    N     N_1   0.868638 0.688583 0.813350 -0.294473
C56   C     C_R   0.880031 0.577423 0.010878 0.115166
C57   C     C_R   0.933401 0.517476 0.926895 -0.092215
C58   C     C_R   0.049555 0.551570 0.879097 -0.108007
C59   C     C_R   0.117602 0.639151 0.920341 -0.097765
C60   C     C_R   0.068146 0.694708 0.008089 -0.132267
C61   C     C_R   0.949460 0.664904 0.052616 -0.153443
H28   H     H_    0.882551 0.448582 0.894435 0.129888
H29   H     H_    0.086036 0.510335 0.809600 0.123477
H30   H     H_    0.208378 0.664099 0.884110 0.125167
H31   H     H_    0.120825 0.762604 0.040082 0.128577
H32   H     H_    0.910837 0.711786 0.117807 0.124003
C62   C     C_1   0.401017 0.564534 0.187676 0.265061
N4    N     N_1   0.314997 0.596279 0.225640 -0.299758
C63   C     C_R   0.126018 0.374027 0.982126 0.115444
C64   C     C_R   0.064767 0.420591 0.071030 -0.136432
C65   C     C_R   0.946726 0.379719 0.108960 -0.155263
C66   C     C_R   0.887815 0.293988 0.057351 -0.112571
C67   C     C_R   0.947035 0.248428 0.967869 -0.154051
C68   C     C_R   0.065559 0.287926 0.930375 -0.184524
H33   H     H_    0.108378 0.488107 0.111387 0.145917
H34   H     H_    0.901217 0.414355 0.178707 0.125681
H35   H     H_    0.796306 0.262974 0.086665 0.126807
H36   H     H_    0.901327 0.182007 0.927825 0.132612
H37   H     H_    0.110445 0.250356 0.861787 0.128055
C69   C     C_1   0.665904 0.417875 0.753327 0.309767
N5    N     N_1   0.705550 0.355371 0.695141 -0.306836

loop_
_geom_bond_atom_site_label_1
_geom_bond_atom_site_label_2
_ccdc_geom_bond_type
C24   N2    A    
C23   O6    A    
C53   C54   A    
C44   C45   A    
C14   C18   A    
C35   C36   A    
C4    C8    A    
C57   C58   A    
C51   C52   A    
C11   C19   A    
C60   H31   S    
C29   C30   A    
C38   H13   S    
C49   C50   A    
C24   C49   S    
C18   C19   A    
C3    C7    A    
C52   H25   S    
C66   H35   S    
C20   H2    S    
C28   N1    A    
Cu2   N2    S    
C58   H29   S    
C9    H1    S    
C34   C35   A    
C31   O7    A    
C1    O1    A    
C64   C65   A    
C43   C48   A    
Cu2   O6    S    
C37   C42   A    
C42   H17   S    
C16   C17   A    
C6    C55   S    
C62   N4    T    
C31   C33   S    
C65   H34   S    
C46   H20   S    
C25   H9    S    
C68   H37   S    
C35   C63   S    
C29   C43   S    
Cu1   O1    S    
C49   C54   A    
C56   C61   A    
C9    C33   A    
C55   N3    T    
C66   C67   A    
C11   C20   A    
C45   C46   A    
C47   C48   A    
C52   C53   A    
C43   C44   A    
C25   C26   A    
C14   C37   S    
C28   H6    S    
C17   C21   A    
C67   H36   S    
C31   O8    A    
Cu1   Cu2   S    
C1    C13   S    
C2    C4    A    
C46   C47   A    
C38   C39   A    
C59   C60   A    
Cu2   O2    S    
C44   H18   S    
C56   C57   A    
C17   C18   A    
C26   C27   A    
C10   C34   A    
Cu1   O7    S    
C40   H15   S    
C50   C51   A    
C16   H5    S    
C12   O4    A    
C10   C12   S    
C63   C68   A    
C1    O2    A    
Cu2   O8    S    
C32   C56   S    
C26   C30   A    
C22   C27   A    
C13   C15   A    
C21   H3    S    
C9    C32   A    
C34   H10   S    
C50   H23   S    
C8    C62   S    
C69   N5    T    
C67   C68   A    
C29   N1    A    
C2    C36   A    
C61   H32   S    
C23   O5    A    
C54   H27   S    
C65   C66   A    
C7    C69   S    
C30   H8    S    
C57   H28   S    
C15   H4    S    
C4    C5    A    
C47   H21   S    
C51   H24   S    
C6    C7    A    
C39   H14   S    
C45   H19   S    
C40   C41   A    
C5    C32   A    
C2    C3    A    
C25   N2    A    
C3    C10   A    
C63   C64   A    
C19   H12   S    
C5    C6    A    
C48   H22   S    
Cu1   N1    S    
C11   C23   S    
C60   C61   A    
C59   H30   S    
C22   C24   A    
C8    C33   A    
C41   C42   A    
C37   C38   A    
C12   O3    A    
C39   C40   A    
Cu1   O3    S    
C22   H7    S    
Cu2   O4    S    
C20   C21   A    
C58   C59   A    
C13   C16   A    
C27   C28   A    
C14   C15   A    
C53   H26   S    
C64   H33   S    
Cu1   O5    S    
C36   H11   S    
C41   H16   S    
