data_mof_unit_3407.cif
_audit_creation_date              2013-03-05T15:50:08-0500
_audit_creation_method            fapswitch 2.2
_symmetry_space_group_name_H-M    P1
_symmetry_Int_Tables_number       1
_space_group_crystal_system       triclinic
_cell_length_a                    11.995826
_cell_length_b                    12.898432
_cell_length_c                    15.421415
_cell_angle_alpha                 87.183761
_cell_angle_beta                  115.797715
_cell_angle_gamma                 93.388413
_cell_volume                      2143.82187351

loop_
_atom_site_label
_atom_site_type_symbol
_atom_site_description
_atom_site_fract_x
_atom_site_fract_y
_atom_site_fract_z
_atom_type_partial_charge
O1    O     O_R   0.580150 0.341050 0.504560 -0.629536
O2    O     O_R   0.419850 0.658950 0.495440 -0.628266
O3    O     O_R   0.388090 0.353760 0.493600 -0.618661
O4    O     O_R   0.611910 0.646240 0.506400 -0.618262
C1    C     C_R   0.477262 0.299447 0.498382 0.892229
C2    C     C_R   0.522752 0.700555 0.501644 0.894634
O5    O     O_R   0.650890 0.490020 0.640860 -0.610580
O6    O     O_R   0.349110 0.509980 0.359140 -0.610261
O7    O     O_R   0.458830 0.502730 0.629890 -0.624330
O8    O     O_R   0.541170 0.497270 0.370110 -0.624524
C3    C     C_R   0.576343 0.493324 0.680737 0.907729
C4    C     C_R   0.423044 0.503584 0.319298 0.905826
Zn1   Zn    Zn3+2 0.628240 0.491510 0.507320 0.952000
Zn2   Zn    Zn3+2 0.371760 0.508490 0.492680 0.954018
C5    C     C_R   0.619421 0.471475 0.783784 -0.125303
C6    C     C_R   0.372521 0.497436 0.214800 -0.131145
C7    C     C_R   0.755720 0.384543 0.933014 0.346593
C8    C     C_R   0.212134 0.531643 0.053740 0.344236
C9    C     C_R   0.729306 0.421021 0.839005 -0.215038
C10   C     C_R   0.254054 0.530499 0.153921 -0.212693
C11   C     C_R   0.537149 0.487417 0.822435 -0.245857
C12   C     C_R   0.446854 0.459241 0.176475 -0.252877
C13   C     C_R   0.552751 0.442087 0.910394 0.055529
C14   C     C_R   0.407462 0.455777 0.077275 0.060497
C15   C     C_R   0.665612 0.393540 0.968766 0.025279
C16   C     C_R   0.289373 0.494227 0.014796 0.032407
C17   C     C_R   0.459116 0.447495 0.942237 0.100663
C18   C     C_R   0.488158 0.423770 0.039463 0.101926
C19   C     C_R   0.597526 0.370470 0.095429 -0.235850
C20   C     C_R   0.336832 0.474430 0.879653 -0.245670
C21   C     C_R   0.682737 0.353046 0.059475 -0.157106
C22   C     C_R   0.252428 0.494520 0.915327 -0.142773
H1    H     H_    0.762254 0.308683 0.104271 0.199293
H2    H     H_    0.159663 0.513331 0.864150 0.197793
H3    H     H_    0.538864 0.437311 0.225766 0.167477
H4    H     H_    0.458760 0.534547 0.781344 0.168687
H5    H     H_    0.197031 0.561120 0.184370 0.191310
H6    H     H_    0.793866 0.409262 0.808834 0.189006
H7    H     H_    0.617310 0.338048 0.166250 0.150813
H8    H     H_    0.303405 0.478086 0.802259 0.146531
C23   C     C_R   0.536006 0.811874 0.502291 -0.056782
C24   C     C_R   0.464043 0.188139 0.497794 -0.054924
C25   C     C_R   0.353220 0.029293 0.505817 -0.202914
C26   C     C_R   0.646865 0.970728 0.494329 -0.202491
C27   C     C_R   0.361029 0.136777 0.503146 -0.186486
C28   C     C_R   0.639047 0.863242 0.496985 -0.185740
C29   C     C_R   0.558363 0.132765 0.493928 -0.265906
C30   C     C_R   0.441696 0.867251 0.506174 -0.265466
C31   C     C_R   0.551668 0.026043 0.496999 0.183334
C32   C     C_R   0.448410 0.973976 0.503135 0.183155
H9    H     H_    0.362169 0.827616 0.510996 0.164282
H10   H     H_    0.637875 0.172399 0.489081 0.163387
H11   H     H_    0.712347 0.820631 0.493907 0.165078
H12   H     H_    0.287736 0.179392 0.506231 0.165007
H13   H     H_    0.273643 0.989607 0.510364 0.144443
H14   H     H_    0.726448 0.010416 0.489793 0.143785
N1    N     N_R   0.799120 0.480200 0.517090 -0.100324
N2    N     N_R   0.200880 0.519800 0.482910 -0.099279
C33   C     C_R   0.999207 0.593041 0.404726 -0.307873
C34   C     C_R   0.001068 0.407385 0.595723 -0.324642
C35   C     C_R   0.120819 0.584889 0.414832 0.040068
C36   C     C_R   0.879305 0.415335 0.585390 0.034068
C37   C     C_R   0.163381 0.461077 0.542759 -0.050807
C38   C     C_R   0.836782 0.539115 0.457459 -0.044199
C39   C     C_R   0.041706 0.466720 0.535239 0.087536
C40   C     C_R   0.958527 0.533575 0.465111 0.086780
H15   H     H_    0.772224 0.590770 0.404184 0.129221
H16   H     H_    0.227997 0.409493 0.596095 0.125567
H17   H     H_    0.848964 0.369717 0.632544 0.136536
H18   H     H_    0.151169 0.630569 0.367717 0.134749
H19   H     H_    0.937513 0.645243 0.349964 0.155449
H20   H     H_    0.062883 0.355421 0.650694 0.153004
N3    N     N_R   0.872292 0.337423 0.989377 0.209074
O9    O     O_R   0.921205 0.282123 0.947532 -0.390941
O10   O     O_R   0.939708 0.364267 0.078001 -0.371583
N4    N     N_R   0.096420 0.578478 0.994070 0.199589
O11   O     O_R   0.004713 0.567600 0.017858 -0.348751
O12   O     O_R   0.091295 0.649578 0.929732 -0.400742

loop_
_geom_bond_atom_site_label_1
_geom_bond_atom_site_label_2
_geom_bond_distance
_ccdc_geom_bond_type
C26   C31   1.398195 A    
C15   C21   1.400914 A    
C1    C24   1.435130 S    
C37   C39   1.419003 A    
C16   C22   1.399056 A    
N3    O9    1.301433 A    
C8    C16   1.420476 A    
N1    C36   1.364305 A    
C29   C31   1.373834 A    
C35   H18   1.081860 S    
O5    C3    1.290518 A    
C12   H3    1.077769 S    
O1    C1    1.282465 A    
C18   C19   1.414758 A    
C14   C16   1.424466 A    
C33   C40   1.405244 A    
Zn1   N1    2.002555 S    
C34   H20   1.083294 S    
C34   C36   1.408157 A    
O4    Zn1   2.015616 S    
C22   H2    1.081084 S    
C3    C5    1.459530 S    
C30   H9    1.085051 S    
C4    C6    1.458547 S    
C2    C23   1.435288 S    
O6    Zn2   1.955742 S    
C23   C28   1.399804 A    
C21   H1    1.080112 S    
C13   C17   1.414342 A    
C6    C10   1.397807 A    
N2    C35   1.364011 A    
C30   C32   1.373864 A    
C17   C20   1.413861 A    
C7    N3    1.439083 S    
N3    O10   1.301226 A    
O2    C2    1.282497 A    
C26   C28   1.383822 A    
Zn2   N2    2.002556 S    
C33   C35   1.407893 A    
C38   H15   1.082625 S    
N4    O11   1.300940 A    
O4    C2    1.286598 A    
C11   H4    1.080007 S    
C36   H17   1.081896 S    
C24   C27   1.399768 A    
C38   C40   1.418946 A    
C5    C9    1.398628 A    
O7    Zn2   1.908893 S    
C9    H6    1.083381 S    
C25   C27   1.383805 A    
C26   H14   1.084055 S    
C5    C11   1.385502 A    
O6    C4    1.287954 A    
C19   H7    1.079473 S    
C20   H8    1.080584 S    
O7    C3    1.290543 A    
O3    Zn2   2.015615 S    
O8    C4    1.292097 A    
C25   H13   1.084050 S    
C27   H12   1.083284 S    
C39   C40   1.406994 A    
C11   C13   1.389558 A    
C12   C14   1.393053 A    
O1    Zn1   1.988798 S    
N1    C38   1.370981 A    
N2    C37   1.371239 A    
C37   H16   1.082733 S    
C6    C12   1.387944 A    
C14   C18   1.417637 A    
N4    O12   1.301309 A    
O3    C1    1.286585 A    
O8    Zn1   1.908895 S    
C34   C39   1.405308 A    
C25   C32   1.398212 A    
C29   H10   1.085058 S    
C7    C15   1.423262 A    
C19   C21   1.391224 A    
C20   C22   1.387373 A    
C10   H5    1.083569 S    
C28   H11   1.083278 S    
C7    C9    1.405120 A    
C23   C30   1.397274 A    
C8    C10   1.400828 A    
C24   C29   1.397249 A    
C13   C15   1.421074 A    
O2    Zn2   1.988798 S    
O5    Zn1   1.955742 S    
C31   C32   1.411282 A    
C33   H19   1.083191 S    
C17   C18   1.405695 A    
C8    N4    1.439178 S    
