data_mof_unit_2838.cif
_audit_creation_date              2012-12-10T17:37:46-0500
_audit_creation_method            fapswitch 2.2
_symmetry_space_group_name_H-M    P1
_symmetry_Int_Tables_number       1
_space_group_crystal_system       triclinic
_cell_length_a                    12.314472
_cell_length_b                    13.200669
_cell_length_c                    17.337789
_cell_angle_alpha                 104.926196
_cell_angle_beta                  74.710454
_cell_angle_gamma                 116.685309
_cell_volume                      2397.21894193

loop_
_atom_site_label
_atom_site_type_symbol
_atom_type_description
_atom_site_fract_x
_atom_site_fract_y
_atom_site_fract_z
_atom_type_partial_charge
C1    C     C_R   0.144583 0.713508 0.506631 0.776784
C2    C     C_R   0.890486 0.529606 0.796714 -0.193440
C3    C     C_R   0.918191 0.485471 0.156185 -0.125894
C4    C     C_R   0.916694 0.492532 0.237594 -0.180348
C5    C     C_R   0.111242 0.472658 0.203545 -0.175452
C6    C     C_R   0.112754 0.465809 0.121915 -0.154810
C7    C     C_R   0.017714 0.474636 0.098075 0.179762
C8    C     C_2   0.978964 0.531763 0.987915 -0.220520
C9    C     C_2   0.024670 0.472543 0.012196 -0.218999
C10   C     C_R   0.013813 0.487442 0.261931 -0.037266
C11   C     C_R   0.734982 0.975982 0.391352 -0.175854
C12   C     C_R   0.988738 0.505240 0.652216 0.786949
C13   C     C_R   0.774455 0.164917 0.470311 -0.057213
C14   C     C_R   0.178808 0.916608 0.555962 -0.174578
C15   C     C_R   0.255799 0.032390 0.569619 -0.125997
C16   C     C_R   0.381845 0.069407 0.541231 -0.153903
C17   C     C_R   0.433287 0.990784 0.495434 0.090938
C18   C     C_R   0.352229 0.875143 0.472892 0.087475
C19   C     C_R   0.562427 0.023392 0.470531 0.080656
C20   C     C_R   0.607621 0.944511 0.416447 0.161494
C21   C     C_R   0.525232 0.836016 0.386734 -0.227387
C22   C     C_R   0.399407 0.802199 0.413684 -0.178612
C23   C     C_R   0.855872 0.286316 0.487769 0.808910
C24   C     C_R   0.648321 0.131734 0.498882 -0.244063
C25   C     C_R   0.818168 0.086140 0.417710 -0.177392
C26   C     C_R   0.225959 0.836500 0.509530 -0.099874
C27   C     C_R   0.642025 0.674788 0.628956 -0.303152
C28   C     C_R   0.248710 0.350386 0.391195 -0.035008
C29   C     C_R   0.346236 0.316068 0.368563 0.402235
C30   C     C_R   0.446537 0.372836 0.409699 -0.289491
C31   C     C_R   0.450289 0.464091 0.474165 -0.079291
C32   C     C_R   0.347378 0.494873 0.495587 0.270134
C33   C     C_R   0.551137 0.524937 0.518783 -0.001778
C34   C     C_R   0.011443 0.494996 0.347796 0.794743
C35   C     C_R   0.545921 0.614028 0.583944 0.178169
C36   C     C_R   0.444654 0.641922 0.604206 -0.290277
C37   C     C_R   0.347775 0.583643 0.561254 -0.165208
C38   C     C_R   0.657782 0.501891 0.502016 0.017376
C39   C     C_R   0.743629 0.647578 0.609566 0.068289
C40   C     C_R   0.987206 0.513818 0.738108 -0.029715
C41   C     C_R   0.084674 0.509046 0.762249 -0.209462
C42   C     C_R   0.084190 0.517375 0.843667 -0.144356
C43   C     C_R   0.985286 0.529076 0.902019 0.189732
C44   C     C_R   0.889938 0.537641 0.878366 -0.161776
Cu1   Cu    Cu3+1 0.900140 0.524980 0.518800 0.943137
Cu2   Cu    Cu3+1 0.099860 0.475020 0.481200 0.933011
H1    H     H_    0.161765 0.499438 0.718397 0.157944
H2    H     H_    0.189333 0.456032 0.077494 0.132139
H3    H     H_    0.915833 0.110916 0.394695 0.170749
H4    H     H_    0.558159 0.776676 0.342670 0.147905
H5    H     H_    0.769995 0.916299 0.349785 0.143667
H6    H     H_    0.619628 0.192861 0.543199 0.146453
H7    H     H_    0.082291 0.889537 0.583281 0.151264
H8    H     H_    0.435880 0.160499 0.554451 0.127245
H9    H     H_    0.218093 0.093586 0.604649 0.140681
H10   H     H_    0.340056 0.719259 0.385499 0.176784
H11   H     H_    0.818191 0.694263 0.643992 0.122023
H12   H     H_    0.839078 0.501336 0.281299 0.159409
H13   H     H_    0.439830 0.709625 0.654263 0.153144
H14   H     H_    0.638513 0.742950 0.678885 0.140527
H15   H     H_    0.670139 0.436382 0.453258 0.129062
H16   H     H_    0.170522 0.306439 0.359929 0.182418
H17   H     H_    0.519446 0.343124 0.390587 0.177581
H18   H     H_    0.274367 0.610918 0.582529 0.203515
H19   H     H_    0.186602 0.467304 0.220867 0.164467
H20   H     H_    0.071473 0.423542 0.968350 0.147788
H21   H     H_    0.813807 0.548040 0.922958 0.130261
H22   H     H_    0.840936 0.487521 0.139008 0.138114
H23   H     H_    0.814921 0.534809 0.779554 0.153593
H24   H     H_    0.932140 0.580732 0.031785 0.148484
H25   H     H_    0.161675 0.515473 0.860641 0.127055
N1    N     N_R   0.749710 0.562810 0.547300 -0.182882
N2    N     N_R   0.249640 0.437820 0.453210 -0.239074
O1    O     O_R   0.025490 0.682370 0.523640 -0.577001
O2    O     O_R   0.194150 0.640180 0.491890 -0.606621
O3    O     O_R   0.905900 0.523560 0.631310 -0.587805
O4    O     O_R   0.074570 0.481370 0.599560 -0.600242
O5    O     O_R   0.805850 0.359820 0.508110 -0.586653
O6    O     O_R   0.974510 0.317630 0.476360 -0.582171
O7    O     O_R   0.925430 0.518630 0.400440 -0.586168
O8    O     O_R   0.094100 0.476440 0.368690 -0.593189
S1    S     S_3+6 0.342230 0.199983 0.290027 -0.015375
O9    O     O_2   0.462154 0.234812 0.231616 -0.288739
O10   O     O_2   0.325701 0.100740 0.325942 -0.282049
O11   O     O_3   0.224875 0.160331 0.240869 -0.562519
H26   H     H_    0.227580 0.093310 0.199746 0.379537

loop_
_geom_bond_atom_site_label_1
_geom_bond_atom_site_label_2
_ccdc_geom_bond_type
C24   H6    S    
C41   C42   A    
C19   C20   A    
C18   C26   A    
C8    C43   S    
C36   H13   S    
Cu1   Cu2   S    
C6    H2    S    
Cu1   O3    S    
C1    O1    A    
C28   C29   A    
C3    C7    A    
C27   H14   S    
Cu2   O6    S    
C11   C25   A    
C15   C16   A    
C39   H11   S    
C13   C23   S    
C9    H20   S    
C21   H4    S    
C17   C19   A    
C3    H22   S    
C27   C39   A    
C16   C17   A    
C39   N1    A    
C31   C33   A    
Cu1   O5    S    
C34   O8    A    
C2    H23   S    
C38   H15   S    
C34   O7    A    
C21   C22   A    
Cu1   N1    S    
C13   C25   A    
C28   N2    A    
Cu2   O2    S    
C16   H8    S    
C38   N1    A    
C11   C20   A    
C1    O2    A    
C5    H19   S    
C2    C44   A    
C32   N2    A    
C8    C9    D    
C22   H10   S    
C27   C35   A    
O11   H26   S    
C13   C24   A    
Cu1   O1    S    
C35   C36   A    
C15   H9    S    
C12   C40   S    
C43   C44   A    
C29   C30   A    
Cu2   O8    S    
C31   C32   A    
C30   C31   A    
C12   O4    A    
C17   C18   A    
C41   H1    S    
C10   C34   S    
C32   C37   A    
C14   C26   A    
C40   C41   A    
S1    O10   D    
C12   O3    A    
C1    C26   S    
C42   C43   A    
C4    C10   A    
C3    C4    A    
C37   H18   S    
C7    C9    S    
C36   C37   A    
C18   C22   A    
Cu2   O4    S    
C6    C7    A    
S1    O11   S    
C8    H24   S    
C33   C38   A    
C19   C24   A    
C5    C10   A    
C5    C6    A    
C42   H25   S    
C33   C35   A    
Cu1   O7    S    
C23   O5    A    
C25   H3    S    
C11   H5    S    
C2    C40   A    
C29   S1    S    
C14   H7    S    
C20   C21   A    
S1    O9    D    
C4    H12   S    
C14   C15   A    
C44   H21   S    
C23   O6    A    
C30   H17   S    
Cu2   N2    S    
C28   H16   S    
