data_mof_unit_2609.cif
_audit_creation_date              2013-03-05T16:03:50-0500
_audit_creation_method            fapswitch 2.2
_symmetry_space_group_name_H-M    P1
_symmetry_Int_Tables_number       1
_space_group_crystal_system       triclinic
_cell_length_a                    6.92505
_cell_length_b                    17.841924
_cell_length_c                    19.408823
_cell_angle_alpha                 108.933931
_cell_angle_beta                  90.089731
_cell_angle_gamma                 90.818303
_cell_volume                      2268.04857223

loop_
_atom_site_label
_atom_site_type_symbol
_atom_site_description
_atom_site_fract_x
_atom_site_fract_y
_atom_site_fract_z
_atom_type_partial_charge
O1    O     O_R   0.505700 0.440210 0.561730 -0.609044
O2    O     O_R   0.169350 0.406300 0.412660 -0.601970
O3    O     O_R   0.005650 0.559790 0.438270 -0.556976
C1    C     C_R   0.337981 0.383381 0.384688 0.967072
O4    O     O_R   0.175560 0.430650 0.559600 -0.605533
O5    O     O_R   0.011900 0.584320 0.586250 -0.592246
C2    C     C_R   0.344230 0.415225 0.580905 0.906276
O6    O     O_R   0.499450 0.415680 0.413750 -0.588951
O7    O     O_3   0.341370 0.550390 0.508570 -0.228844
V1    V     V_3+5 0.063940 0.490650 0.498410 1.188651
O8    O     O_R   0.682570 0.593700 0.587340 -0.597636
C3    C     C_R   0.852656 0.616618 0.615033 0.935447
O9    O     O_R   0.676370 0.569350 0.440400 -0.556518
C4    C     C_R   0.846943 0.583930 0.418111 0.948576
V2    V     V_3+5 0.564750 0.509350 0.501590 1.206930
O10   O     O_3   0.837190 0.449610 0.491430 -0.292521
C5    C     C_R   0.027655 0.669841 0.271743 -0.253818
H1    H     H_    0.151376 0.664947 0.236540 0.153790
C6    C     C_R   0.026340 0.627515 0.321292 0.368074
C7    C     C_R   0.863445 0.631734 0.367387 -0.314766
C8    C     C_R   0.711566 0.681788 0.363206 -0.102393
H2    H     H_    0.590253 0.689782 0.399643 0.180218
C9    C     C_R   0.716598 0.724420 0.313918 -0.128553
H3    H     H_    0.598204 0.763177 0.313216 0.119631
C10   C     C_R   0.875291 0.718970 0.267721 0.053435
C11   C     C_R   0.726519 0.775529 0.176863 -0.140119
H4    H     H_    0.589692 0.747336 0.181297 0.107870
C12   C     C_R   0.740621 0.820564 0.129764 -0.053577
H5    H     H_    0.613538 0.826473 0.099434 0.135681
C13   C     C_R   0.915099 0.859288 0.123402 -0.139099
C14   C     C_R   0.078218 0.847271 0.161407 -0.113255
H6    H     H_    0.216445 0.873707 0.156061 0.194128
C15   C     C_R   0.064508 0.802202 0.208192 -0.161463
H7    H     H_    0.192047 0.796616 0.238407 0.119448
C16   C     C_R   0.888030 0.766459 0.217226 0.132491
H8    H     H_    0.120554 0.638390 0.926010 0.120158
C17   C     C_R   0.787552 0.903872 0.750460 -0.181142
C18   C     C_R   0.721245 0.915754 0.687059 -0.116145
C19   C     C_R   0.702923 0.852142 0.622979 -0.096557
C20   C     C_R   0.750727 0.776143 0.621788 -0.157194
C21   C     C_R   0.816480 0.761967 0.685493 0.115926
C22   C     C_R   0.835333 0.827228 0.751274 0.123351
C23   C     C_R   0.867296 0.684716 0.684044 -0.312878
C24   C     C_R   0.937155 0.672885 0.748521 0.120701
C25   C     C_R   0.955722 0.738125 0.814324 0.118019
C26   C     C_R   0.904791 0.815363 0.815785 -0.306962
C27   C     C_R   0.985774 0.596298 0.749268 -0.169481
C28   C     C_R   0.052442 0.584448 0.812635 -0.113215
C29   C     C_R   0.070121 0.648016 0.876769 -0.105313
C30   C     C_R   0.021560 0.723957 0.878022 -0.165917
H9    H     H_    0.802457 0.955645 0.798443 0.117024
H10   H     H_    0.685228 0.974791 0.687575 0.123067
H11   H     H_    0.652659 0.861781 0.573722 0.120517
H12   H     H_    0.736818 0.729000 0.570219 0.107035
H13   H     H_    0.971350 0.544540 0.701255 0.111505
H14   H     H_    0.089185 0.525458 0.812050 0.121605
H15   H     H_    0.035082 0.771068 0.929620 0.098646
H16   H     H_    0.959119 0.425879 0.188194 0.162334
C31   C     C_R   0.555695 0.244865 0.381499 -0.167075
C32   C     C_R   0.655325 0.178498 0.382947 -0.178097
C33   C     C_R   0.647692 0.110148 0.323240 -0.156754
C34   C     C_R   0.546663 0.108523 0.260162 0.313256
C35   C     C_R   0.477001 0.180310 0.252579 -0.051517
C36   C     C_R   0.464489 0.247494 0.316863 0.117012
C37   C     C_R   0.414999 0.186113 0.184185 -0.262171
C38   C     C_R   0.310531 0.254726 0.183390 -0.036216
C39   C     C_R   0.264660 0.314005 0.250747 0.044823
C40   C     C_R   0.351801 0.313339 0.316818 -0.253538
C41   C     C_R   0.248810 0.266094 0.117051 0.427997
C42   C     C_R   0.117013 0.326585 0.118785 0.450047
C43   C     C_R   0.059343 0.379021 0.185755 -0.289190
C44   C     C_R   0.136548 0.374560 0.250141 -0.139937
H17   H     H_    0.549023 0.292850 0.432408 0.131427
H18   H     H_    0.725874 0.178092 0.432654 0.146529
H19   H     H_    0.706371 0.056371 0.328630 0.169211
H20   H     H_    0.092242 0.419640 0.299261 0.173805
C45   C     C_R   0.539638 0.285257 0.685800 -0.178891
H21   H     H_    0.676896 0.260003 0.692509 0.133167
C46   C     C_R   0.529591 0.331881 0.640125 -0.165664
H22   H     H_    0.659840 0.341491 0.613119 0.133039
C47   C     C_R   0.353758 0.365080 0.629027 -0.108520
C48   C     C_R   0.188411 0.350659 0.665162 -0.211751
H23   H     H_    0.051179 0.376045 0.658667 0.126853
C49   C     C_R   0.198961 0.304604 0.711419 -0.058714
H24   H     H_    0.070104 0.296600 0.739946 0.136393
C50   C     C_R   0.374472 0.270788 0.721962 0.202245
C51   C     C_R   0.247626 0.163763 0.770863 0.573637
C52   C     C_R   0.263838 0.120723 0.820087 -0.329742
H25   H     H_    0.157562 0.074802 0.817895 0.151462
C53   C     C_R   0.417100 0.134687 0.870633 -0.357385
C54   C     C_R   0.555988 0.194702 0.872196 0.552212
C55   C     C_R   0.541382 0.236158 0.822192 -0.271999
H26   H     H_    0.648163 0.281951 0.824601 0.167381
C56   C     C_R   0.387476 0.222501 0.772056 -0.091418
O11   O     O_R   0.273230 0.084330 0.086440 -0.546805
O12   O     O_R   0.596660 0.069390 0.940470 -0.603668
O13   O     O_R   0.760270 0.915710 0.913690 -0.601517
C57   C     C_R   0.428061 0.084900 0.919262 1.021775
O14   O     O_R   0.603330 0.093680 0.087390 -0.603342
O15   O     O_R   0.766990 0.940160 0.061660 -0.573303
C58   C     C_R   0.433970 0.116961 0.115408 1.140961
O16   O     O_R   0.266510 0.059870 0.938470 -0.573837
O17   O     O_3   0.431050 0.949630 0.991510 -0.284936
V3    V     V_3+5 0.708490 0.009340 0.001580 1.215571
O18   O     O_R   0.096270 0.930570 0.059390 -0.585751
C59   C     C_R   0.926585 0.912815 0.078506 0.971281
O19   O     O_R   0.089600 0.906290 0.912460 -0.605536
C60   C     C_R   0.919468 0.883444 0.884800 0.918624
V4    V     V_3+5 0.207670 0.990600 0.998190 1.224950
O20   O     O_3   0.935250 0.050360 0.008480 -0.260008
N1    N     N_R   0.194738 0.582738 0.324271 0.213399
O21   O     O_R   0.299513 0.603871 0.383209 -0.403066
O22   O     O_R   0.275417 0.541042 0.263731 -0.440024
N2    N     N_R   0.480259 0.032920 0.213141 0.207321
O23   O     O_R   0.295926 0.021697 0.200138 -0.444211
O24   O     O_R   0.587935 0.971460 0.203383 -0.448660
O25   O     O_3   0.326341 0.220363 0.051654 -0.806613
H27   H     H_    0.278467 0.237476 0.011135 0.359395
O26   O     O_3   0.047454 0.333456 0.054317 -0.740196
H28   H     H_    0.956772 0.378296 0.065294 0.331442
O27   O     O_3   0.100174 0.147471 0.719846 -0.778192
H29   H     H_    0.014564 0.105377 0.726576 0.311959
O28   O     O_3   0.704701 0.216657 0.922461 -0.718611
H30   H     H_    0.663300 0.207087 0.967673 0.344161

loop_
_geom_bond_atom_site_label_1
_geom_bond_atom_site_label_2
_geom_bond_distance
_ccdc_geom_bond_type
C51   C52   1.411834 A    
C35   C37   1.430343 A    
C21   C23   1.418833 A    
C21   C22   1.425925 A    
C6    C7    1.428449 A    
C37   C58   1.502604 S    
C44   H20   1.077170 S    
N2    O23   1.300837 A    
O28   H30   0.988938 S    
C19   H11   1.082621 S    
C45   H21   1.083216 S    
C33   H19   1.082956 S    
C11   H4    1.083048 S    
C34   C35   1.426404 A    
C36   C40   1.419846 A    
C27   H13   1.081560 S    
C12   H5    1.083255 S    
C49   C50   1.408352 A    
C34   N2    1.430369 S    
C3    C23   1.490133 S    
O5    C3    1.292843 A    
C18   C19   1.389386 A    
C17   H9    1.081643 S    
H16   C43   1.083484 S    
C38   C41   1.432436 A    
C18   H10   1.082818 S    
V2    O10   2.157933 S    
C51   C56   1.411367 A    
O15   V3    1.998554 S    
C5    H1    1.083404 S    
C39   C44   1.410714 A    
C22   C26   1.420181 A    
C41   O25   1.381185 S    
C17   C22   1.416558 A    
C50   C56   1.497052 S    
C5    C6    1.402264 A    
O13   C60   1.292978 A    
O8    V2    2.008923 S    
C14   H6    1.081075 S    
C26   C60   1.490050 S    
C9    H3    1.082983 S    
C14   C15   1.397171 A    
C42   C43   1.395497 A    
O1    V2    1.993227 S    
O7    V1    2.161012 S    
C31   H17   1.078764 S    
C24   C27   1.416591 A    
C1    O6    1.291996 A    
C38   C39   1.429062 A    
C31   C32   1.387012 A    
C54   O28   1.379536 S    
C8    H2    1.079849 S    
C13   C59   1.488576 S    
O19   V4    2.009037 S    
C41   C42   1.415495 A    
C11   C12   1.401956 A    
C47   C48   1.407263 A    
C45   C46   1.400982 A    
C8    C9    1.402317 A    
C39   C40   1.420009 A    
C4    C7    1.500741 S    
C49   H24   1.082798 S    
O11   V4    2.013351 S    
C19   C20   1.393302 A    
O4    C2    1.300992 A    
C57   O16   1.298107 A    
C1    C40   1.497199 S    
C48   H23   1.083127 S    
C46   H22   1.083105 S    
O12   C57   1.300320 A    
C32   C33   1.383387 A    
O2    C1    1.302778 A    
C23   C24   1.420249 A    
C17   C18   1.392955 A    
C27   C28   1.392913 A    
C42   O26   1.382777 S    
O19   C60   1.297976 A    
C55   C56   1.406300 A    
C15   H7    1.082928 S    
C31   C36   1.418276 A    
N1    O22   1.301113 A    
C52   H25   1.083884 S    
O27   H29   0.991849 S    
O3    C4    1.291530 A    
C10   C16   1.491048 S    
C28   C29   1.389311 A    
O14   C58   1.308851 A    
C52   C53   1.407677 A    
C45   C50   1.406816 A    
C37   C38   1.435177 A    
O6    V2    2.007764 S    
C20   H12   1.081466 S    
O9    V2    1.989534 S    
O2    V1    1.994349 S    
C54   C55   1.402471 A    
C24   C25   1.425847 A    
C51   O27   1.381726 S    
C28   H14   1.082827 S    
O12   V3    1.999979 S    
O18   V4    1.989493 S    
C20   C21   1.415835 A    
N1    O21   1.298783 A    
C2    C47   1.490283 S    
O1    C2    1.297035 A    
C30   H15   1.081379 S    
O15   C59   1.297764 A    
O5    V1    1.999906 S    
N2    O24   1.297444 A    
O26   H28   0.991932 S    
C46   C47   1.408017 A    
C6    N1    1.434553 S    
O18   C59   1.298390 A    
C48   C49   1.402427 A    
O17   V4    1.707491 S    
C5    C10   1.399390 A    
C12   C13   1.408721 A    
O7    V2    1.707660 S    
C43   C44   1.384730 A    
O3    V1    1.998583 S    
V1    O10   1.709484 S    
O25   H27   0.989695 S    
V3    O20   1.709504 S    
C53   C54   1.421961 A    
C13   C14   1.404638 A    
C25   C30   1.415827 A    
C32   H18   1.082879 S    
C55   H26   1.083682 S    
C15   C16   1.407829 A    
O14   V3    1.994295 S    
C9    C10   1.403804 A    
C33   C34   1.401028 A    
O13   V3    1.999725 S    
C35   C36   1.426122 A    
C25   C26   1.418760 A    
C11   C16   1.405553 A    
O4    V1    1.999943 S    
C7    C8    1.408527 A    
C29   C30   1.393255 A    
V4    O20   2.157811 S    
O17   V3    2.160955 S    
O16   V4    1.988403 S    
O9    C4    1.309950 A    
C53   C57   1.493807 S    
H8    C29   1.082606 S    
O11   C58   1.288889 A    
O8    C3    1.298100 A    
