data_mof_unit_1279.cif
_audit_creation_date              2012-12-10T20:46:49-0500
_audit_creation_method            fapswitch 2.2
_symmetry_space_group_name_H-M    P1
_symmetry_Int_Tables_number       1
_space_group_crystal_system       triclinic
_cell_length_a                    12.862021
_cell_length_b                    8.933051
_cell_length_c                    8.115871
_cell_angle_alpha                 90.034033
_cell_angle_beta                  97.636212
_cell_angle_gamma                 90.035926
_cell_volume                      924.220009093

loop_
_atom_site_label
_atom_site_type_symbol
_atom_type_description
_atom_site_fract_x
_atom_site_fract_y
_atom_site_fract_z
_atom_type_partial_charge
C1    C     C_R   0.500019 0.218024 0.499977 0.943041
C2    C     C_R   0.499981 0.781976 0.500023 0.943041
C3    C     C_R   0.297771 0.502497 0.466873 1.017806
C4    C     C_R   0.702229 0.497503 0.533126 1.017805
C5    C     C_R   0.814180 0.488707 0.554845 -0.391241
C6    C     C_R   0.185820 0.511292 0.445155 -0.391241
C7    C     C_R   0.025738 0.635079 0.334306 0.757896
C8    C     C_R   0.974262 0.364921 0.665694 0.757896
C9    C     C_R   0.132534 0.614961 0.334516 0.205237
C10   C     C_R   0.867466 0.385039 0.665484 0.205236
C11   C     C_R   0.133397 0.424931 0.550848 0.683926
C12   C     C_R   0.866603 0.575069 0.449152 0.683927
C13   C     C_R   0.027128 0.446649 0.554463 -0.342225
C14   C     C_R   0.972871 0.553351 0.445537 -0.342226
C15   C     C_1   0.500010 0.065198 0.499964 -0.094986
C16   C     C_1   0.499990 0.934802 0.500036 -0.094986
N1    N     N_1   0.500020 0.500000 0.073640 0.018421
N2    N     N_1   0.499980 0.500000 0.926360 0.018421
O1    O     O_R   0.499990 0.285340 0.636850 -0.595458
O2    O     O_R   0.500010 0.714660 0.363150 -0.595458
O3    O     O_R   0.500010 0.285340 0.363150 -0.623887
O4    O     O_R   0.499990 0.714660 0.636850 -0.623887
O5    O     O_R   0.346350 0.500000 0.614250 -0.581256
O6    O     O_R   0.653650 0.500000 0.385750 -0.581256
O7    O     O_R   0.346360 0.500000 0.340500 -0.587755
O8    O     O_R   0.653640 0.500000 0.659500 -0.587755
Zn1   Zn    Zn3+2 0.499990 0.500000 0.682780 1.110132
Zn2   Zn    Zn3+2 0.500010 0.500000 0.317220 1.110132
F1    F     F_    0.812598 0.678566 0.348535 -0.564702
F2    F     F_    0.187402 0.321433 0.651465 -0.564702
Cl1   Cl    Cl    0.802064 0.270601 0.796499 -0.437694
Cl2   Cl    Cl    0.197936 0.729398 0.203501 -0.437694
F3    F     F_    0.974908 0.736697 0.227970 -0.517256
F4    F     F_    0.025092 0.263303 0.772030 -0.517256

loop_
_geom_bond_atom_site_label_1
_geom_bond_atom_site_label_2
_ccdc_geom_bond_type
C2    O4    A    
C4    O8    A    
C1    O3    A    
C8    C13   A    
C1    C15   S    
O5    Zn1   S    
C12   F1    S    
C2    C16   S    
C3    O5    A    
C3    C6    S    
C6    C9    A    
N1    N2    T    
C5    C10   A    
C8    F4    S    
C13   C14   A    
O7    Zn2   S    
C11   C13   A    
O8    Zn1   S    
O3    Zn2   S    
C12   C14   A    
O4    Zn1   S    
C4    O6    A    
C1    O1    A    
C7    F3    S    
C2    O2    A    
C15   C16   T    
C3    O7    A    
O1    Zn1   S    
C5    C12   A    
C8    C10   A    
C6    C11   A    
C7    C9    A    
O2    Zn2   S    
C9    Cl2   S    
N1    Zn2   S    
C10   Cl1   S    
C7    C14   A    
N2    Zn1   S    
O6    Zn2   S    
C11   F2    S    
C4    C5    S    
