data_mof_unit_4310.cif
_audit_creation_date              2012-12-10T17:24:16-0500
_audit_creation_method            fapswitch 2.2
_symmetry_space_group_name_H-M    P1
_symmetry_Int_Tables_number       1
_space_group_crystal_system       triclinic
_cell_length_a                    19.339297
_cell_length_b                    10.823455
_cell_length_c                    9.607963
_cell_angle_alpha                 88.932474
_cell_angle_beta                  90.24816
_cell_angle_gamma                 94.640713
_cell_volume                      2004.17056013

loop_
_atom_site_label
_atom_site_type_symbol
_atom_type_description
_atom_site_fract_x
_atom_site_fract_y
_atom_site_fract_z
_atom_type_partial_charge
C1    C     C_R   0.498164 0.262489 0.501490 0.772108
C2    C     C_R   0.290868 0.499060 0.498441 -0.086742
C3    C     C_R   0.927467 0.462180 0.504346 0.414704
C4    C     C_R   0.068121 0.473868 0.503758 0.420175
C5    C     C_R   0.814852 0.467228 0.630020 -0.145371
C6    C     C_R   0.743276 0.475140 0.628986 -0.193544
C7    C     C_R   0.706831 0.477334 0.502330 -0.001906
C8    C     C_R   0.742867 0.467917 0.377011 -0.147587
C9    C     C_R   0.814411 0.460613 0.378015 -0.153484
C10   C     C_R   0.851248 0.461721 0.504398 0.053716
C11   C     C_R   0.616900 0.154908 0.621127 -0.186019
C12   C     C_R   0.367438 0.500769 0.499480 0.787230
C13   C     C_R   0.679604 0.108905 0.654639 -0.165558
C14   C     C_R   0.691386 0.989664 0.618093 -0.121870
C15   C     C_R   0.638661 0.910965 0.558823 -0.033077
C16   C     C_R   0.570846 0.951021 0.539776 0.035746
C17   C     C_R   0.562807 0.078916 0.558649 0.101255
C18   C     C_R   0.502882 0.129628 0.505874 -0.078832
C19   C     C_R   0.449072 0.054192 0.447321 -0.208792
C20   C     C_R   0.452633 0.927057 0.445460 -0.160170
C21   C     C_R   0.512071 0.873768 0.493078 -0.096156
C22   C     C_R   0.596908 0.658589 0.141899 -0.153811
C23   C     C_R   0.507652 0.738070 0.498477 0.781753
C24   C     C_R   0.651900 0.721264 0.071687 -0.232958
C25   C     C_R   0.655640 0.714743 0.928532 -0.026257
C26   C     C_R   0.601210 0.653440 0.854960 -0.193815
C27   C     C_R   0.548736 0.577042 0.924264 0.198440
C28   C     C_R   0.547888 0.577921 0.073475 0.196296
C29   C     C_R   0.453859 0.425817 0.075060 -0.024922
C30   C     C_R   0.453689 0.426211 0.927151 -0.044893
C31   C     C_R   0.631753 0.491471 0.500641 0.788442
C32   C     C_R   0.254292 0.461245 0.620120 -0.187490
C33   C     C_R   0.182040 0.453555 0.622379 -0.149538
C34   C     C_R   0.144578 0.483187 0.502784 0.039739
C35   C     C_R   0.180645 0.522947 0.381577 -0.189971
C36   C     C_R   0.253069 0.531933 0.378371 -0.028032
Cu1   Cu    Cu3+1 0.500000 0.499990 0.640660 0.940596
Cu2   Cu    Cu3+1 0.500000 0.500010 0.359340 0.953376
H1    H     H_    0.691978 0.774170 0.129615 0.181549
N1    N     N_R   0.032129 0.483259 0.383010 -0.234563
N2    N     N_R   0.963230 0.477488 0.383284 -0.233886
N3    N     N_R   0.963392 0.452019 0.625214 -0.234859
N4    N     N_R   0.032394 0.457454 0.624904 -0.233388
N5    N     N_R   0.500660 0.501210 0.147910 -0.197908
N6    N     N_R   0.500680 0.501290 0.852040 -0.195233
O1    O     O_R   0.499990 0.319640 0.618810 -0.587516
O2    O     O_R   0.500000 0.319660 0.381240 -0.572285
O3    O     O_R   0.400140 0.499970 0.618820 -0.572574
O4    O     O_R   0.400150 0.500000 0.381250 -0.569427
O5    O     O_R   0.500000 0.680340 0.618760 -0.575526
O6    O     O_R   0.500010 0.680360 0.381190 -0.586457
O7    O     O_R   0.599850 0.500000 0.618750 -0.617705
O8    O     O_R   0.599860 0.500030 0.381180 -0.592587
H2    H     H_    0.281542 0.435561 0.713690 0.157627
H3    H     H_    0.612776 0.251503 0.641518 0.160407
H4    H     H_    0.721120 0.169191 0.698792 0.154564
H5    H     H_    0.743898 0.962464 0.626075 0.173393
C37   C     C_1   0.663402 0.810558 0.483899 0.172003
N7    N     N_1   0.687527 0.735147 0.421258 -0.317900
H6    H     H_    0.408467 0.869483 0.406752 0.152272
H7    H     H_    0.416089 0.364942 0.131129 0.133503
H8    H     H_    0.595446 0.673464 0.250069 0.223658
C38   C     C_1   0.718131 0.762769 0.859086 0.239954
N8    N     N_1   0.769411 0.798955 0.805336 -0.290122
H9    H     H_    0.602463 0.667595 0.745075 0.198726
H10   H     H_    0.155566 0.422893 0.717492 0.158028
H11   H     H_    0.415795 0.365632 0.872916 0.131139
H12   H     H_    0.152395 0.548323 0.289009 0.158862
C39   C     C_1   0.286387 0.578185 0.251237 0.251092
N9    N     N_1   0.312932 0.615302 0.149333 -0.274979
H13   H     H_    0.841762 0.468113 0.729100 0.158512
H14   H     H_    0.716742 0.481408 0.727331 0.155075
H15   H     H_    0.716029 0.468507 0.277843 0.157547
H16   H     H_    0.840891 0.455582 0.279463 0.155713
H17   H     H_    0.403257 0.093776 0.406456 0.140505

loop_
_geom_bond_atom_site_label_1
_geom_bond_atom_site_label_2
_ccdc_geom_bond_type
C8    C9    A    
C3    N3    A    
C16   C21   A    
C30   N6    A    
C35   C36   A    
C31   O7    A    
C12   O3    A    
C2    C12   S    
C12   O4    A    
C7    C8    A    
Cu2   O4    S    
C6    H14   S    
C1    C18   S    
Cu1   Cu2   S    
C34   C35   A    
C5    C6    A    
C1    O1    A    
C15   C16   A    
C24   H1    S    
C2    C32   A    
C18   C19   A    
C25   C38   S    
C11   C17   A    
C4    N1    A    
C16   C17   A    
C20   H6    S    
C9    C10   A    
C30   H11   S    
C13   H4    S    
C27   N6    A    
C22   C28   A    
C13   C14   A    
C32   H2    S    
C33   H10   S    
C33   C34   A    
C29   H7    S    
C4    C34   S    
C7    C31   S    
C24   C25   A    
Cu1   O7    S    
C1    O2    A    
C23   O5    A    
Cu2   O6    S    
C25   C26   A    
C28   N5    A    
Cu2   N5    S    
C29   C30   A    
C22   H8    S    
C23   O6    A    
C17   C18   A    
C26   C27   A    
C31   O8    A    
Cu1   O3    S    
Cu2   O2    S    
N1    N2    A    
C21   C23   S    
C29   N5    A    
C15   C37   S    
C22   C24   A    
N3    N4    A    
Cu1   N6    S    
C11   H3    S    
C36   C39   S    
C2    C36   A    
C14   H5    S    
C3    N2    A    
C26   H9    S    
C6    C7    A    
C4    N4    A    
C32   C33   A    
C19   C20   A    
C19   H17   S    
C37   N7    T    
C5    C10   A    
C5    H13   S    
C3    C10   S    
Cu1   O5    S    
C11   C13   A    
Cu2   O8    S    
C35   H12   S    
C8    H15   S    
C39   N9    T    
C38   N8    T    
C20   C21   A    
C9    H16   S    
C27   C28   A    
C14   C15   A    
Cu1   O1    S    
