data_mof_unit_3871.cif
_audit_creation_date              2012-12-10T17:53:15-0500
_audit_creation_method            fapswitch 2.2
_symmetry_space_group_name_H-M    P1
_symmetry_Int_Tables_number       1
_space_group_crystal_system       triclinic
_cell_length_a                    23.424948
_cell_length_b                    10.7222
_cell_length_c                    9.877779
_cell_angle_alpha                 89.555605
_cell_angle_beta                  90.072255
_cell_angle_gamma                 91.545634
_cell_volume                      2479.99324517

loop_
_atom_site_label
_atom_site_type_symbol
_atom_type_description
_atom_site_fract_x
_atom_site_fract_y
_atom_site_fract_z
_atom_type_partial_charge
C1    C     C_R   0.504424 0.260186 0.501600 0.941621
C2    C     C_R   0.121394 0.548775 0.601395 0.544222
C3    C     C_R   0.239022 0.604827 0.455800 -0.043574
C4    C     C_R   0.389693 0.498970 0.499835 0.968949
C5    C     C_R   0.299100 0.606494 0.460471 -0.124591
C6    C     C_R   0.327685 0.496906 0.498493 -0.197865
C7    C     C_R   0.296774 0.385325 0.530532 -0.067935
C8    C     C_R   0.237414 0.386780 0.529015 -0.119770
C9    C     C_R   0.208853 0.494172 0.492178 0.197865
C10   C     C_R   0.760461 0.441378 0.608882 -0.083130
C11   C     C_R   0.701241 0.443541 0.609013 -0.219427
C12   C     C_R   0.967678 0.372412 0.296356 -0.127679
C13   C     C_R   0.672476 0.498780 0.500474 -0.036726
C14   C     C_R   0.703232 0.552663 0.392389 -0.212895
C15   C     C_R   0.762491 0.552890 0.393878 -0.084844
C16   C     C_R   0.494998 0.739325 0.500130 0.917959
C17   C     C_R   0.791216 0.496915 0.501870 0.296368
C18   C     C_R   0.516465 0.110543 0.760273 -0.162667
C19   C     C_R   0.499058 0.049336 0.878894 -0.145919
C20   C     C_R   0.468603 0.936701 0.871311 -0.170317
C21   C     C_R   0.460802 0.879622 0.746170 -0.098444
C22   C     C_R   0.483345 0.935762 0.626423 0.113634
C23   C     C_R   0.026922 0.370939 0.294895 -0.130625
C24   C     C_R   0.502997 0.059666 0.631382 0.090151
C25   C     C_R   0.507611 0.126465 0.506701 -0.100132
C26   C     C_R   0.505471 0.064147 0.383014 -0.201317
C27   C     C_R   0.498214 0.937258 0.381111 -0.218203
C28   C     C_R   0.610517 0.500011 0.500077 0.863582
C29   C     C_R   0.488762 0.872158 0.502163 -0.066581
C30   C     C_R   0.425475 0.335707 0.141584 -0.152322
C31   C     C_R   0.389088 0.254253 0.071735 -0.180053
C32   C     C_R   0.389089 0.254350 0.931686 -0.152932
C33   C     C_R   0.425525 0.335795 0.860780 -0.146031
C34   C     C_R   0.058528 0.431090 0.396922 -0.020623
C35   C     C_R   0.463320 0.418928 0.928192 0.146383
C36   C     C_R   0.463317 0.418934 0.072986 0.161178
C37   C     C_R   0.534904 0.577931 0.071051 -0.113142
C38   C     C_R   0.534877 0.577920 0.927693 -0.116021
C39   C     C_R   0.881209 0.557445 0.604111 0.523168
C40   C     C_R   0.879573 0.435875 0.401965 0.515379
C41   C     C_R   0.938976 0.434847 0.399323 -0.007821
C42   C     C_R   0.970120 0.497085 0.502171 -0.017923
C43   C     C_R   0.941482 0.561952 0.605426 -0.091530
C44   C     C_2   0.949964 0.706052 0.811424 1.005112
C45   C     C_R   0.030151 0.493760 0.501280 -0.008909
C46   C     C_2   0.207369 0.718473 0.417403 0.984444
C47   C     C_2   0.332098 0.721848 0.423880 0.969873
C48   C     C_2   0.324361 0.264698 0.561713 0.881810
C49   C     C_R   0.061824 0.552700 0.604590 -0.032799
C50   C     C_R   0.033758 0.616638 0.706662 -0.179185
C51   C     C_R   0.974358 0.625282 0.706624 -0.037768
C52   C     C_R   0.118153 0.431410 0.396696 0.576363
H1    H     H_    0.944472 0.324564 0.216351 0.199354
H2    H     H_    0.360808 0.190696 0.877550 0.189172
H3    H     H_    0.423050 0.330244 0.753624 0.227195
H4    H     H_    0.563298 0.641562 0.873113 0.156994
H5    H     H_    0.058311 0.664399 0.784713 0.215166
H6    H     H_    0.212482 0.303347 0.554772 0.191296
H7    H     H_    0.782538 0.396993 0.691918 0.158851
H8    H     H_    0.677930 0.400583 0.692610 0.159511
H9    H     H_    0.681502 0.596245 0.308256 0.157650
H10   H     H_    0.541751 0.195450 0.772063 0.164531
H11   H     H_    0.452614 0.891609 0.962639 0.151955
H12   H     H_    0.786190 0.596489 0.311326 0.157896
H13   H     H_    0.047805 0.322365 0.213803 0.199983
H14   H     H_    0.944831 0.747393 0.009807 0.353889
H15   H     H_    0.199782 0.904735 0.434653 0.361889
H16   H     H_    0.349864 0.854729 0.283539 0.347246
H17   H     H_    0.317343 0.094350 0.649592 0.365523
H18   H     H_    0.509865 0.113143 0.287041 0.166700
H19   H     H_    0.508098 0.090822 0.976463 0.143962
H20   H     H_    0.436609 0.792322 0.744337 0.194459
H21   H     H_    0.500728 0.890275 0.284632 0.167101
H22   H     H_    0.563379 0.641514 0.124661 0.144078
H23   H     H_    0.422460 0.330629 0.248846 0.230205
H24   H     H_    0.360635 0.190876 0.126799 0.181222
N1    N     N_R   0.852174 0.496728 0.502730 -0.357427
N2    N     N_R   0.148014 0.490848 0.497172 -0.347945
N3    N     N_R   0.499460 0.498800 0.142780 -0.122608
N4    N     N_R   0.499440 0.498720 0.857170 -0.129664
O1    O     O_R   0.500000 0.316780 0.614690 -0.652925
O2    O     O_R   0.583850 0.500050 0.614640 -0.623781
O3    O     O_R   0.583840 0.500030 0.385310 -0.620298
O4    O     O_2   0.851374 0.611378 0.703372 -0.524198
O5    O     O_2   0.921093 0.794669 0.778436 -0.564426
O6    O     O_R   0.963021 0.685003 0.947690 -0.787382
O7    O     O_2   0.165796 0.709992 0.342693 -0.598132
O8    O     O_R   0.224736 0.834983 0.467846 -0.757380
O9    O     O_2   0.364607 0.769783 0.506355 -0.656601
O10   O     O_R   0.325154 0.776401 0.296149 -0.771822
O11   O     O_2   0.372036 0.243499 0.519019 -0.668185
O12   O     O_2   0.849138 0.374949 0.305607 -0.550319
O13   O     O_R   0.294618 0.172733 0.636560 -0.784016
O14   O     O_2   0.146242 0.374245 0.296429 -0.528544
O15   O     O_2   0.152685 0.603167 0.700659 -0.522835
O16   O     O_R   0.500000 0.316750 0.385360 -0.640261
O17   O     O_R   0.416160 0.499970 0.614690 -0.621906
O18   O     O_R   0.416150 0.499950 0.385360 -0.627092
O19   O     O_R   0.500000 0.683250 0.614640 -0.634976
O20   O     O_R   0.500000 0.683220 0.385310 -0.625304
Zn1   Zn    Zn3+2 0.500000 0.500020 0.653130 0.946727
Zn2   Zn    Zn3+2 0.500000 0.499980 0.346870 0.957113

loop_
_geom_bond_atom_site_label_1
_geom_bond_atom_site_label_2
_ccdc_geom_bond_type
C33   H3    S    
C37   H22   S    
O3    Zn2   S    
C4    O18   A    
C27   C29   A    
C41   C42   A    
C19   H19   S    
C35   C36   A    
C7    C8    A    
O1    Zn1   S    
C37   N3    A    
C12   C23   A    
C26   C27   A    
C37   C38   A    
C3    C9    A    
C39   N1    A    
C2    O15   S    
C22   C29   A    
C39   O4    S    
O16   Zn2   S    
C30   C31   A    
C52   N2    A    
C10   C17   A    
C1    O1    A    
C35   N4    A    
C18   C19   A    
C8    H6    S    
C19   C20   A    
C8    C9    A    
C48   O11   D    
H16   O10   S    
C15   H12   S    
C13   C28   S    
C52   O14   S    
C13   C14   A    
C12   H1    S    
C21   C22   A    
C28   O3    A    
C1    C25   S    
C47   O9    D    
C44   O6    S    
C32   H2    S    
C46   O8    S    
C48   O13   S    
C21   H20   S    
C28   O2    A    
C24   C25   A    
C4    C6    S    
C16   O20   A    
C39   C43   A    
C25   C26   A    
O18   Zn2   S    
C14   H9    S    
C42   C45   A    
C12   C41   A    
C2    N2    A    
C2    C49   A    
C5    C47   S    
C17   N1    S    
C31   C32   A    
C45   C49   A    
C23   C34   A    
O20   Zn2   S    
C50   C51   A    
H15   O8    S    
N3    Zn2   S    
C34   C45   A    
C40   O12   S    
C44   C51   S    
C40   C41   A    
O19   Zn1   S    
C26   H18   S    
C47   O10   S    
C18   C24   A    
C42   C43   A    
C44   O5    D    
C46   O7    D    
C15   C17   A    
C40   N1    A    
C50   H5    S    
C34   C52   A    
C18   H10   S    
C3    C5    A    
C36   N3    A    
H14   O6    S    
C16   O19   A    
C6    C7    A    
C3    C46   S    
H17   O13   S    
C30   C36   A    
N4    Zn1   S    
C7    C48   S    
C23   H13   S    
C20   H11   S    
C10   H7    S    
C16   C29   S    
C27   H21   S    
C32   C33   A    
C30   H23   S    
C11   C13   A    
C43   C51   A    
C31   H24   S    
C5    C6    A    
C38   N4    A    
C1    O16   A    
C33   C35   A    
O2    Zn1   S    
C22   C24   A    
C9    N2    S    
C10   C11   A    
C38   H4    S    
C20   C21   A    
C49   C50   A    
C14   C15   A    
C4    O17   A    
O17   Zn1   S    
C11   H8    S    
