data_mof_unit_4646.cif
_audit_creation_date              2013-03-05T15:40:25-0500
_audit_creation_method            fapswitch 2.2
_symmetry_space_group_name_H-M    P1
_symmetry_Int_Tables_number       1
_space_group_crystal_system       triclinic
_cell_length_a                    7.77246
_cell_length_b                    8.621893
_cell_length_c                    10.600865
_cell_angle_alpha                 90.869095
_cell_angle_beta                  85.794525
_cell_angle_gamma                 93.756973
_cell_volume                      706.925475286

loop_
_atom_site_label
_atom_site_type_symbol
_atom_site_description
_atom_site_fract_x
_atom_site_fract_y
_atom_site_fract_z
_atom_type_partial_charge
O1    O     O_R   0.389250 0.738570 0.508280 -0.569625
O2    O     O_R   0.678390 0.711630 0.486650 -0.603447
C1    C     C_R   0.544708 0.794548 0.494023 0.933935
O3    O     O_R   0.355400 0.513470 0.694050 -0.613523
O4    O     O_R   0.644540 0.486530 0.672420 -0.620760
C2    C     C_R   0.502576 0.503583 0.739233 0.851595
Zn1   Zn    Zn3+2 0.306930 0.517990 0.514440 1.018554
Zn2   Zn    Zn3+2 0.693070 0.482010 0.485560 0.986341
O5    O     O_R   0.321610 0.288370 0.513350 -0.587008
O6    O     O_R   0.610750 0.261430 0.491720 -0.633693
O7    O     O_R   0.355460 0.513470 0.327580 -0.624166
O8    O     O_R   0.644600 0.486530 0.305950 -0.607239
C3    C     C_R   0.453642 0.205935 0.501774 0.857509
C4    C     C_R   0.498604 0.502375 0.260625 0.843774
H1    H     H_    0.586828 0.278271 0.877961 0.151250
C5    C     C_R   0.428117 0.787523 0.875523 -0.152817
H2    H     H_    0.433223 0.793916 0.773505 0.148048
C6    C     C_R   0.388272 0.920755 0.945063 -0.132569
H3    H     H_    0.361758 0.025371 0.896757 0.153026
C7    C     C_R   0.384343 0.919704 0.076546 -0.111864
H4    H     H_    0.354907 0.023554 0.130394 0.157736
C8    C     C_R   0.419696 0.785264 0.138842 -0.135466
H5    H     H_    0.418369 0.789800 0.240742 0.169578
C9    C     C_R   0.458512 0.648781 0.069764 0.075300
C10   C     C_R   0.463541 0.650108 0.937484 0.085639
C11   C     C_R   0.508157 0.513855 0.871170 -0.077826
C12   C     C_R   0.552155 0.381485 0.931200 -0.198281
H6    H     H_    0.578828 0.276113 0.107500 0.147888
C13   C     C_R   0.546490 0.379968 0.060284 -0.202926
C14   C     C_R   0.497417 0.510981 0.128408 -0.075426
C15   C     C_2   0.564226 0.957974 0.489039 -0.519545
H7    H     H_    0.696166 0.009041 0.485612 0.211647
C16   C     C_2   0.424595 0.043984 0.495743 0.120636
N1    N     N_2   0.950330 0.457950 0.466250 -0.156844
H8    H     H_    0.013574 0.382205 0.405995 0.206590
N2    N     N_2   0.049670 0.542050 0.533750 -0.142215
H9    H     H_    0.986483 0.617877 0.593961 0.219139
N3    N     N_R   0.247709 0.982357 0.495403 0.238684
O9    O     O_R   0.144015 0.994583 0.596618 -0.399316
O10   O     O_R   0.184077 0.940445 0.389057 -0.412314

loop_
_geom_bond_atom_site_label_1
_geom_bond_atom_site_label_2
_geom_bond_distance
_ccdc_geom_bond_type
O4    Zn2   1.989390 S    
C1    C15   1.408641 S    
C15   C16   1.351059 D    
C3    C16   1.401029 S    
C13   C14   1.390786 A    
C12   C13   1.366109 A    
Zn1   N2    2.018946 S    
C6    C7    1.392078 A    
C15   H7    1.087504 S    
Zn2   O8    1.969295 S    
O2    C1    1.296359 A    
C5    C6    1.395114 A    
Zn2   N1    2.018946 S    
C9    C10   1.400155 A    
Zn1   O7    1.989390 S    
C11   C12   1.389071 A    
C2    C11   1.403774 S    
C4    C14   1.405437 S    
O3    Zn1   1.969295 S    
O4    C2    1.282285 A    
C8    C9    1.414208 A    
O3    C2    1.280478 A    
H6    C13   1.084921 S    
N3    O10   1.300824 A    
O8    C4    1.280411 A    
C6    H3    1.082650 S    
N1    N2    1.275101 D    
N3    O9    1.301083 A    
O7    C4    1.283292 A    
C9    C14   1.409451 A    
C7    H4    1.082635 S    
Zn2   O6    1.966908 S    
N1    H8    1.029316 S    
C5    C10   1.415556 A    
Zn1   O5    1.990306 S    
O5    C3    1.283667 A    
C8    H5    1.079661 S    
N2    H9    1.029308 S    
C10   C11   1.409643 A    
O1    Zn1   1.966908 S    
H1    C12   1.084880 S    
O2    Zn2   1.990306 S    
C16   N3    1.441336 S    
C7    C8    1.395273 A    
C5    H2    1.081403 S    
O1    C1    1.270730 A    
O6    C3    1.279573 A    
