data_mof_unit_3282.cif
_audit_creation_date              2013-03-05T15:45:30-0500
_audit_creation_method            fapswitch 2.2
_symmetry_space_group_name_H-M    P1
_symmetry_Int_Tables_number       1
_space_group_crystal_system       triclinic
_cell_length_a                    20.755178
_cell_length_b                    7.385991
_cell_length_c                    20.198378
_cell_angle_alpha                 89.989047
_cell_angle_beta                  101.809762
_cell_angle_gamma                 89.995155
_cell_volume                      3030.8197998

loop_
_atom_site_label
_atom_site_type_symbol
_atom_site_description
_atom_site_fract_x
_atom_site_fract_y
_atom_site_fract_z
_atom_type_partial_charge
O1    O     O_R   0.423690 0.494470 0.435930 -0.575451
O2    O     O_R   0.576310 0.994470 0.564070 -0.575967
O3    O     O_R   0.556070 0.822310 0.435760 -0.568783
O4    O     O_R   0.443930 0.322310 0.564240 -0.568824
C1    C     C_R   0.575085 0.655926 0.421381 0.969538
C2    C     C_R   0.424905 0.155917 0.578606 0.970560
O5    O     O_R   0.422940 0.824080 0.428040 -0.563053
O6    O     O_R   0.577060 0.324080 0.571960 -0.563524
O7    O     O_R   0.442240 0.995960 0.556300 -0.554744
O8    O     O_R   0.557760 0.495960 0.443700 -0.554582
C3    C     C_R   0.399351 0.656258 0.411503 1.080999
C4    C     C_R   0.600632 0.156210 0.588507 1.081498
O9    O     O_3   0.506490 0.661310 0.542090 -0.276003
O10   O     O_3   0.493510 0.161310 0.457910 -0.275308
V1    V     V_3+5 0.498800 0.935560 0.492190 1.360928
V2    V     V_3+5 0.501200 0.435560 0.507810 1.360775
C5    C     C_R   0.838423 0.086248 0.858540 -0.444641
C6    C     C_R   0.161563 0.586066 0.141484 -0.444675
C7    C     C_R   0.662189 0.151464 0.641163 -0.444661
C8    C     C_R   0.337796 0.651716 0.358825 -0.444388
C9    C     C_R   0.778716 0.227802 0.676430 0.310411
C10   C     C_R   0.221565 0.731049 0.323108 0.310977
C11   C     C_R   0.719848 0.228271 0.627343 0.336266
C12   C     C_R   0.280357 0.730803 0.372299 0.337383
C13   C     C_R   0.662568 0.078715 0.705820 0.325141
C14   C     C_R   0.337255 0.577188 0.294415 0.325564
C15   C     C_R   0.720350 0.091349 0.758211 -0.218181
C16   C     C_R   0.279569 0.590173 0.241919 -0.218012
C17   C     C_R   0.780547 0.152726 0.741873 -0.181986
C18   C     C_R   0.219560 0.654056 0.257955 -0.181577
C19   C     C_R   0.840251 0.136927 0.791700 0.457868
C20   C     C_R   0.159842 0.638722 0.208135 0.458733
C21   C     C_R   0.778031 0.048055 0.876147 0.326756
C22   C     C_R   0.221857 0.545440 0.124087 0.327479
C23   C     C_R   0.719371 0.048047 0.826831 0.280836
C24   C     C_R   0.280467 0.544826 0.173467 0.280876
C25   C     C_3   0.271648 0.239787 0.832612 0.378194
C26   C     C_3   0.728374 0.740047 0.167379 0.378233
C27   C     C_3   0.242646 0.918920 0.787538 0.633736
C28   C     C_3   0.757335 0.419067 0.212436 0.633733
C29   C     C_3   0.297516 0.935975 0.740893 0.411810
C30   C     C_3   0.702459 0.436108 0.259071 0.411705
C31   C     C_1   0.380631 0.148683 0.625284 -0.047692
C32   C     C_1   0.619344 0.648726 0.374686 -0.048010
C33   C     C_3   0.213194 0.109076 0.798256 -0.534895
C34   C     C_3   0.786805 0.609203 0.201734 -0.534983
C35   C     C_3   0.324031 0.265204 0.780954 0.228244
C36   C     C_3   0.675963 0.765392 0.219009 0.228355
C37   C     C_3   0.298849 0.138099 0.714539 -0.615296
C38   C     C_3   0.701128 0.638206 0.285428 -0.615202
C39   C     C_3   0.225895 0.200628 0.675811 0.498931
C40   C     C_3   0.774081 0.700639 0.324171 0.498725
C41   C     C_3   0.178932 0.193531 0.727966 0.179597
C42   C     C_3   0.821066 0.693510 0.272037 0.179797
C43   C     C_1   0.343877 0.144336 0.664950 0.478165
C44   C     C_1   0.656092 0.644414 0.335011 0.478228
C45   C     C_1   0.162129 0.094168 0.841535 0.460080
C46   C     C_1   0.837870 0.594267 0.158459 0.459962
C47   C     C_1   0.121832 0.086527 0.877388 -0.094189
C48   C     C_1   0.878167 0.586554 0.122609 -0.094297
H1    H     H_    0.165607 0.333392 0.738204 0.200605
H2    H     H_    0.834433 0.833349 0.261820 0.200670
O11   O     O_R   0.942280 0.741210 0.056360 -0.558859
O12   O     O_R   0.057720 0.241210 0.943640 -0.558846
O13   O     O_R   0.077070 0.409690 0.071960 -0.569461
O14   O     O_R   0.922930 0.909690 0.928040 -0.569658
C49   C     C_R   0.100313 0.578067 0.088712 1.093070
C50   C     C_R   0.899681 0.078100 0.911299 1.093209
O15   O     O_R   0.943940 0.411580 0.064250 -0.566391
O16   O     O_R   0.056060 0.911580 0.935750 -0.566489
O17   O     O_R   0.923670 0.239840 0.935920 -0.573310
O18   O     O_R   0.076330 0.739840 0.064080 -0.572998
C51   C     C_R   0.924786 0.579467 0.078279 0.956218
C52   C     C_R   0.075213 0.079470 0.921721 0.956634
O19   O     O_3   0.993540 0.572620 0.957940 -0.282076
O20   O     O_3   0.006460 0.072620 0.042060 -0.281675
V3    V     V_3+5 0.001200 0.298330 0.007800 1.333036
V4    V     V_3+5 0.998800 0.798330 0.992200 1.332861
Cl1   Cl    Cl    0.919351 0.159239 0.771877 -0.487536
Cl2   Cl    Cl    0.080797 0.663772 0.227852 -0.487054
Cl3   Cl    Cl    0.269689 0.822073 0.870352 -0.333776
Cl4   Cl    Cl    0.730304 0.322346 0.129614 -0.333363
N1    N     N_R   0.365876 0.881678 0.773595 0.285005
O21   O     O_R   0.387896 0.880547 0.838572 -0.182531
O22   O     O_R   0.407652 0.837877 0.736035 -0.221577
N2    N     N_R   0.634101 0.381885 0.226358 0.284985
O23   O     O_R   0.612091 0.380830 0.161379 -0.182484
O24   O     O_R   0.592316 0.338081 0.263909 -0.221350
Cl5   Cl    Cl    0.277947 0.785164 0.669080 -0.332197
Cl6   Cl    Cl    0.722014 0.285209 0.330884 -0.331844
Cl7   Cl    Cl    0.096598 0.111338 0.694053 -0.277210
Cl8   Cl    Cl    0.903382 0.611152 0.305970 -0.277506
N3    N     N_R   0.225614 0.384129 0.646299 0.269175
O25   O     O_R   0.172762 0.483158 0.639887 -0.187277
O26   O     O_R   0.263005 0.415320 0.603040 -0.263915
N4    N     N_R   0.774359 0.884127 0.353668 0.269186
O27   O     O_R   0.827216 0.983109 0.360091 -0.187137
O28   O     O_R   0.736956 0.915325 0.396912 -0.263579
Cl9   Cl    Cl    0.229503 0.443095 0.847549 -0.414851
Cl10  Cl    Cl    0.770550 0.943370 0.152526 -0.414751
N5    N     N_R   0.326496 0.452161 0.759075 0.272176
O29   O     O_R   0.357930 0.485014 0.710849 -0.278664
O30   O     O_R   0.335460 0.569351 0.807290 -0.216363
N6    N     N_R   0.673472 0.952331 0.240877 0.272186
O31   O     O_R   0.642030 0.985139 0.289098 -0.278644
O32   O     O_R   0.664501 0.069552 0.192653 -0.216341
Cl11  Cl    Cl    0.192069 0.067328 0.601502 -0.251197
Cl12  Cl    Cl    0.807875 0.567267 0.398495 -0.251376
Cl13  Cl    Cl    0.775333 0.009724 0.962029 -0.407691
Cl14  Cl    Cl    0.224535 0.504892 0.038351 -0.408192
N7    N     N_R   0.834118 0.322247 0.661038 0.295154
O33   O     O_R   0.850785 0.479125 0.688581 -0.272306
O34   O     O_R   0.862761 0.262804 0.613692 -0.156563
N8    N     N_R   0.166524 0.828313 0.337984 0.294855
O35   O     O_R   0.150426 0.984516 0.309571 -0.274498
O36   O     O_R   0.137570 0.771980 0.385549 -0.156632
N9    N     N_R   0.658430 0.023506 0.848763 0.290662
O37   O     O_R   0.646947 0.873631 0.878202 -0.179512
O38   O     O_R   0.618112 0.159195 0.846901 -0.209620
N10   N     N_R   0.341344 0.517403 0.151706 0.290621
O39   O     O_R   0.352299 0.366149 0.122865 -0.180976
O40   O     O_R   0.382122 0.651770 0.153009 -0.208804
Cl15  Cl    Cl    0.718918 0.326467 0.547045 -0.444483
Cl16  Cl    Cl    0.281459 0.831052 0.452278 -0.445717
N11   N     N_R   0.605328 0.982993 0.716468 0.256486
O41   O     O_R   0.608841 0.809916 0.728682 -0.293996
O42   O     O_R   0.548422 0.063562 0.706982 -0.332937
N12   N     N_R   0.394221 0.479503 0.284135 0.256611
O43   O     O_R   0.390236 0.306120 0.272660 -0.295171
O44   O     O_R   0.451339 0.558791 0.293243 -0.332156
N13   N     N_R   0.393942 0.231944 0.815002 0.294239
O45   O     O_R   0.436414 0.182243 0.779278 -0.255056
O46   O     O_R   0.418588 0.328551 0.868209 -0.138311
N14   N     N_R   0.606062 0.732149 0.184937 0.294216
O47   O     O_R   0.563571 0.682540 0.220659 -0.255661
O48   O     O_R   0.581436 0.828723 0.131698 -0.138407
N15   N     N_R   0.300956 0.181114 0.903404 0.307192
O49   O     O_R   0.358518 0.106886 0.921672 -0.175851
O50   O     O_R   0.265715 0.190720 0.949793 -0.237190
N16   N     N_R   0.699092 0.681604 0.096561 0.307166
O51   O     O_R   0.641579 0.607139 0.078283 -0.175911
O52   O     O_R   0.734305 0.691705 0.050156 -0.237666
Cl17  Cl    Cl    0.175604 0.770610 0.750859 -0.350931
Cl18  Cl    Cl    0.824369 0.270672 0.249130 -0.350855

loop_
_geom_bond_atom_site_label_1
_geom_bond_atom_site_label_2
_geom_bond_distance
_ccdc_geom_bond_type
O14   C50   1.351797 A    
N3    O25   1.302586 A    
C35   N5    1.453867 S    
O16   V4    1.991628 S    
O12   V3    1.963654 S    
C29   Cl5   1.808101 S    
N7    O33   1.301266 A    
O1    C3    1.350632 A    
O17   V3    1.981906 S    
O2    C4    1.350518 A    
N12   O43   1.301076 A    
C2    O7    1.339680 A    
N6    O32   1.287812 A    
N8    O35   1.301241 A    
C27   C29   1.624680 S    
C28   C34   1.564349 S    
N15   O50   1.303250 A    
C33   C45   1.509585 S    
N5    O29   1.301324 A    
O20   V4    2.253683 S    
C36   N14   1.493371 S    
N16   O52   1.303315 A    
N9    O38   1.301174 A    
N2    O24   1.304349 A    
C45   C47   1.214513 T    
C15   C17   1.429755 A    
C46   C48   1.214495 T    
C36   N6    1.453873 S    
C48   C51   1.447532 S    
C12   Cl16  1.773068 S    
C49   O18   1.349551 A    
C13   N11   1.436033 S    
O18   V4    1.981724 S    
C41   H1    1.099913 S    
O13   C49   1.351771 A    
N10   O40   1.301137 A    
C37   C39   1.622617 S    
N4    O28   1.302428 A    
O16   C52   1.349838 A    
C38   C40   1.622629 S    
O15   C51   1.349862 A    
C30   N2    1.492103 S    
C25   C35   1.664410 S    
C26   C36   1.664409 S    
C27   C33   1.564371 S    
C36   C38   1.633294 S    
C33   C41   1.580122 S    
O6    V2    2.000049 S    
C25   N15   1.498695 S    
C34   C46   1.509543 S    
C5    C21   1.399885 A    
C39   Cl11  1.812279 S    
C7    C13   1.410621 A    
C29   C37   1.587002 S    
N6    O31   1.301323 A    
C9    N7    1.432414 S    
C40   C42   1.575744 S    
O14   V4    1.999919 S    
C3    C8    1.486286 S    
O13   V3    2.000229 S    
C28   Cl4   1.799981 S    
O20   V3    1.799604 S    
C27   Cl3   1.799944 S    
C35   C37   1.633286 S    
N2    O23   1.298422 A    
C11   Cl15  1.773023 S    
O5    V1    2.000363 S    
C42   H2    1.099876 S    
C15   C23   1.426565 A    
C6    C49   1.483619 S    
C37   C43   1.503944 S    
C9    C17   1.426667 A    
C38   C44   1.503987 S    
C35   N13   1.493374 S    
C39   C41   1.575709 S    
O4    V2    1.991494 S    
O5    C3    1.349459 A    
C42   Cl8   1.810825 S    
C20   Cl2   1.775344 S    
O19   V3    2.253314 S    
C32   C44   1.214549 T    
N1    O21   1.298410 A    
C10   N8    1.432443 S    
O6    C4    1.349511 A    
N4    O27   1.302585 A    
C34   C42   1.580168 S    
N7    O34   1.301380 A    
O1    V2    1.982127 S    
C14   N12   1.435969 S    
N16   O51   1.297502 A    
O2    V1    1.982309 S    
C6    C22   1.399821 A    
C47   C52   1.447553 S    
C16   C24   1.426501 A    
C30   C38   1.587018 S    
C41   Cl7   1.810840 S    
C26   Cl10  1.794187 S    
N1    O22   1.304352 A    
C1    C32   1.445983 S    
C39   N3    1.480050 S    
C2    C31   1.445939 S    
C9    C11   1.407131 A    
N11   O41   1.301098 A    
C5    C19   1.408903 A    
C10   C12   1.407097 A    
C23   N9    1.434665 S    
O4    C2    1.340654 A    
C6    C20   1.408825 A    
C25   C33   1.594168 S    
N13   O45   1.301131 A    
O3    C1    1.340636 A    
C25   Cl9   1.794180 S    
O3    V1    1.991591 S    
N10   O39   1.301348 A    
C7    C11   1.403103 A    
C31   C43   1.214522 T    
C5    C50   1.483605 S    
C26   N16   1.498721 S    
C10   C18   1.426459 A    
C27   Cl17  1.806554 S    
N13   O46   1.304264 A    
N12   O44   1.301173 A    
N8    O36   1.301353 A    
C19   Cl1   1.775350 S    
N14   O47   1.301165 A    
C13   C15   1.430855 A    
O11   C51   1.349311 A    
N15   O49   1.297486 A    
C14   C16   1.430846 A    
C28   Cl18  1.806562 S    
O7    V1    1.968823 S    
C16   C18   1.429645 A    
C17   C19   1.432293 A    
O8    V2    1.968753 S    
N9    O37   1.301379 A    
C18   C20   1.432207 A    
O15   V3    1.991726 S    
N3    O26   1.302428 A    
C8    C14   1.410666 A    
C50   O17   1.349549 A    
C22   Cl14  1.769531 S    
C4    C7    1.486105 S    
C28   C30   1.624660 S    
C21   C23   1.406457 A    
N14   O48   1.304256 A    
C40   N4    1.480055 S    
C22   C24   1.406402 A    
C24   N10   1.434579 S    
O19   V4    1.799867 S    
C26   C34   1.594149 S    
C1    O8    1.339675 A    
C21   Cl13  1.769732 S    
C40   Cl12  1.812283 S    
N5    O30   1.287789 A    
O9    V2    1.800280 S    
N11   O42   1.301158 A    
O12   C52   1.349391 A    
O10   V1    1.800018 S    
C30   Cl6   1.808108 S    
C8    C12   1.403301 A    
O11   V4    1.963590 S    
C29   N1    1.492102 S    
