data_mof_unit_4400.cif
_audit_creation_date              2012-12-10T18:02:06-0500
_audit_creation_method            fapswitch 2.2
_symmetry_space_group_name_H-M    P1
_symmetry_Int_Tables_number       1
_space_group_crystal_system       triclinic
_cell_length_a                    10.8407
_cell_length_b                    9.504364
_cell_length_c                    23.498779
_cell_angle_alpha                 90.190505
_cell_angle_beta                  89.199965
_cell_angle_gamma                 89.955799
_cell_volume                      2420.92200902

loop_
_atom_site_label
_atom_site_type_symbol
_atom_type_description
_atom_site_fract_x
_atom_site_fract_y
_atom_site_fract_z
_atom_type_partial_charge
C1    C     C_R   0.262003 0.500031 0.500004 0.794525
C2    C     C_R   0.737997 0.499969 0.499998 0.794546
C3    C     C_R   0.524209 0.620485 0.237803 -0.100168
C4    C     C_R   0.486943 0.627251 0.761797 -0.091251
C5    C     C_R   0.518631 0.623634 0.297206 -0.218259
C6    C     C_R   0.491725 0.627819 0.702422 -0.218757
C7    C     C_R   0.506866 0.497819 0.328140 -0.040130
C8    C     C_R   0.493018 0.500320 0.671866 -0.040752
C9    C     C_R   0.501858 0.369063 0.298632 -0.208875
C10   C     C_R   0.487822 0.372549 0.701767 -0.214239
C11   C     C_R   0.507039 0.366299 0.239398 -0.115793
C12   C     C_R   0.482933 0.372319 0.761054 -0.125694
C13   C     C_R   0.517794 0.491821 0.208788 0.357527
C14   C     C_R   0.483119 0.499466 0.791275 0.350405
C15   C     C_R   0.063921 0.372166 0.499993 -0.177618
C16   C     C_R   0.936079 0.627833 0.500013 -0.177126
C17   C     C_R   0.936266 0.372130 0.500024 -0.178198
C18   C     C_R   0.063733 0.627869 0.499983 -0.177697
C19   C     C_R   0.871817 0.499962 0.500019 -0.019585
C20   C     C_R   0.128183 0.500037 0.499986 -0.019507
C21   C     C_R   0.423386 0.074252 0.465129 -0.026690
C22   C     C_R   0.576617 0.925749 0.534869 -0.026379
C23   C     C_R   0.576624 0.074679 0.534866 -0.025792
C24   C     C_R   0.423373 0.925322 0.465135 -0.025658
C25   C     C_R   0.501556 0.499661 0.390818 0.803589
C26   C     C_R   0.498379 0.500191 0.609183 0.803307
C27   C     C_R   0.595816 0.531033 0.878173 0.523155
C28   C     C_R   0.405563 0.457213 0.122086 0.533414
C29   C     C_R   0.385894 0.455601 0.882889 0.563564
C30   C     C_R   0.620215 0.512553 0.116929 0.560605
C31   C     C_R   0.390377 0.447974 0.942441 -0.056819
C32   C     C_R   0.618266 0.508279 0.057244 -0.070083
C33   C     C_R   0.501928 0.478987 0.969832 -0.075814
C34   C     C_R   0.506788 0.476977 0.029856 -0.078529
C35   C     C_R   0.608289 0.513034 0.937311 -0.119339
C36   C     C_R   0.400030 0.444903 0.062403 -0.116294
C37   C     C_R   0.286877 0.407233 0.974880 -0.239863
C38   C     C_R   0.725663 0.530966 0.024585 -0.230642
C39   C     C_R   0.291733 0.401072 0.034229 0.467226
C40   C     C_R   0.723062 0.527177 0.965135 0.468798
Cu1   Cu    Cu3+1 0.500000 0.640660 0.500000 0.946150
Cu2   Cu    Cu3+1 0.500000 0.359340 0.500000 0.945696
H1    H     H_    0.201898 0.378024 0.954287 0.190286
H2    H     H_    0.813368 0.548448 0.044998 0.211406
H3    H     H_    0.531479 0.717970 0.214281 0.135380
H4    H     H_    0.487750 0.725914 0.784965 0.141796
H5    H     H_    0.523143 0.724265 0.318826 0.156085
H6    H     H_    0.495253 0.727858 0.680532 0.155871
H7    H     H_    0.493001 0.270383 0.321233 0.154771
H8    H     H_    0.488340 0.272686 0.679433 0.157235
H9    H     H_    0.501295 0.266634 0.217121 0.126953
H10   H     H_    0.481164 0.273198 0.783645 0.135473
H11   H     H_    0.112003 0.272208 0.499977 0.149163
H12   H     H_    0.887997 0.727791 0.500029 0.149171
H13   H     H_    0.888332 0.272165 0.500048 0.149107
H14   H     H_    0.111668 0.727834 0.499959 0.149056
H15   H     H_    0.362068 0.130307 0.437206 0.119236
H16   H     H_    0.637941 0.869696 0.562789 0.120105
H17   H     H_    0.637964 0.131073 0.562782 0.119629
H18   H     H_    0.362025 0.868930 0.437223 0.120554
N1    N     N_R   0.487409 0.497728 0.852231 -0.467976
N2    N     N_R   0.514613 0.488418 0.147834 -0.471621
N3    N     N_R   0.500000 0.852070 0.500000 -0.156598
N4    N     N_R   0.500000 0.147930 0.500000 -0.156306
O1    O     O_R   0.319640 0.618740 0.500000 -0.587603
O2    O     O_R   0.680360 0.381260 0.500000 -0.587555
O3    O     O_R   0.680360 0.618740 0.500000 -0.587700
O4    O     O_R   0.319640 0.381260 0.500000 -0.587749
O5    O     O_R   0.499960 0.618810 0.417880 -0.583130
O6    O     O_R   0.500040 0.381190 0.582120 -0.584078
O7    O     O_R   0.500040 0.618810 0.582120 -0.583238
O8    O     O_R   0.499960 0.381190 0.417880 -0.583874
O9    O     O_2   0.690600 0.582260 0.846725 -0.514442
O10   O     O_2   0.302668 0.441304 0.154364 -0.506539
O11   O     O_2   0.280704 0.422841 0.855823 -0.550758
O12   O     O_2   0.726552 0.540418 0.143910 -0.530881
O13   O     O_3   0.188741 0.353214 0.063812 -0.575407
C41   C     C_3   0.209014 0.213427 0.082667 0.127108
H19   H     H_    0.169130 0.204087 0.126305 0.196463
H20   H     H_    0.308466 0.183686 0.085827 0.111934
C42   C     C_3   0.142796 0.109317 0.044057 -0.426540
H21   H     H_    0.042321 0.132213 0.045668 0.241367
H22   H     H_    0.177201 0.121727 0.999600 0.228986
C43   C     C_3   0.163761 0.957650 0.062756 -0.850075
H23   H     H_    0.263569 0.931265 0.060531 0.254777
H24   H     H_    0.113408 0.885171 0.034117 0.271275
H25   H     H_    0.129021 0.942171 0.106988 0.262497
O14   O     O_3   0.834491 0.539785 0.935895 -0.572339
C44   C     C_3   0.867525 0.409893 0.909739 0.139515
H26   H     H_    0.945497 0.431271 0.879820 0.202185
H27   H     H_    0.792141 0.365244 0.883672 0.143405
C45   C     C_3   0.909309 0.299119 0.952760 -0.448863
H28   H     H_    0.984540 0.342477 0.979157 0.254955
H29   H     H_    0.830883 0.270211 0.981318 0.220445
C46   C     C_3   0.954137 0.166428 0.921871 -0.877177
H30   H     H_    0.883190 0.128329 0.891848 0.263742
H31   H     H_    0.971281 0.081302 0.952888 0.263422
H32   H     H_    0.041011 0.188479 0.897913 0.270139

loop_
_geom_bond_atom_site_label_1
_geom_bond_atom_site_label_2
_ccdc_geom_bond_type
C38   C40   A    
C8    C26   S    
Cu1   Cu2   S    
C46   H30   S    
C43   H25   S    
C28   O10   S    
C42   H21   S    
C46   H32   S    
Cu1   O3    S    
C4    H4    S    
O13   C41   S    
C23   H17   S    
C5    H5    S    
C6    H6    S    
C15   H11   S    
C43   H24   S    
C33   C35   A    
C41   H20   S    
Cu2   O6    S    
C1    O4    A    
C7    C9    A    
C21   N4    A    
C27   N1    A    
C12   H10   S    
C22   N3    A    
C13   N2    S    
C1    O1    A    
C31   C33   A    
C32   C38   A    
C44   H27   S    
C17   H13   S    
C34   C36   A    
C3    C13   A    
C18   H14   S    
Cu1   O7    S    
Cu2   O4    S    
C26   O7    A    
Cu2   O8    S    
C42   H22   S    
C38   H2    S    
C15   C20   A    
C37   C39   A    
C29   N1    A    
C9    H7    S    
C43   H23   S    
C4    C6    A    
C2    O3    A    
C5    C7    A    
C41   H19   S    
C6    C8    A    
C27   C35   A    
C14   N1    S    
C3    H3    S    
C45   C46   S    
C31   C37   A    
C32   C34   A    
C37   H1    S    
C21   H15   S    
C30   O12   S    
C24   H18   S    
C3    C5    A    
C45   H29   S    
C33   C34   A    
C25   O8    A    
C44   C45   S    
C9    C11   A    
C10   C12   A    
C8    C10   A    
C23   N4    A    
C12   C14   A    
C24   N3    A    
C30   N2    A    
C26   O6    A    
C25   O5    A    
Cu1   N3    S    
C10   H8    S    
Cu2   N4    S    
C42   C43   S    
Cu1   O5    S    
C15   C17   A    
C1    C20   S    
C2    C19   S    
C36   C39   A    
C2    O2    A    
C22   H16   S    
Cu1   O1    S    
C46   H31   S    
C29   O11   S    
C7    C25   S    
C40   O14   S    
C35   C40   A    
C29   C31   A    
C30   C32   A    
C11   C13   A    
C41   C42   S    
C16   C19   A    
C45   H28   S    
C17   C19   A    
C18   C20   A    
C4    C14   A    
C16   H12   S    
C11   H9    S    
O14   C44   S    
C28   C36   A    
C16   C18   A    
C21   C24   A    
C39   O13   S    
Cu2   O2    S    
C22   C23   A    
C44   H26   S    
C27   O9    S    
C28   N2    A    
