data_mof_unit_423.cif
_audit_creation_date              2012-10-26T20:38:01-0400
_audit_creation_method            fapswitch 2.2
_symmetry_space_group_name_H-M    P1
_symmetry_Int_Tables_number       1
_space_group_crystal_system       triclinic
_cell_length_a                    9.892629
_cell_length_b                    11.045447
_cell_length_c                    12.99716
_cell_angle_alpha                 90.573804
_cell_angle_beta                  75.238967
_cell_angle_gamma                 111.308386
_cell_volume                      1274.04231326

loop_
_atom_site_label
_atom_site_type_symbol
_atom_type_description
_atom_site_fract_x
_atom_site_fract_y
_atom_site_fract_z
_atom_type_partial_charge
C1    C     C_R   0.439502 0.253934 0.507692 0.552987
C2    C     C_R   0.675034 0.632121 0.012972 -0.143244
C3    C     C_R   0.335640 0.390118 0.880385 -0.152826
C4    C     C_R   0.664358 0.609874 0.119615 -0.152824
C5    C     C_R   0.567990 0.580152 0.860245 -0.009033
C6    C     C_R   0.432008 0.419844 0.139754 -0.009023
C7    C     C_R   0.561298 0.553821 0.967984 0.052902
C8    C     C_R   0.438700 0.446178 0.032016 0.052908
C9    C     C_2   0.405510 0.114320 0.511716 -0.135815
C10   C     C_2   0.594490 0.885680 0.488284 -0.135818
C11   C     C_2   0.516622 0.069650 0.498191 -0.162333
C12   C     C_R   0.560498 0.746066 0.492308 0.552990
C13   C     C_2   0.483378 0.930350 0.501809 -0.162334
C14   C     C_3   0.312612 0.296725 0.205154 -0.392063
C15   C     C_3   0.687374 0.703268 0.794839 -0.392039
C16   C     C_3   0.974215 0.657207 0.370919 -0.223330
C17   C     C_3   0.025785 0.342793 0.629081 -0.223331
C18   C     C_2   0.082544 0.510321 0.492020 0.014927
C19   C     C_2   0.917455 0.489679 0.507980 0.014925
C20   C     C_R   0.473768 0.498224 0.702217 0.546077
C21   C     C_R   0.526231 0.501772 0.297783 0.546071
C22   C     C_R   0.542025 0.507647 0.183702 0.022957
C23   C     C_R   0.457975 0.492345 0.816298 0.022958
C24   C     C_R   0.324964 0.367873 0.987028 -0.143241
Cu1   Cu    Cu3+1 0.647370 0.522180 0.481340 0.919697
Cu2   Cu    Cu3+1 0.352630 0.477820 0.518660 0.919692
H1    H     H_    0.750138 0.675903 0.153229 0.116990
H2    H     H_    0.167064 0.584485 0.431226 0.136503
H3    H     H_    0.335076 0.275649 0.280932 0.154738
H4    H     H_    0.200413 0.304775 0.223700 0.133255
H5    H     H_    0.310193 0.210574 0.159808 0.112188
H6    H     H_    0.664845 0.724390 0.719100 0.154693
H7    H     H_    0.689856 0.789415 0.840202 0.112170
H8    H     H_    0.799551 0.695181 0.776237 0.133296
H9    H     H_    0.911514 0.700956 0.333676 0.160625
H10   H     H_    0.051727 0.735801 0.405964 0.085893
H11   H     H_    0.038744 0.615919 0.307251 0.094945
H12   H     H_    0.249860 0.324088 0.846772 0.116987
H13   H     H_    0.088486 0.299044 0.666323 0.160625
H14   H     H_    0.961256 0.384081 0.692749 0.094943
H15   H     H_    0.948273 0.264199 0.594036 0.085893
H16   H     H_    0.227587 0.287356 0.032834 0.112227
H17   H     H_    0.772415 0.712633 0.967165 0.112228
H18   H     H_    0.366717 0.863922 0.515693 0.154350
H19   H     H_    0.633283 0.136078 0.484307 0.154350
H20   H     H_    0.710974 0.952380 0.474302 0.095136
H21   H     H_    0.289026 0.047620 0.525698 0.095135
H22   H     H_    0.832936 0.415515 0.568774 0.136501
N1    N     N_2   0.131210 0.444490 0.546730 -0.241523
N2    N     N_2   0.868790 0.555510 0.453270 -0.241522
O1    O     O_R   0.578710 0.332530 0.490040 -0.497294
O2    O     O_R   0.421290 0.667470 0.509960 -0.497294
O3    O     O_R   0.329810 0.295070 0.521560 -0.505275
O4    O     O_R   0.670190 0.704930 0.478440 -0.505268
O5    O     O_R   0.604230 0.515670 0.637800 -0.501589
O6    O     O_R   0.395770 0.484330 0.362200 -0.501598
O7    O     O_R   0.355330 0.478200 0.669330 -0.502073
O8    O     O_R   0.644670 0.521800 0.330670 -0.502072

loop_
_geom_bond_atom_site_label_1
_geom_bond_atom_site_label_2
_ccdc_geom_bond_type
C10   H20   S    
C21   O6    A    
C2    C4    A    
Cu1   O1    S    
C7    C8    A    
Cu2   O2    S    
C6    C14   S    
C2    H17   S    
C24   H16   S    
C16   H11   S    
C15   H8    S    
C3    C23   A    
C2    C7    A    
C5    C23   A    
C20   C23   S    
C14   H5    S    
C20   O7    A    
C18   H2    S    
C21   O8    A    
C21   C22   S    
C16   H10   S    
C9    C11   D    
C19   N2    D    
C3    C24   A    
C10   C12   S    
C14   H4    S    
C20   O5    A    
C8    C24   A    
C16   N2    S    
C9    H21   S    
C16   H9    S    
Cu2   O7    S    
C17   H15   S    
C11   H19   S    
C5    C15   S    
Cu1   O8    S    
C14   H3    S    
C6    C22   A    
Cu2   O3    S    
C11   C13   S    
C4    H1    S    
C4    C22   A    
Cu1   O4    S    
C18   N1    D    
C18   C19   S    
C17   H13   S    
Cu2   N1    S    
C17   N1    S    
C5    C7    A    
C1    O3    A    
Cu1   N2    S    
C6    C8    A    
C1    O1    A    
C12   O2    A    
Cu1   Cu2   S    
C19   H22   S    
C17   H14   S    
C15   H7    S    
C13   H18   S    
C12   O4    A    
C1    C9    S    
Cu1   O5    S    
C3    H12   S    
C15   H6    S    
C10   C13   D    
Cu2   O6    S    
