data_mof_unit_499.cif
_audit_creation_date              2012-12-10T20:41:04-0500
_audit_creation_method            fapswitch 2.2
_symmetry_space_group_name_H-M    P1
_symmetry_Int_Tables_number       1
_space_group_crystal_system       triclinic
_cell_length_a                    27.082163
_cell_length_b                    10.680323
_cell_length_c                    9.894237
_cell_angle_alpha                 89.374636
_cell_angle_beta                  90.514605
_cell_angle_gamma                 91.071724
_cell_volume                      2861.08958604

loop_
_atom_site_label
_atom_site_type_symbol
_atom_type_description
_atom_site_fract_x
_atom_site_fract_y
_atom_site_fract_z
_atom_type_partial_charge
C1    C     C_R   0.502686 0.260221 0.500682 0.930174
C2    C     C_R   0.969759 0.258048 0.409405 0.071201
C3    C     C_R   0.970276 0.316140 0.648314 0.027826
C4    C     C_R   0.405734 0.499827 0.499561 0.983611
C5    C     C_R   0.944183 0.285163 0.528815 -0.091551
C6    C     C_R   0.943138 0.196251 0.304278 0.372018
C7    C     C_R   0.890937 0.203581 0.299231 -0.125170
C8    C     C_R   0.865543 0.256339 0.409023 -0.062812
C9    C     C_R   0.892096 0.282035 0.529255 -0.155912
C10   C     C_R   0.866805 0.311226 0.648655 -0.103444
C11   C     C_R   0.816183 0.336176 0.639374 0.595858
C12   C     C_R   0.281978 0.355889 0.565770 -0.022517
C13   C     C_R   0.814674 0.283677 0.405375 0.542050
C14   C     C_R   0.705101 0.301764 0.577107 -0.197470
C15   C     C_R   0.656654 0.344972 0.576054 0.431309
C16   C     C_R   0.501261 0.739933 0.499535 0.960800
C17   C     C_R   0.682751 0.521545 0.432409 -0.123755
C18   C     C_R   0.730953 0.477275 0.435538 -0.120787
C19   C     C_R   0.742106 0.367988 0.508239 0.226652
C20   C     C_R   0.021075 0.288383 0.402352 0.069601
C21   C     C_R   0.046447 0.335068 0.518281 -0.024200
C22   C     C_R   0.020756 0.353939 0.640607 0.019629
C23   C     C_R   0.250665 0.438046 0.495781 0.162154
C24   C     C_R   0.046494 0.287163 0.278701 -0.244405
C25   C     C_R   0.095324 0.454529 0.736999 0.374400
C26   C     C_R   0.944839 0.302785 0.771882 0.403797
C27   C     C_R   0.892973 0.315065 0.772597 0.351466
C28   C     C_R   0.594249 0.495820 0.500807 0.904369
C29   C     C_R   0.044619 0.422384 0.745954 0.359693
C30   C     C_R   0.505467 0.062317 0.623645 -0.085819
C31   C     C_R   0.512108 0.129235 0.503186 -0.094549
C32   C     C_R   0.528473 0.066912 0.386798 0.460618
C33   C     C_R   0.526285 0.936006 0.386493 -0.319296
C34   C     C_R   0.097446 0.366451 0.510407 -0.210744
C35   C     C_R   0.508796 0.871561 0.500795 -0.112404
C36   C     C_R   0.503096 0.934702 0.621187 -0.009943
C37   C     C_3   0.462947 0.927713 0.724888 0.796874
C38   C     C_3   0.466925 0.070847 0.731201 -0.336188
C39   C     C_R   0.468634 0.422240 0.071054 0.167711
C40   C     C_R   0.174672 0.372060 0.386876 0.631201
C41   C     C_R   0.533976 0.569732 0.070280 0.444288
C42   C     C_R   0.533845 0.568749 0.926905 0.001449
C43   C     C_R   0.468864 0.421846 0.928976 0.112217
C44   C     C_3   0.413995 0.417150 0.919236 -0.501573
C45   C     C_R   0.123369 0.348370 0.388544 -0.052163
C46   C     C_3   0.413403 0.419805 0.072908 0.214533
C47   C     C_R   0.173556 0.443025 0.614438 0.622857
C48   C     C_R   0.269972 0.544715 0.428674 0.390055
C49   C     C_R   0.321885 0.565109 0.425657 0.305427
C50   C     C_R   0.332437 0.380721 0.569730 -0.357780
C51   C     C_1   0.672626 0.636100 0.359303 0.230269
C52   C     C_1   0.262636 0.245837 0.634418 0.244461
C53   C     C_1   0.488509 0.118192 0.858252 0.260550
C54   C     C_1   0.568610 0.647467 0.854487 0.362813
C55   C     C_1   0.864340 0.153642 0.183321 0.280419
C56   C     C_R   0.097264 0.311924 0.271146 0.478899
C57   C     C_R   0.122354 0.419288 0.622942 -0.112138
C58   C     C_R   0.352353 0.483743 0.499528 -0.117089
C59   C     C_R   0.645566 0.456095 0.504222 -0.107820
H1    H     H_    0.356600 0.317470 0.624305 0.167208
H2    H     H_    0.252223 0.712360 0.370752 0.350738
H3    H     H_    0.094839 0.588633 0.868480 0.352645
H4    H     H_    0.947573 0.225978 0.951427 0.343620
H5    H     H_    0.890682 0.366314 0.960424 0.345092
H6    H     H_    0.036771 0.463347 0.934660 0.356401
H7    H     H_    0.554611 0.075019 0.204091 0.347336
H8    H     H_    0.392731 0.897856 0.740482 0.353428
H9    H     H_    0.511506 0.876266 0.863100 0.315632
H10   H     H_    0.559196 0.657051 0.226290 0.379265
H11   H     H_    0.358099 0.522073 0.115263 0.354570
H12   H     H_    0.760157 0.528441 0.383396 0.162790
H13   H     H_    0.097676 0.278847 0.076963 0.344689
H14   H     H_    0.633296 0.203263 0.685481 0.338583
H15   H     H_    0.945873 0.066142 0.164973 0.342338
H16   H     H_    0.321846 0.686268 0.277758 0.354606
H17   H     H_    0.535718 0.885827 0.295985 0.182660
H18   H     H_    0.433261 0.120908 0.697436 0.141890
H19   H     H_    0.398559 0.502138 0.869986 0.258414
H20   H     H_    0.400106 0.326858 0.877376 0.163329
H21   H     H_    0.397531 0.334086 0.122180 0.114900
H22   H     H_    0.714354 0.217056 0.632212 0.154147
H23   H     H_    0.027047 0.273726 0.184331 0.214540
N1    N     N_R   0.198282 0.417005 0.498981 -0.356945
N2    N     N_R   0.792091 0.327412 0.517905 -0.359344
N3    N     N_R   0.499670 0.499140 0.142800 -0.140782
N4    N     N_R   0.499670 0.499180 0.857150 -0.143274
N5    N     N_1   0.664575 0.728067 0.300931 -0.148636
N6    N     N_1   0.247094 0.157634 0.689449 -0.152864
N7    N     N_1   0.505808 0.153780 0.958353 -0.183002
N8    N     N_1   0.596602 0.711210 0.797150 -0.209215
N9    N     N_1   0.843237 0.113244 0.090841 -0.104870
O1    O     O_R   0.500010 0.316790 0.614690 -0.609179
O2    O     O_R   0.571250 0.500000 0.614690 -0.589211
O3    O     O_R   0.571240 0.499960 0.385340 -0.625846
O4    O     O_2   0.201180 0.349340 0.275232 -0.446040
O5    O     O_3   0.237044 0.627333 0.371214 -0.725819
O6    O     O_3   0.118369 0.526333 0.835333 -0.665337
O7    O     O_3   0.970698 0.266111 0.886419 -0.736571
O8    O     O_3   0.867742 0.330370 0.891878 -0.687293
O9    O     O_3   0.017048 0.469228 0.849980 -0.731706
O10   O     O_3   0.543998 0.134108 0.274309 -0.725353
O11   O     O_3   0.417897 0.884656 0.670031 -0.732704
O12   O     O_2   0.788025 0.270473 0.290443 -0.517003
O13   O     O_3   0.475778 0.861975 0.844349 -0.740792
O14   O     O_3   0.568776 0.645563 0.132340 -0.772893
O15   O     O_3   0.394551 0.531994 0.120894 -0.670599
O16   O     O_3   0.121241 0.306364 0.148472 -0.663646
O17   O     O_3   0.619400 0.279026 0.641853 -0.750477
O18   O     O_3   0.968676 0.122057 0.215677 -0.775418
O19   O     O_3   0.343759 0.662783 0.354138 -0.716286
O20   O     O_2   0.198966 0.490555 0.720701 -0.447465
O21   O     O_2   0.791394 0.373708 0.749040 -0.459853
O22   O     O_R   0.500000 0.316760 0.385350 -0.577935
O23   O     O_R   0.428760 0.500040 0.614660 -0.630145
O24   O     O_R   0.428750 0.500000 0.385310 -0.550746
O25   O     O_R   0.500000 0.683240 0.614650 -0.600215
O26   O     O_R   0.499990 0.683210 0.385310 -0.640583
Zn1   Zn    Zn3+2 0.500000 0.500020 0.653130 1.007486
Zn2   Zn    Zn3+2 0.500000 0.499980 0.346870 1.040016

loop_
_geom_bond_atom_site_label_1
_geom_bond_atom_site_label_2
_ccdc_geom_bond_type
C10   C27   A    
C8    C13   A    
C22   C29   A    
C41   C42   A    
C4    O24   A    
C35   C36   A    
C40   N1    A    
C7    C55   S    
C17   C51   S    
H15   O18   S    
H2    O5    S    
C7    C8    A    
C12   C23   A    
C27   O8    S    
C26   C27   A    
C41   O14   S    
C4    O23   A    
C36   C37   S    
C54   N8    T    
H4    O7    S    
O26   Zn2   S    
C16   C35   S    
C30   C31   A    
C1    C31   S    
C30   C38   S    
C28   O3    A    
C18   C19   A    
N3    Zn2   S    
C24   H23   S    
C55   N9    T    
O22   Zn2   S    
H5    O8    S    
C20   C24   A    
C45   C56   A    
C8    C9    A    
C34   C57   A    
C42   N4    A    
C47   N1    A    
C13   O12   S    
C9    C10   A    
C21   C22   A    
O1    Zn1   S    
H7    O10   S    
C2    C6    A    
C1    O22   A    
C16   O25   A    
C12   C52   S    
C44   C46   S    
C44   H20   S    
C25   C29   A    
C40   C45   A    
C2    C20   A    
C50   C58   A    
C52   N6    T    
H11   O15   S    
C51   N5    T    
H10   O14   S    
H14   O17   S    
C39   C43   A    
C21   C34   A    
C49   C58   A    
C28   O2    A    
C15   O17   S    
C43   C44   S    
C56   O16   S    
C5    C9    A    
C37   C38   S    
C47   C57   A    
H3    O6    S    
O3    Zn2   S    
C33   H17   S    
C31   C32   A    
C13   N2    A    
H13   O16   S    
C17   C18   A    
N4    Zn1   S    
C34   C45   A    
O23   Zn1   S    
C23   N1    S    
C26   O7    S    
C39   C46   S    
C25   O6    S    
C48   C49   A    
C17   C59   A    
C1    O1    A    
O24   Zn2   S    
C53   N7    T    
C6    O18   S    
C2    C5    A    
O2    Zn1   S    
C39   N3    A    
C40   O4    S    
C19   N2    S    
C25   C57   A    
C28   C59   S    
C18   H12   S    
H16   O19   S    
C23   C48   A    
C48   O5    S    
C29   O9    S    
C11   O21   S    
C32   O10   S    
C43   N4    A    
C15   C59   A    
C14   C19   A    
C3    C26   A    
H9    O13   S    
H6    O9    S    
C3    C5    A    
C37   O13   S    
C12   C50   A    
C6    C7    A    
C38   H18   S    
C11   N2    A    
C24   C56   A    
C41   N3    A    
C30   C36   A    
C50   H1    S    
C32   C33   A    
C44   H19   S    
C16   O26   A    
C42   C54   S    
C46   H21   S    
C37   O11   S    
C38   C53   S    
C47   O20   S    
C46   O15   S    
C33   C35   A    
O25   Zn1   S    
C10   C11   A    
C20   C21   A    
C4    C58   S    
C14   C15   A    
C3    C22   A    
C14   H22   S    
H8    O11   S    
C49   O19   S    
