data_mof_unit_4203.cif
_audit_creation_date              2012-12-10T17:33:54-0500
_audit_creation_method            fapswitch 2.2
_symmetry_space_group_name_H-M    P1
_symmetry_Int_Tables_number       1
_space_group_crystal_system       triclinic
_cell_length_a                    10.629173
_cell_length_b                    11.983495
_cell_length_c                    12.872297
_cell_angle_alpha                 93.510061
_cell_angle_beta                  90.127833
_cell_angle_gamma                 86.23569
_cell_volume                      1632.99507257

loop_
_atom_site_label
_atom_site_type_symbol
_atom_type_description
_atom_site_fract_x
_atom_site_fract_y
_atom_site_fract_z
_atom_type_partial_charge
C1    C     C_R   0.499317 0.522330 0.700462 0.891212
C2    C     C_3   0.121120 0.500769 0.499725 0.163991
C3    C     C_3   0.077342 0.426089 0.405791 -0.390371
C4    C     C_3   0.062284 0.622172 0.490962 -0.387884
C5    C     C_R   0.503867 0.465078 0.188093 -0.084640
C6    C     C_R   0.499668 0.537041 0.811813 -0.055577
C7    C     C_R   0.453714 0.652052 0.969557 0.002601
C8    C     C_R   0.459257 0.639962 0.861609 -0.311022
C9    C     C_R   0.538593 0.445759 0.868197 -0.280402
C10   C     C_R   0.529719 0.453823 0.974855 0.156902
C11   C     C_R   0.484048 0.556383 0.026637 0.151452
C12   C     C_R   0.742354 0.500387 0.499900 0.833647
C13   C     C_R   0.466476 0.558359 0.133114 -0.230087
C14   C     C_R   0.551240 0.365104 0.136983 -0.193059
C15   C     C_R   0.563060 0.359171 0.029903 -0.202808
C16   C     C_R   0.375740 0.953417 0.403606 -0.091506
C17   C     C_R   0.392263 0.836793 0.412597 -0.045129
C18   C     C_R   0.549265 0.858996 0.541605 -0.053669
C19   C     C_R   0.539448 0.976189 0.534939 0.061754
C20   C     C_R   0.452551 0.025057 0.464715 0.058442
C21   C     C_R   0.448876 0.143079 0.457607 -0.012646
C22   C     C_R   0.605213 0.161097 0.588189 0.023455
C23   C     C_R   0.500558 0.477843 0.299524 0.883022
C24   C     C_R   0.615274 0.045032 0.596852 -0.312368
C25   C     C_R   0.257578 0.500035 0.499839 0.832149
C26   C     C_3   0.931280 0.455621 0.602358 -0.406087
C27   C     C_3   0.075717 0.455286 0.602305 -0.392188
C28   C     C_3   0.932889 0.426426 0.405747 -0.389604
C29   C     C_3   0.919425 0.622424 0.491002 -0.387404
C30   C     C_3   0.878621 0.501248 0.499744 0.169828
H1    H     H_    0.902932 0.368815 0.610790 0.180220
H2    H     H_    0.093911 0.657061 0.417845 0.173848
H3    H     H_    0.895195 0.458318 0.331624 0.161891
H4    H     H_    0.110210 0.457803 0.331684 0.157572
H5    H     H_    0.422587 0.631807 0.174498 0.199856
H6    H     H_    0.580455 0.292668 0.179644 0.167619
H7    H     H_    0.598708 0.281114 0.990206 0.142606
H8    H     H_    0.432261 0.711054 0.816283 0.158556
H9    H     H_    0.573000 0.366955 0.828898 0.156452
H10   H     H_    0.388879 0.185005 0.402550 0.184429
H11   H     H_    0.892447 0.508621 0.670394 0.157781
H12   H     H_    0.663380 0.214163 0.636215 0.124389
H13   H     H_    0.681902 0.009375 0.651503 0.142981
H14   H     H_    0.335174 0.780812 0.366517 0.124870
H15   H     H_    0.615175 0.820618 0.595215 0.125193
H16   H     H_    0.107426 0.508103 0.670332 0.158037
H17   H     H_    0.116565 0.368332 0.610586 0.189301
H18   H     H_    0.904620 0.338971 0.409851 0.193746
H19   H     H_    0.118235 0.338528 0.410030 0.214364
H20   H     H_    0.882262 0.657337 0.417901 0.186051
H21   H     H_    0.881189 0.678125 0.557603 0.174352
H22   H     H_    0.092733 0.677852 0.557537 0.181141
N1    N     N_R   0.523380 0.207800 0.519350 -0.115482
N2    N     N_R   0.476620 0.792180 0.480650 -0.099237
O1    O     O_R   0.506240 0.421700 0.658830 -0.626852
O2    O     O_R   0.491240 0.609310 0.646410 -0.624940
O3    O     O_R   0.692710 0.406190 0.506230 -0.630677
O4    O     O_R   0.677700 0.593810 0.493810 -0.625457
O5    O     O_R   0.508760 0.390690 0.353590 -0.624820
O6    O     O_R   0.493760 0.578300 0.341170 -0.613826
O7    O     O_R   0.322300 0.406190 0.506190 -0.620690
O8    O     O_R   0.307290 0.593810 0.493770 -0.635079
Zn1   Zn    Zn3+2 0.510020 0.374730 0.508290 0.942253
Zn2   Zn    Zn3+2 0.489980 0.625270 0.491710 0.943025
C31   C     C_2   0.417624 0.765832 0.016895 0.339593
H23   H     H_    0.355515 0.822631 0.974702 0.069013
O9    O     O_2   0.462573 0.800165 0.099199 -0.588160
C32   C     C_2   0.276123 0.993411 0.331226 0.366845
H24   H     H_    0.250217 0.938811 0.265284 0.089814
O10   O     O_2   0.216725 0.083454 0.347050 -0.602583

loop_
_geom_bond_atom_site_label_1
_geom_bond_atom_site_label_2
_ccdc_geom_bond_type
C22   H12   S    
C4    C29   S    
C2    C4    S    
C5    C13   A    
O2    Zn2   S    
O3    Zn1   S    
C29   C30   S    
C16   C32   S    
C10   C15   A    
C25   O8    A    
C7    C31   S    
N1    Zn1   S    
C9    C10   A    
O5    Zn1   S    
C19   C20   A    
C5    C23   S    
C16   C20   A    
O6    Zn2   S    
C12   O4    A    
C6    C9    A    
C28   C30   S    
C19   C24   A    
C3    H19   S    
C17   H14   S    
C7    C8    A    
C25   O7    A    
C7    C11   A    
C11   C13   A    
C5    C14   A    
C2    C27   S    
C21   H10   S    
C8    H8    S    
C4    H22   S    
O8    Zn2   S    
C12   O3    A    
C21   N1    A    
C27   H16   S    
C3    C28   S    
C1    O2    A    
C28   H3    S    
C26   C30   S    
C22   N1    A    
C2    C3    S    
C29   H20   S    
C26   C27   S    
C23   O6    A    
C22   C24   A    
C1    O1    A    
C16   C17   A    
C10   C11   A    
C18   N2    A    
O4    Zn2   S    
C4    H2    S    
C18   H15   S    
C2    C25   S    
C9    H9    S    
C18   C19   A    
C20   C21   A    
N2    Zn2   S    
C32   O10   D    
C31   H23   S    
C29   H21   S    
C27   H17   S    
O7    Zn1   S    
C24   H13   S    
C14   C15   A    
C15   H7    S    
C14   H6    S    
C6    C8    A    
C23   O5    A    
C12   C30   S    
C3    H4    S    
C26   H1    S    
C17   N2    A    
C13   H5    S    
C28   H18   S    
C1    C6    S    
C26   H11   S    
C32   H24   S    
C31   O9    D    
O1    Zn1   S    
