data_mof_unit_1176.cif
_audit_creation_date              2012-12-10T19:00:15-0500
_audit_creation_method            fapswitch 2.2
_symmetry_space_group_name_H-M    P1
_symmetry_Int_Tables_number       1
_space_group_crystal_system       triclinic
_cell_length_a                    9.548296
_cell_length_b                    10.900059
_cell_length_c                    13.503552
_cell_angle_alpha                 91.093142
_cell_angle_beta                  72.414494
_cell_angle_gamma                 91.383563
_cell_volume                      1339.2372778

loop_
_atom_site_label
_atom_site_type_symbol
_atom_type_description
_atom_site_fract_x
_atom_site_fract_y
_atom_site_fract_z
_atom_type_partial_charge
C1    C     C_R   0.501736 0.737043 0.499744 0.813779
C2    C     C_R   0.437669 0.498512 0.978279 0.086785
C3    C     C_R   0.473918 0.466269 0.871402 0.058236
C4    C     C_R   0.546679 0.487246 0.030005 0.068577
C5    C     C_R   0.690534 0.448070 0.973833 0.101841
C6    C     C_R   0.719031 0.405971 0.870982 -0.063936
C7    C     C_R   0.608673 0.408542 0.823741 -0.237962
C8    C     C_R   0.516623 0.512190 0.136560 -0.249311
C9    C     C_R   0.768411 0.476364 0.128338 -0.168633
C10   C     C_R   0.374555 0.493030 0.814781 -0.087221
C11   C     C_R   0.420396 0.931351 0.449006 0.133140
C12   C     C_R   0.421384 0.494402 0.700036 0.782604
C13   C     C_R   0.508558 0.869101 0.495302 -0.138087
C14   C     C_R   0.603969 0.935890 0.537591 -0.246399
C15   C     C_R   0.598186 0.063894 0.544161 -0.025278
C16   C     C_R   0.499295 0.127349 0.503430 -0.140949
C17   C     C_R   0.416772 0.058119 0.451390 0.063783
C18   C     C_3   0.254857 0.053619 0.465372 -0.486015
C19   C     C_3   0.260263 0.914851 0.463741 -0.028661
C20   C     C_R   0.958149 0.445616 0.420079 0.165056
C21   C     C_R   0.896071 0.562960 0.573553 -0.058547
C22   C     C_R   0.044715 0.562551 0.573801 -0.057985
C23   C     C_R   0.497949 0.261915 0.502684 0.805576
C24   C     C_R   0.106892 0.447924 0.419038 0.230864
C25   C     C_3   0.124061 0.316349 0.388148 -0.153330
C26   C     C_3   0.962644 0.312092 0.392784 -0.256579
C27   C     C_R   0.578702 0.502896 0.300217 0.799867
C28   C     C_R   0.801267 0.448212 0.023167 -0.187127
C29   C     C_R   0.623834 0.500014 0.186543 -0.051722
C30   C     C_R   0.233410 0.534075 0.868122 -0.176169
C31   C     C_R   0.193773 0.557157 0.974140 -0.155617
C32   C     C_R   0.294667 0.542658 0.028472 -0.174062
Cu1   Cu    Cu3+1 0.359330 0.500020 0.500010 0.945755
Cu2   Cu    Cu3+1 0.640670 0.499980 0.499990 0.952699
H1    H     H_    0.854731 0.474469 0.164814 0.165121
H2    H     H_    0.188485 0.092146 0.541499 0.195283
H3    H     H_    0.230326 0.087855 0.396047 0.215287
H4    H     H_    0.198971 0.873006 0.539425 0.174881
H5    H     H_    0.815998 0.612326 0.634196 0.141115
H6    H     H_    0.075813 0.611220 0.634726 0.132195
H7    H     H_    0.143830 0.264595 0.451734 0.193636
H8    H     H_    0.894954 0.255045 0.457228 0.171945
H9    H     H_    0.912777 0.423063 0.981626 0.153872
H10   H     H_    0.408733 0.537053 0.183894 0.148874
H11   H     H_    0.155018 0.553565 0.827157 0.153077
H12   H     H_    0.256570 0.568617 0.109291 0.119308
H13   H     H_    0.085683 0.591692 0.013988 0.141067
H14   H     H_    0.630094 0.363670 0.749046 0.200669
H15   H     H_    0.675743 0.888066 0.572095 0.163027
N1    N     N_R   0.852320 0.499070 0.499340 -0.191341
N2    N     N_R   0.148230 0.499110 0.499340 -0.194539
O1    O     O_R   0.381190 0.680360 0.500000 -0.591163
O2    O     O_R   0.618780 0.680320 0.499990 -0.581699
O3    O     O_R   0.323230 0.500000 0.650990 -0.574768
O4    O     O_R   0.560820 0.499960 0.650980 -0.593900
O5    O     O_R   0.381220 0.319680 0.500010 -0.574055
O6    O     O_R   0.618810 0.319640 0.500000 -0.582355
O7    O     O_R   0.439180 0.500040 0.349020 -0.589980
O8    O     O_R   0.676770 0.500000 0.349010 -0.580307
C33   C     C_1   0.686248 0.124289 0.601351 0.230039
N3    N     N_1   0.757745 0.170914 0.647363 -0.305389
C34   C     C_3   0.227087 0.853879 0.369845 -0.824159
H16   H     H_    0.294727 0.895545 0.295788 0.236821
H17   H     H_    0.250150 0.754378 0.367234 0.250823
H18   H     H_    0.109087 0.864640 0.377002 0.235485
C35   C     C_3   0.237275 0.295645 0.281090 -0.792454
H19   H     H_    0.349918 0.299894 0.288184 0.254283
H20   H     H_    0.220212 0.203156 0.250381 0.230741
H21   H     H_    0.227583 0.365175 0.224552 0.231253
C36   C     C_1   0.931375 0.283614 0.294513 0.307158
N4    N     N_1   0.907270 0.258426 0.217582 -0.304702
C37   C     C_1   0.860074 0.357599 0.811930 0.243754
N5    N     N_1   0.972924 0.319221 0.764617 -0.273880

loop_
_geom_bond_atom_site_label_1
_geom_bond_atom_site_label_2
_ccdc_geom_bond_type
C35   H20   S    
Cu1   O7    S    
C27   C29   S    
C15   C33   S    
C30   H11   S    
C4    C8    A    
C23   O5    A    
Cu1   O1    S    
C6    C37   S    
C11   C19   S    
C8    C29   A    
C18   H3    S    
C3    C7    A    
C5    C6    A    
C14   H15   S    
C19   C34   S    
C15   C16   A    
C2    C32   A    
C18   C19   S    
C1    O2    A    
C34   H17   S    
C20   C24   A    
C16   C17   A    
Cu2   O6    S    
C20   N1    A    
C36   N4    T    
C9    C29   A    
C24   N2    A    
C35   H19   S    
Cu2   O4    S    
C31   H13   S    
C21   C22   A    
C21   N1    A    
C17   C18   S    
Cu2   N1    S    
C24   C25   S    
C25   H7    S    
C37   N5    T    
C25   C26   S    
C33   N3    T    
C2    C4    A    
C34   H16   S    
C19   H4    S    
C5    C28   A    
C10   C30   A    
C31   C32   A    
C21   H5    S    
C22   H6    S    
Cu1   Cu2   S    
C10   C12   S    
C16   C23   S    
Cu2   O8    S    
C26   C36   S    
C1    C13   S    
C26   H8    S    
Cu1   O3    S    
C23   O6    A    
C11   C17   A    
C34   H18   S    
C32   H12   S    
C25   C35   S    
C8    H10   S    
C4    C5    A    
C27   O7    A    
C6    C7    A    
Cu1   N2    S    
C28   H9    S    
C7    H14   S    
C2    C3    A    
C3    C10   A    
C27   O8    A    
C11   C13   A    
C30   C31   A    
C20   C26   S    
Cu1   O5    S    
C1    O1    A    
C12   O4    A    
C35   H21   S    
Cu2   O2    S    
C9    H1    S    
C14   C15   A    
C13   C14   A    
C18   H2    S    
C12   O3    A    
C9    C28   A    
C22   N2    A    
