data_mof_unit_3942.cif
_audit_creation_date              2012-12-10T19:21:30-0500
_audit_creation_method            fapswitch 2.2
_symmetry_space_group_name_H-M    P1
_symmetry_Int_Tables_number       1
_space_group_crystal_system       triclinic
_cell_length_a                    10.923468
_cell_length_b                    16.096024
_cell_length_c                    14.766373
_cell_angle_alpha                 89.461521
_cell_angle_beta                  91.56145
_cell_angle_gamma                 88.752214
_cell_volume                      2594.5795455

loop_
_atom_site_label
_atom_site_type_symbol
_atom_type_description
_atom_site_fract_x
_atom_site_fract_y
_atom_site_fract_z
_atom_type_partial_charge
C1    C     C_R   0.498579 0.340775 0.500341 0.842942
C2    C     C_R   0.499353 0.659248 0.499303 0.864525
C3    C     C_R   0.871822 0.507967 0.505410 -0.077867
C4    C     C_R   0.127752 0.505983 0.498421 -0.021054
C5    C     C_R   0.943567 0.486030 0.583704 0.169239
C6    C     C_R   0.056340 0.537720 0.424273 0.159272
C7    C     C_R   0.473066 0.953635 0.577376 0.363007
C8    C     C_R   0.560474 0.045163 0.429476 0.341969
C9    C     C_R   0.508873 0.912838 0.498192 -0.222137
C10   C     C_R   0.518381 0.086833 0.506364 -0.227162
C11   C     C_R   0.557091 0.958145 0.425720 0.300130
C12   C     C_R   0.486132 0.040790 0.584075 0.345294
C13   C     C_1   0.502163 0.823292 0.495020 0.113650
C14   C     C_1   0.506001 0.176576 0.503542 0.104042
C15   C     C_1   0.500473 0.251547 0.501513 -0.101165
C16   C     C_1   0.499813 0.748404 0.496762 -0.146149
C17   C     C_R   0.546511 0.567531 0.952664 0.298359
C18   C     C_R   0.477773 0.423987 0.047954 0.325073
C19   C     C_R   0.502882 0.498852 0.903016 -0.340459
C20   C     C_R   0.510135 0.495536 0.097455 -0.306297
C21   C     C_R   0.464280 0.428170 0.951701 0.284825
C22   C     C_R   0.546878 0.566467 0.049086 0.309723
C23   C     C_R   0.261540 0.501991 0.498928 0.847848
C24   C     C_R   0.738349 0.502344 0.501633 0.806533
C25   C     C_1   0.500905 0.499076 0.802635 0.338859
C26   C     C_1   0.504780 0.497716 0.197591 0.371003
C27   C     C_R   0.166384 0.708238 0.268814 0.406353
C28   C     C_R   0.799320 0.365855 0.776697 0.472267
C29   C     C_R   0.134752 0.665796 0.348653 0.254650
C30   C     C_R   0.853509 0.383662 0.692600 0.341269
C31   C     C_R   0.108465 0.579644 0.344765 -0.208286
C32   C     C_R   0.891228 0.465488 0.672573 -0.243733
C33   C     C_R   0.114239 0.537334 0.261242 0.395045
C34   C     C_R   0.882199 0.527808 0.739285 0.440172
C35   C     C_R   0.150640 0.580060 0.183946 -0.257973
C36   C     C_R   0.832855 0.508649 0.822785 -0.201774
C37   C     C_R   0.174202 0.664578 0.187279 -0.362406
C38   C     C_R   0.790322 0.429992 0.841144 -0.427318
C39   C     C_R   0.929246 0.536145 0.427920 -0.121690
C40   C     C_R   0.070205 0.481595 0.577672 -0.046223
Cu1   Cu    Cu3+1 0.500040 0.500000 0.589220 1.056313
Cu2   Cu    Cu3+1 0.499960 0.500000 0.410780 1.019223
H1    H     H_    0.193889 0.697081 0.125013 0.182735
H2    H     H_    0.753601 0.421006 0.907469 0.184176
H3    H     H_    0.155347 0.548947 0.119431 0.200113
H4    H     H_    0.827150 0.554952 0.875163 0.249749
H5    H     H_    0.874720 0.559468 0.370267 0.161190
H6    H     H_    0.123990 0.459959 0.636446 0.145908
N1    N     N_1   0.500040 0.499980 0.276710 -0.166186
N2    N     N_1   0.499960 0.500020 0.723290 -0.151055
O1    O     O_R   0.500060 0.380310 0.575320 -0.570214
O2    O     O_R   0.499940 0.619690 0.424680 -0.607546
O3    O     O_R   0.500000 0.380310 0.424640 -0.556102
O4    O     O_R   0.500000 0.619690 0.575360 -0.534907
O5    O     O_R   0.319670 0.500010 0.575340 -0.579280
O6    O     O_R   0.680330 0.499990 0.424660 -0.572696
O7    O     O_R   0.319610 0.500010 0.424650 -0.600114
O8    O     O_R   0.680390 0.499990 0.575350 -0.567885
S1    S     S_3+6 0.592640 0.658939 0.896047 -0.023116
O9    O     O_2   0.698012 0.696736 0.947252 -0.232141
O10   O     O_2   0.631485 0.642396 0.801003 -0.299943
O11   O     O_3   0.473157 0.726569 0.892364 -0.585641
H7    H     H_    0.410339 0.699946 0.853419 0.349060
S2    S     S_3+6 0.458652 0.328015 0.106048 -0.002789
O12   O     O_2   0.468517 0.255804 0.042636 -0.269588
O13   O     O_2   0.555503 0.317971 0.179842 -0.316561
O14   O     O_3   0.320713 0.328197 0.153174 -0.517549
H8    H     H_    0.317251 0.274174 0.185581 0.386154
O15   O     O_3   0.169296 0.794163 0.267320 -0.565894
C41   C     C_3   0.289772 0.820158 0.253756 0.114415
H9    H     H_    0.326165 0.792687 0.191267 0.080950
H10   H     H_    0.350540 0.801804 0.312718 0.164138
C42   C     C_3   0.291010 0.914603 0.240685 -0.351447
H11   H     H_    0.386542 0.933621 0.229061 0.221004
H12   H     H_    0.234456 0.932414 0.179556 0.209219
C43   C     C_3   0.242741 0.961326 0.322312 -0.622009
H13   H     H_    0.143594 0.950181 0.329835 0.267853
H14   H     H_    0.255146 0.029057 0.312376 0.218254
H15   H     H_    0.293370 0.941294 0.385167 0.262659
O16   O     O_3   0.757179 0.285219 0.789910 -0.585420
C44   C     C_3   0.719822 0.264945 0.878451 0.073060
H16   H     H_    0.667895 0.206732 0.873674 0.173676
H17   H     H_    0.653158 0.310599 0.905360 0.190626
C45   C     C_3   0.829992 0.246908 0.942837 -0.421214
H18   H     H_    0.887304 0.195812 0.915051 0.235253
H19   H     H_    0.887179 0.302399 0.949301 0.236134
C46   C     C_3   0.789177 0.221990 0.037008 -0.770999
H20   H     H_    0.738321 0.274419 0.068032 0.302307
H21   H     H_    0.870866 0.206236 0.080635 0.250594
H22   H     H_    0.729865 0.166866 0.033360 0.258238
S3    S     S_3+6 0.121771 0.721191 0.452282 0.014732
O17   O     O_2   0.209909 0.683658 0.521671 -0.286934
O18   O     O_2   0.149968 0.811611 0.442258 -0.263555
O19   O     O_3   0.978998 0.713173 0.490487 -0.468435
H23   H     H_    0.924343 0.729269 0.438383 0.317311
S4    S     S_3+6 0.879473 0.299859 0.616925 -0.013124
O20   O     O_2   0.963175 0.237256 0.664459 -0.262740
O21   O     O_2   0.759372 0.259955 0.595787 -0.367525
O22   O     O_3   0.943594 0.326240 0.518715 -0.517496
H24   H     H_    0.874532 0.332749 0.474153 0.356571
S5    S     S_3+6 0.067911 0.432732 0.250171 0.016100
O23   O     O_2   0.933110 0.427755 0.266455 -0.267009
O24   O     O_2   0.091113 0.401221 0.156648 -0.283498
O25   O     O_3   0.143872 0.371945 0.327040 -0.501311
H25   H     H_    0.231609 0.379453 0.314750 0.365809
S6    S     S_3+6 0.930494 0.630857 0.720910 0.033857
O26   O     O_2   0.847893 0.671600 0.649773 -0.249739
O27   O     O_2   0.924076 0.679536 0.807096 -0.291861
O28   O     O_3   0.075640 0.630592 0.686129 -0.512937
H26   H     H_    0.099122 0.689675 0.686833 0.413492
O29   O     O_3   0.464406 0.079095 0.666208 -0.579191
C47   C     C_3   0.572716 0.116406 0.701549 0.105760
H27   H     H_    0.546949 0.149917 0.763618 0.172931
H28   H     H_    0.606184 0.165041 0.656138 0.211955
C48   C     C_3   0.676561 0.053047 0.727383 -0.531798
H29   H     H_    0.665223 0.031785 0.798400 0.215115
H30   H     H_    0.673937 0.999039 0.681910 0.223338
C49   C     C_3   0.804349 0.087335 0.718972 -0.685281
H31   H     H_    0.819156 0.106862 0.647918 0.297270
H32   H     H_    0.873414 0.037992 0.737495 0.237702
H33   H     H_    0.818036 0.139711 0.765442 0.301518
O30   O     O_3   0.590402 0.919318 0.346659 -0.584999
C50   C     C_3   0.706560 0.879395 0.358470 0.059829
H34   H     H_    0.692781 0.811200 0.361244 0.148942
H35   H     H_    0.758235 0.897136 0.421563 0.127912
C51   C     C_3   0.784569 0.900214 0.277194 -0.380887
H36   H     H_    0.731242 0.891592 0.213406 0.238488
H37   H     H_    0.811021 0.966203 0.279674 0.222310
C52   C     C_3   0.900125 0.845957 0.275492 -0.828151
H38   H     H_    0.956597 0.855989 0.337793 0.297602
H39   H     H_    0.953908 0.863086 0.215655 0.284895
H40   H     H_    0.876727 0.779284 0.270706 0.244167
O31   O     O_3   0.409747 0.908573 0.641219 -0.539560
C53   C     C_3   0.480251 0.893345 0.721763 0.084147
H41   H     H_    0.420872 0.860163 0.769373 0.196836
H42   H     H_    0.501408 0.951567 0.756892 0.174495
C54   C     C_3   0.594538 0.837216 0.708048 -0.403808
H43   H     H_    0.564441 0.772539 0.697038 0.280185
H44   H     H_    0.645904 0.856319 0.647876 0.201490
C55   C     C_3   0.683326 0.839306 0.789636 -0.653353
H45   H     H_    0.739783 0.895459 0.787963 0.206732
H46   H     H_    0.747059 0.785079 0.787690 0.341108
H47   H     H_    0.633651 0.838484 0.854002 0.277197
O32   O     O_3   0.601115 0.089183 0.355469 -0.547891
C56   C     C_3   0.722369 0.114547 0.374298 0.071846
H48   H     H_    0.782791 0.060564 0.394794 0.128581
H49   H     H_    0.724881 0.160689 0.429891 0.173854
C57   C     C_3   0.772783 0.155436 0.289642 -0.348517
H50   H     H_    0.765190 0.112312 0.231518 0.225104
H51   H     H_    0.717711 0.212589 0.272699 0.277689
C58   C     C_3   0.906705 0.178428 0.304209 -0.787216
H52   H     H_    0.916681 0.221138 0.362378 0.296788
H53   H     H_    0.939714 0.210192 0.242764 0.280943
H54   H     H_    0.964335 0.121647 0.317398 0.239987
O33   O     O_3   0.600089 0.630965 0.095957 -0.536883
C59   C     C_3   0.509013 0.688221 0.123388 0.128841
H55   H     H_    0.465313 0.663870 0.185048 0.078180
H56   H     H_    0.435078 0.698548 0.070549 0.159726
C60   C     C_3   0.569867 0.770740 0.147512 -0.323392
H57   H     H_    0.540339 0.791314 0.215187 0.173376
H58   H     H_    0.671043 0.761825 0.152611 0.257739
C61   C     C_3   0.538741 0.839826 0.078266 -0.780922
H59   H     H_    0.581949 0.826007 0.013038 0.312893
H60   H     H_    0.573717 0.899897 0.103060 0.228817
H61   H     H_    0.438170 0.846968 0.066961 0.234659
O34   O     O_3   0.416917 0.360778 0.905764 -0.562270
C62   C     C_3   0.296339 0.379937 0.872809 0.070342
H62   H     H_    0.269131 0.330036 0.825352 0.182375
H63   H     H_    0.290937 0.438666 0.832574 0.127843
C63   C     C_3   0.203641 0.383393 0.949058 -0.269025
H64   H     H_    0.196026 0.320736 0.980377 0.271888
H65   H     H_    0.233146 0.427581 0.002143 0.236479
C64   C     C_3   0.078826 0.413208 0.912425 -0.920731
H66   H     H_    0.085412 0.476092 0.881521 0.268120
H67   H     H_    0.013758 0.417139 0.968715 0.291113
H68   H     H_    0.044250 0.369467 0.860494 0.256000

loop_
_geom_bond_atom_site_label_1
_geom_bond_atom_site_label_2
_ccdc_geom_bond_type
C46   H20   S    
S5    O23   D    
C27   C29   A    
C18   C21   A    
C42   H11   S    
O29   C47   S    
C45   C46   S    
C56   C57   S    
C53   C54   S    
C47   H28   S    
C44   H16   S    
C50   H34   S    
C62   H63   S    
C64   H66   S    
C54   H44   S    
C51   H36   S    
C20   C26   S    
C33   S5    S    
C59   H55   S    
C35   C37   A    
C57   H51   S    
Cu1   O8    S    
C7    O31   S    
Cu2   O3    S    
C50   H35   S    
C63   H64   S    
C48   H29   S    
S4    O22   S    
C23   O7    A    
Cu1   Cu2   S    
C58   H54   S    
C1    O3    A    
C49   H31   S    
Cu1   O5    S    
C9    C13   S    
Cu2   O6    S    
C25   N2    T    
C45   H18   S    
C4    C40   A    
C48   H30   S    
S4    O21   D    
C30   S4    S    
C58   H52   S    
C60   H58   S    
C36   H4    S    
C41   H9    S    
C1    C15   S    
C2    C16   S    
C18   C20   A    
C27   O15   S    
C5    C32   S    
C6    C31   S    
C3    C39   A    
S1    O9    D    
S5    O24   D    
C42   H12   S    
C3    C24   S    
O19   H23   S    
C19   C25   S    
C10   C12   A    
Cu2   O7    S    
O25   H25   S    
C56   H49   S    
C56   H48   S    
C62   C63   S    
C61   H60   S    
C22   O33   S    
C64   H67   S    
C7    C12   A    
C54   C55   S    
C46   H22   S    
S1    O10   D    
O14   H8    S    
C34   S6    S    
S2    O14   S    
C47   C48   S    
C57   C58   S    
C43   H13   S    
C4    C6    A    
C10   C14   S    
C26   N1    T    
C62   H62   S    
C4    C23   S    
O16   C44   S    
C50   C51   S    
C53   H42   S    
C51   C52   S    
C21   O34   S    
C49   H33   S    
C32   C34   A    
C37   H1    S    
C38   H2    S    
O11   H7    S    
S3    O18   D    
C61   H61   S    
C9    C11   A    
C60   H57   S    
C28   C38   A    
C48   C49   S    
S4    O20   D    
C41   C42   S    
C31   C33   A    
C60   C61   S    
C8    O32   S    
C55   H45   S    
C55   H47   S    
C1    O1    A    
C2    O2    A    
C17   S1    S    
C24   O8    A    
C20   C22   A    
S5    O25   S    
C46   H21   S    
C2    O4    A    
O31   C53   S    
C42   C43   S    
C13   C16   T    
C11   O30   S    
C17   C19   A    
C36   C38   A    
C35   H3    S    
Cu1   N2    S    
C29   S3    S    
C44   C45   S    
C39   H5    S    
C61   H59   S    
C54   H43   S    
C64   H68   S    
C40   H6    S    
S1    O11   S    
C51   H37   S    
C19   C21   A    
C6    C39   A    
C59   C60   S    
C43   H14   S    
O32   C56   S    
C3    C5    A    
C44   H17   S    
C23   O5    A    
C53   H41   S    
C55   H46   S    
C24   O6    A    
C47   H27   S    
C17   C22   A    
O22   H24   S    
S6    O28   S    
S2    O12   D    
C52   H40   S    
C59   H56   S    
C52   H38   S    
C29   C31   A    
O28   H26   S    
S3    O19   S    
C30   C32   A    
C18   S2    S    
O34   C62   S    
S6    O27   D    
C27   C37   A    
C8    C11   A    
C28   C30   A    
C33   C35   A    
C34   C36   A    
C57   H50   S    
C58   H53   S    
O15   C41   S    
C28   O16   S    
C49   H32   S    
Cu1   O4    S    
Cu2   N1    S    
C7    C9    A    
C43   H15   S    
C8    C10   A    
S6    O26   D    
C5    C40   A    
Cu2   O2    S    
O33   C59   S    
C14   C15   T    
C45   H19   S    
C41   H10   S    
C63   H65   S    
O30   C50   S    
Cu1   O1    S    
C12   O29   S    
S3    O17   D    
S2    O13   D    
C52   H39   S    
C63   C64   S    
