data_mof_unit_241.cif
_audit_creation_date              2012-12-10T17:11:29-0500
_audit_creation_method            fapswitch 2.2
_symmetry_space_group_name_H-M    P1
_symmetry_Int_Tables_number       1
_space_group_crystal_system       triclinic
_cell_length_a                    15.046139
_cell_length_b                    12.983183
_cell_length_c                    11.793867
_cell_angle_alpha                 99.07996
_cell_angle_beta                  94.417202
_cell_angle_gamma                 91.327334
_cell_volume                      2266.80639145

loop_
_atom_site_label
_atom_site_type_symbol
_atom_type_description
_atom_site_fract_x
_atom_site_fract_y
_atom_site_fract_z
_atom_type_partial_charge
C1    C     C_R   0.496370 0.299501 0.479259 0.817119
C2    C     C_R   0.497831 0.700579 0.521031 0.783910
C3    C     C_R   0.035606 0.310994 0.509609 0.190594
C4    C     C_R   0.965496 0.692884 0.500043 0.190799
C5    C     C_R   0.492589 0.814128 0.534313 -0.037685
C6    C     C_R   0.488121 0.186402 0.468228 -0.039948
C7    C     C_R   0.454779 0.017398 0.351101 -0.233038
C8    C     C_R   0.514310 0.983853 0.654182 -0.221599
C9    C     C_R   0.463472 0.125283 0.360670 -0.187405
C10   C     C_R   0.512649 0.875758 0.642731 -0.198930
C11   C     C_R   0.502755 0.139175 0.566404 -0.262735
C12   C     C_R   0.467761 0.861935 0.439041 -0.266132
C13   C     C_R   0.496151 0.031348 0.557048 0.175711
C14   C     C_R   0.472060 0.969951 0.448648 0.182842
C15   C     C_R   0.416296 0.399112 0.020880 0.004402
C16   C     C_R   0.612488 0.549228 0.970202 0.012485
C17   C     C_R   0.419663 0.413103 0.144983 0.531570
C18   C     C_R   0.595464 0.557755 0.851556 0.508322
C19   C     C_R   0.544400 0.532396 0.154524 0.565158
C20   C     C_R   0.452255 0.477376 0.848640 0.530806
C21   C     C_R   0.542790 0.516648 0.031538 -0.181062
C22   C     C_R   0.469385 0.464957 0.967005 -0.197325
C23   C     C_R   0.329292 0.496591 0.499472 0.905611
C24   C     C_R   0.670887 0.504212 0.500999 0.890281
C25   C     C_R   0.815528 0.598527 0.483297 0.051910
C26   C     C_R   0.185506 0.404058 0.520910 0.019437
C27   C     C_R   0.767908 0.508907 0.504260 -0.140872
C28   C     C_R   0.232780 0.493509 0.498762 -0.158069
C29   C     C_R   0.812518 0.422871 0.534421 0.332196
C30   C     C_R   0.188534 0.580806 0.471339 0.352654
C31   C     C_R   0.903955 0.416472 0.522558 -0.037272
C32   C     C_R   0.097334 0.587556 0.486564 -0.046227
C33   C     C_R   0.953932 0.505302 0.506594 -0.044391
C34   C     C_R   0.047288 0.498348 0.501409 -0.045332
C35   C     C_R   0.910765 0.600894 0.496976 0.092903
C36   C     C_R   0.090299 0.402497 0.510042 0.090776
C37   C     C_R   0.944596 0.320875 0.521658 -0.198141
C38   C     C_R   0.056891 0.683627 0.491324 -0.206878
Cu1   Cu    Cu3+1 0.506660 0.507730 0.615930 0.990794
Cu2   Cu    Cu3+1 0.493340 0.492270 0.384070 1.002333
H1    H     H_    0.903939 0.251480 0.524812 0.184876
H2    H     H_    0.097709 0.753541 0.491600 0.173165
H3    H     H_    0.446615 0.815710 0.356876 0.123562
H4    H     H_    0.520459 0.185905 0.649999 0.150447
H5    H     H_    0.528152 0.840819 0.718627 0.153647
H6    H     H_    0.450516 0.160753 0.284124 0.180590
H7    H     H_    0.436181 0.971111 0.267467 0.133178
H8    H     H_    0.531664 0.030069 0.738187 0.134578
N1    N     N_R   0.516670 0.519360 0.790130 -0.278460
N2    N     N_R   0.483330 0.480640 0.209870 -0.276665
O1    O     O_R   0.504720 0.354460 0.582000 -0.598932
O2    O     O_R   0.495280 0.645540 0.418000 -0.604393
O3    O     O_R   0.493480 0.341410 0.386200 -0.551799
O4    O     O_R   0.506520 0.658590 0.613800 -0.584911
O5    O     O_R   0.375880 0.506510 0.597910 -0.563506
O6    O     O_R   0.624120 0.493490 0.402090 -0.561554
O7    O     O_R   0.364640 0.493450 0.402110 -0.533313
O8    O     O_R   0.635360 0.506550 0.597890 -0.516914
C39   C     C_3   0.764905 0.685171 0.437541 -0.830278
H9    H     H_    0.694037 0.664886 0.412864 0.251312
H10   H     H_    0.764474 0.755740 0.503281 0.221394
H11   H     H_    0.793478 0.702684 0.358411 0.246138
C40   C     C_3   0.236720 0.316851 0.565611 -0.804859
H12   H     H_    0.306764 0.338350 0.596347 0.261864
H13   H     H_    0.206288 0.295787 0.641938 0.240764
H14   H     H_    0.239792 0.248200 0.497557 0.217495
C41   C     C_3   0.376787 0.299881 0.947054 -0.791327
H15   H     H_    0.387425 0.232166 0.992760 0.209551
H16   H     H_    0.304989 0.307519 0.922296 0.225648
H17   H     H_    0.410906 0.280506 0.866522 0.243854
C42   C     C_3   0.708308 0.552522 0.021041 -0.731194
H18   H     H_    0.751529 0.514942 0.955394 0.210968
H19   H     H_    0.734064 0.633188 0.051315 0.225267
H20   H     H_    0.715664 0.507853 0.093867 0.248295
O9    O     O_3   0.764379 0.341880 0.567814 -0.589474
C43   C     C_3   0.778646 0.349130 0.688945 0.083758
H21   H     H_    0.773685 0.430742 0.734392 0.173562
H22   H     H_    0.845489 0.320409 0.712772 0.135800
C44   C     C_3   0.708479 0.282060 0.731972 -0.787183
H23   H     H_    0.707904 0.200808 0.685084 0.248005
H24   H     H_    0.723317 0.281284 0.825528 0.192529
H25   H     H_    0.641863 0.314973 0.718742 0.262903
O10   O     O_3   0.237975 0.663690 0.442891 -0.593908
C45   C     C_3   0.210321 0.682668 0.330238 0.063947
H26   H     H_    0.202796 0.768069 0.334470 0.160164
H27   H     H_    0.145166 0.644216 0.292861 0.129766
C46   C     C_3   0.280702 0.648772 0.247347 -0.809717
H28   H     H_    0.282192 0.562692 0.229784 0.255391
H29   H     H_    0.264669 0.677392 0.164514 0.181727
H30   H     H_    0.347299 0.680590 0.284406 0.258259
C47   C     C_3   0.066979 0.200717 0.481507 -0.879232
H31   H     H_    0.010149 0.143533 0.455386 0.221973
H32   H     H_    0.107843 0.193788 0.406471 0.237953
H33   H     H_    0.103274 0.176006 0.557401 0.235914
C48   C     C_3   0.933395 0.803016 0.525766 -0.883261
H34   H     H_    0.989680 0.861151 0.550523 0.221555
H35   H     H_    0.896878 0.825774 0.448891 0.237825
H36   H     H_    0.892620 0.810876 0.600934 0.237275
O11   O     O_3   0.366316 0.458184 0.798071 -0.553931
C49   C     C_3   0.313861 0.543576 0.840019 0.106060
H37   H     H_    0.321174 0.606874 0.787622 0.162627
H38   H     H_    0.332257 0.577539 0.932098 0.101102
C50   C     C_3   0.216009 0.509015 0.832339 -0.817553
H39   H     H_    0.176399 0.574817 0.870729 0.198326
H40   H     H_    0.190215 0.485324 0.741584 0.263861
H41   H     H_    0.207300 0.442854 0.880041 0.234403
O12   O     O_3   0.604684 0.605611 0.217981 -0.567698
C51   C     C_3   0.569561 0.706945 0.224079 0.125467
H42   H     H_    0.585091 0.747940 0.313123 0.177468
H43   H     H_    0.495835 0.706947 0.203864 0.101806
C52   C     C_3   0.614906 0.774103 0.149147 -0.907682
H44   H     H_    0.595499 0.746251 0.056919 0.230024
H45   H     H_    0.592726 0.855512 0.169210 0.215917
H46   H     H_    0.688378 0.775288 0.167551 0.253907
O13   O     O_3   0.661520 0.599838 0.795930 -0.554719
C53   C     C_3   0.667065 0.709356 0.829040 0.079939
H47   H     H_    0.707454 0.730837 0.912412 0.141310
H48   H     H_    0.600212 0.743600 0.836963 0.112868
C54   C     C_3   0.713726 0.757803 0.739497 -0.795596
H49   H     H_    0.674464 0.739523 0.654983 0.248603
H50   H     H_    0.719871 0.843867 0.765179 0.195403
H51   H     H_    0.781362 0.726303 0.731417 0.245467
O14   O     O_3   0.364798 0.355248 0.204003 -0.548570
C55   C     C_3   0.276386 0.337590 0.151372 0.030457
H52   H     H_    0.270182 0.258594 0.098984 0.162024
H53   H     H_    0.255348 0.397576 0.097692 0.131707
C56   C     C_3   0.210181 0.336872 0.241719 -0.794689
H54   H     H_    0.197878 0.417919 0.280344 0.238843
H55   H     H_    0.145524 0.300550 0.201130 0.198675
H56   H     H_    0.235900 0.291371 0.308424 0.260581

loop_
_geom_bond_atom_site_label_1
_geom_bond_atom_site_label_2
_ccdc_geom_bond_type
Cu1   O1    S    
C46   H28   S    
C40   H13   S    
C16   C21   A    
C27   C29   A    
C52   H44   S    
C45   C46   S    
C26   C40   S    
C6    C9    A    
C8    H8    S    
C48   H36   S    
O14   C55   S    
C15   C22   A    
C51   H42   S    
C8    C13   A    
C19   C21   A    
C43   H22   S    
C38   H2    S    
C12   H3    S    
Cu1   O4    S    
C5    C10   A    
O13   C53   S    
C53   H47   S    
C3    C47   S    
C30   O10   S    
C1    O3    A    
C42   H20   S    
C17   O14   S    
C7    C14   A    
Cu1   O5    S    
C48   H34   S    
C51   H43   S    
Cu2   O6    S    
O12   C51   S    
C24   C27   S    
C32   C38   A    
C52   H46   S    
C40   H14   S    
C39   H9    S    
C13   C14   A    
C16   C42   S    
C49   H38   S    
C54   H50   S    
C39   H10   S    
C41   H15   S    
C53   C54   S    
C43   H21   S    
C5    C12   A    
C52   H45   S    
C2    O4    A    
C6    C11   A    
C44   H24   S    
Cu2   O2    S    
Cu1   O8    S    
C49   C50   S    
C1    C6    S    
C31   C37   A    
C41   H16   S    
C7    H7    S    
C18   O13   S    
O9    C43   S    
C56   H55   S    
C20   N1    A    
C47   H32   S    
C4    C48   S    
O10   C45   S    
C15   C41   S    
C10   H5    S    
C31   C33   A    
C33   C34   A    
C11   H4    S    
C50   H40   S    
C16   C18   A    
C23   C28   S    
C45   H26   S    
C1    O1    A    
C2    O2    A    
C25   C35   A    
C55   C56   S    
C23   O7    A    
C8    C10   A    
Cu1   N1    S    
C12   C14   A    
C46   H29   S    
C44   H23   S    
C2    C5    S    
C24   O6    A    
C56   H54   S    
C47   H31   S    
C55   H53   S    
C54   H51   S    
C26   C36   A    
C15   C17   A    
C39   H11   S    
Cu2   O7    S    
C20   C22   A    
C17   N2    A    
C44   H25   S    
C54   H49   S    
C48   H35   S    
C23   O5    A    
C29   O9    S    
C25   C27   A    
C26   C28   A    
C51   C52   S    
C41   H17   S    
C28   C30   A    
C56   H56   S    
C42   H18   S    
C29   C31   A    
O11   C49   S    
C47   H33   S    
C30   C32   A    
C11   C13   A    
C19   N2    A    
C20   O11   S    
C3    C36   A    
Cu2   N2    S    
C49   H37   S    
C33   C35   A    
C53   H48   S    
C50   H41   S    
C34   C36   A    
C37   H1    S    
C4    C35   A    
C40   H12   S    
Cu1   Cu2   S    
C7    C9    A    
C9    H6    S    
C43   C44   S    
C3    C37   A    
C24   O8    A    
Cu2   O3    S    
C46   H30   S    
C42   H19   S    
C50   H39   S    
C45   H27   S    
C4    C38   A    
C25   C39   S    
C21   C22   A    
C18   N1    A    
C32   C34   A    
C55   H52   S    
C19   O12   S    
