data_mof_unit_2591.cif
_audit_creation_date              2012-12-11T15:13:47-0500
_audit_creation_method            fapswitch 2.2
_symmetry_space_group_name_H-M    P1
_symmetry_Int_Tables_number       1
_space_group_crystal_system       triclinic
_cell_length_a                    6.987686
_cell_length_b                    13.762893
_cell_length_c                    20.031564
_cell_angle_alpha                 103.817706
_cell_angle_beta                  91.702432
_cell_angle_gamma                 90.10151
_cell_volume                      1869.79678351

loop_
_atom_site_label
_atom_site_type_symbol
_atom_type_description
_atom_site_fract_x
_atom_site_fract_y
_atom_site_fract_z
_atom_type_partial_charge
O1    O     O_R   0.506780 0.600060 0.449950 -0.522659
O2    O     O_R   0.179840 0.597110 0.589410 -0.525027
O3    O     O_R   0.004570 0.399940 0.550050 -0.542897
C1    C     C_R   0.350828 0.616746 0.617226 0.769425
O4    O     O_R   0.177380 0.612160 0.452890 -0.528206
O5    O     O_R   0.002100 0.415100 0.412560 -0.539296
C2    C     C_R   0.344175 0.641186 0.438292 0.793664
O6    O     O_R   0.509250 0.584900 0.587440 -0.538313
O7    O     O_3   0.337570 0.435330 0.486930 -0.388653
V1    V     V_3+5 0.064650 0.512000 0.502430 1.561716
O8    O     O_R   0.672090 0.402890 0.410590 -0.545717
C3    C     C_R   0.838995 0.383102 0.382437 0.727619
O9    O     O_R   0.674540 0.387840 0.547110 -0.547957
C4    C     C_R   0.844733 0.363606 0.564644 0.671482
V2    V     V_3+5 0.564040 0.488000 0.497570 1.525432
O10   O     O_3   0.840990 0.564670 0.513070 -0.350005
C5    C     C_R   0.946735 0.121738 0.611221 -0.048292
H1    H     H_    0.989931 0.047449 0.584958 0.223300
C6    C     C_R   0.859706 0.288081 0.604244 -0.205066
C7    C     C_R   0.851001 0.315554 0.934736 -0.271656
C8    C     C_R   0.857920 0.392712 0.900538 0.456736
C9    C     C_R   0.866641 0.369252 0.829035 -0.040051
C10   C     C_R   0.858702 0.269002 0.789493 -0.033613
C11   C     C_R   0.858478 0.190808 0.824919 -0.022246
C12   C     C_R   0.862328 0.244133 0.715992 -0.006476
C13   C     C_R   0.909045 0.145023 0.681565 -0.078662
C14   C     C_R   0.909379 0.068386 0.716447 0.335591
C15   C     C_R   0.864033 0.090173 0.786465 0.212053
C16   C     C_R   0.819465 0.313493 0.675442 0.294550
C17   C     C_R   0.927388 0.192108 0.572549 0.288046
C18   C     C_R   0.854578 0.215804 0.897984 -0.096128
H2    H     H_    0.848603 0.333170 0.990445 0.136103
H3    H     H_    0.890429 0.431300 0.806105 0.204857
C19   C     C_3   0.729119 0.276205 0.206021 -0.201650
C20   C     C_3   0.680378 0.246676 0.274075 -0.193004
H4    H     H_    0.535095 0.242931 0.294326 0.151797
H5    H     H_    0.622919 0.298193 0.170102 0.160731
C21   C     C_3   0.847566 0.313648 0.311588 -0.113938
C22   C     C_3   0.895788 0.343176 0.244108 0.227031
C23   C     C_3   0.034477 0.254060 0.225684 -0.173306
C24   C     C_3   0.987445 0.224695 0.293714 -0.230258
C25   C     C_3   0.821650 0.159315 0.255153 0.425906
C26   C     C_3   0.868220 0.187474 0.187914 -0.043146
H6    H     H_    0.179848 0.259911 0.206051 0.169292
H7    H     H_    0.092779 0.201983 0.329589 0.140427
C27   C     C_3   0.452636 0.789870 0.709615 0.120564
C28   C     C_3   0.269898 0.828144 0.749308 -0.278891
H8    H     H_    0.205296 0.901726 0.751382 0.181763
C29   C     C_3   0.358637 0.802666 0.814705 -0.188938
C30   C     C_3   0.541873 0.765015 0.775407 0.193287
C31   C     C_3   0.454245 0.658327 0.753239 -0.253844
C32   C     C_3   0.272772 0.695640 0.793739 0.206326
C33   C     C_3   0.186316 0.720890 0.728172 0.399287
C34   C     C_3   0.364394 0.683960 0.688418 -0.165864
H9    H     H_    0.532088 0.588325 0.753895 0.196513
C35   C     C_R   0.186285 0.877183 0.389093 -0.144147
H10   H     H_    0.182040 0.006523 0.310808 0.148314
H11   H     H_    0.103585 0.943440 0.410064 0.168771
C36   C     C_R   0.338334 0.724932 0.403870 -0.156477
C37   C     C_R   0.412257 0.693076 0.077191 -0.200298
C38   C     C_R   0.427940 0.619035 0.113483 0.139702
C39   C     C_R   0.414329 0.643595 0.185801 0.396011
C40   C     C_R   0.379892 0.744491 0.221359 0.018497
C41   C     C_R   0.353602 0.819345 0.182886 -0.030291
C42   C     C_R   0.354942 0.771894 0.294163 0.066317
C43   C     C_R   0.255667 0.860423 0.322617 0.017948
C44   C     C_R   0.236673 0.933601 0.285842 -0.135952
C45   C     C_R   0.304365 0.917539 0.219556 0.149617
C46   C     C_R   0.425354 0.715996 0.340351 0.184212
C47   C     C_R   0.214271 0.806067 0.427476 0.167700
C48   C     C_R   0.373810 0.792099 0.110090 -0.115623
H12   H     H_    0.426423 0.672549 0.021848 0.181493
O11   O     O_R   0.203580 0.914920 0.912610 -0.519322
O12   O     O_R   0.535710 0.887810 0.047120 -0.535572
O13   O     O_R   0.710730 0.084950 0.087430 -0.534992
C49   C     C_R   0.369850 0.864177 0.066258 0.768861
O14   O     O_R   0.533010 0.902850 0.910600 -0.526288
O15   O     O_R   0.708010 0.100090 0.949930 -0.535046
C50   C     C_R   0.363088 0.877387 0.884375 0.761901
O16   O     O_R   0.206300 0.899780 0.050100 -0.531094
O17   O     O_3   0.375170 0.064580 0.013100 -0.377693
V3    V     V_3+5 0.648200 0.988020 0.997570 1.583605
O18   O     O_R   0.038030 0.112330 0.952840 -0.542222
C51   C     C_R   0.867544 0.140038 0.937997 0.812223
O19   O     O_R   0.040730 0.097300 0.089360 -0.543049
C52   C     C_R   0.874222 0.117454 0.117328 0.739573
V4    V     V_3+5 0.148780 0.012220 0.002360 1.563447
O20   O     O_3   0.871930 0.935430 0.986900 -0.352100
O21   O     O_3   0.969305 0.161810 0.503590 -0.642333
H13   H     H_    0.930717 0.213281 0.478992 0.274025
I1    I     I_    0.977361 0.478166 0.218584 -0.343977
O22   O     O_3   0.787328 0.061392 0.260465 -0.629712
H14   H     H_    0.759967 0.066908 0.309496 0.297022
I2    I     I_    0.559611 0.858935 0.633711 -0.347357
I3    I     I_    0.811631 0.779084 0.828430 -0.269852
I4    I     I_    0.186396 0.608750 0.863010 -0.301961
O23   O     O_3   0.951908 0.972614 0.680186 -0.625911
H15   H     H_    0.929867 0.924221 0.708398 0.321296
O24   O     O_3   0.003337 0.694104 0.699321 -0.611685
H16   H     H_    0.975982 0.739326 0.668480 0.327529
I5    I     I_    0.072507 0.830243 0.522256 -0.287088
I6    I     I_    0.717004 0.673188 0.334809 -0.290119
O25   O     O_3   0.416839 0.569806 0.222007 -0.619627
H17   H     H_    0.471306 0.507708 0.194024 0.334613
I7    I     I_    0.455792 0.469993 0.053296 -0.404550
I8    I     I_    0.354391 0.052344 0.190118 -0.400840
O26   O     O_3   0.723076 0.400288 0.705005 -0.649572
H18   H     H_    0.720464 0.447607 0.674940 0.294230
O27   O     O_3   0.860859 0.492034 0.935639 -0.601110
H19   H     H_    0.862177 0.496241 0.985765 0.329870
O28   O     O_3   0.825196 0.013553 0.817229 -0.642231
H20   H     H_    0.723648 0.971990 0.788265 0.301573

loop_
_geom_bond_atom_site_label_1
_geom_bond_atom_site_label_2
_ccdc_geom_bond_type
O18   V4    S    
V4    O20   S    
C40   C42   A    
C19   H5    S    
C24   C25   S    
O28   H20   S    
C1    O6    A    
O17   V3    S    
C47   I5    S    
C28   C29   S    
O19   C52   A    
C33   O24   S    
C13   C14   A    
O12   C49   A    
C5    C13   A    
C41   C45   A    
H10   C44   S    
O16   V4    S    
O5    C3    A    
C48   C49   S    
C35   C43   A    
C30   I3    S    
C37   H12   S    
V2    O10   S    
C19   C20   S    
C41   C48   A    
C2    C36   S    
C20   C25   S    
O11   V4    S    
O8    V2    S    
C19   C22   S    
C23   C26   S    
O18   C51   A    
O26   H18   S    
O1    V2    S    
C38   I7    S    
O7    V1    S    
C25   O22   S    
V3    O20   S    
C28   C33   S    
O19   V4    S    
C43   C44   A    
O9    C4    A    
C5    C17   A    
C45   I8    S    
O12   V3    S    
C17   O21   S    
C22   I1    S    
O23   H15   S    
O14   C50   A    
C15   O28   S    
C12   C16   A    
C44   C45   A    
C28   H8    S    
C11   C15   A    
C20   C21   S    
C21   C24   S    
C22   C23   S    
O4    C2    A    
C37   C48   A    
C30   C31   S    
C12   C13   A    
C46   I6    S    
C18   C51   S    
C29   C50   S    
C37   C38   A    
C20   H4    S    
O2    C1    A    
C39   C40   A    
O15   V3    S    
O13   C52   A    
O24   H16   S    
C27   I2    S    
C23   H6    S    
C10   C11   A    
C29   C32   S    
C27   C34   S    
C5    H1    S    
O11   C50   A    
O17   V4    S    
O3    C4    A    
C36   C46   A    
C23   C24   S    
C42   C43   A    
O6    V2    S    
C35   C47   A    
O9    V2    S    
C25   C26   S    
O2    V1    S    
C14   C15   A    
C32   C33   S    
C39   O25   S    
C7    H2    S    
C9    H3    S    
C27   C28   S    
C14   O23   S    
C1    C34   S    
O1    C2    A    
C26   C52   S    
C4    C6    S    
C19   C26   S    
C49   O16   A    
O5    V1    S    
C8    O27   S    
O8    C3    A    
O13   V3    S    
C33   C34   S    
C27   C30   S    
C31   C34   S    
O7    V2    S    
C11   C18   A    
C31   C32   S    
O3    V1    S    
V1    O10   S    
O27   H19   S    
C21   C22   S    
O14   V3    S    
C42   C46   A    
O22   H14   S    
C35   H11   S    
C32   I4    S    
C31   H9    S    
C10   C12   A    
C3    C21   S    
C38   C39   A    
C36   C47   A    
C40   C41   A    
O15   C51   A    
O4    V1    S    
C7    C8    A    
C29   C30   S    
O25   H17   S    
C24   H7    S    
C9    C10   A    
C16   O26   S    
O21   H13   S    
C8    C9    A    
C6    C17   A    
C7    C18   A    
C6    C16   A    
