data_mof_unit_4650.cif
_audit_creation_date              2012-12-10T19:16:28-0500
_audit_creation_method            fapswitch 2.2
_symmetry_space_group_name_H-M    P1
_symmetry_Int_Tables_number       1
_space_group_crystal_system       triclinic
_cell_length_a                    10.617966
_cell_length_b                    9.679485
_cell_length_c                    27.669516
_cell_angle_alpha                 89.889073
_cell_angle_beta                  89.988002
_cell_angle_gamma                 90.003119
_cell_volume                      2843.76902748

loop_
_atom_site_label
_atom_site_type_symbol
_atom_type_description
_atom_site_fract_x
_atom_site_fract_y
_atom_site_fract_z
_atom_type_partial_charge
C1    C     C_R   0.257572 0.500281 0.499949 0.846987
C2    C     C_R   0.385548 0.444334 0.975053 -0.016038
C3    C     C_R   0.616071 0.410085 0.974998 0.061226
C4    C     C_R   0.500331 0.500026 0.405864 0.874980
C5    C     C_R   0.500988 0.429802 0.949732 0.048304
C6    C     C_R   0.270468 0.433198 0.948655 0.150865
C7    C     C_R   0.273395 0.450337 0.898433 -0.143023
C8    C     C_R   0.387821 0.454941 0.873478 -0.074596
C9    C     C_R   0.501579 0.437824 0.898820 -0.057078
C10   C     C_R   0.616189 0.431968 0.873268 -0.012446
C11   C     C_R   0.615011 0.447096 0.823010 0.508226
C12   C     C_R   0.509110 0.621562 0.276754 -0.095039
C13   C     C_R   0.391035 0.469485 0.823167 0.525446
C14   C     C_R   0.476166 0.603819 0.725747 -0.213542
C15   C     C_R   0.474520 0.614772 0.675145 0.424252
C16   C     C_R   0.742656 0.500285 0.499935 0.841817
C17   C     C_R   0.530416 0.370680 0.670207 -0.314568
C18   C     C_R   0.531533 0.361501 0.720133 -0.102908
C19   C     C_R   0.504298 0.477638 0.747890 0.279730
C20   C     C_R   0.391423 0.473699 0.025082 0.041538
C21   C     C_R   0.504038 0.446159 0.050759 0.084003
C22   C     C_R   0.614617 0.404901 0.026072 0.044652
C23   C     C_R   0.508006 0.495073 0.252398 0.320433
C24   C     C_R   0.292489 0.541374 0.049432 -0.248359
C25   C     C_R   0.720711 0.375196 0.103532 -0.135297
C26   C     C_R   0.729270 0.401661 0.948324 -0.224389
C27   C     C_R   0.729133 0.412874 0.898322 -0.137710
C28   C     C_R   0.500037 0.499712 0.594190 0.920602
C29   C     C_R   0.721043 0.365408 0.053446 -0.225623
C30   C     C_3   0.071576 0.652309 0.499342 -0.396846
C31   C     C_3   0.072329 0.427386 0.545921 -0.395725
C32   C     C_3   0.928667 0.652312 0.499413 -0.399184
C33   C     C_3   0.927818 0.427248 0.545892 -0.399766
C34   C     C_R   0.506850 0.463450 0.101408 -0.056058
C35   C     C_3   0.072400 0.425316 0.454374 -0.400518
C36   C     C_3   0.121326 0.501275 0.499896 0.177804
C37   C     C_3   0.878897 0.501278 0.499893 0.180604
C38   C     C_3   0.927873 0.425442 0.454346 -0.397369
C39   C     C_3   0.393736 0.081569 0.470051 -0.232833
C40   C     C_3   0.393909 0.918753 0.469959 -0.242742
C41   C     C_3   0.617806 0.081486 0.478054 -0.232336
C42   C     C_3   0.617930 0.918777 0.478168 -0.243708
C43   C     C_3   0.487685 0.081012 0.548544 -0.243841
C44   C     C_3   0.487278 0.918547 0.548521 -0.202047
C45   C     C_R   0.401748 0.518918 0.125618 -0.017467
C46   C     C_R   0.405421 0.532129 0.175910 0.502667
C47   C     C_R   0.614507 0.441142 0.178039 0.502915
C48   C     C_R   0.503513 0.370924 0.278193 -0.105917
C49   C     C_R   0.500627 0.372740 0.328300 -0.225908
C50   C     C_R   0.506128 0.623769 0.327018 -0.231074
C51   C     C_3   0.146364 0.387745 0.971413 -0.449804
C52   C     C_3   0.092835 0.257709 0.947613 -0.848937
C53   C     C_R   0.296506 0.561343 0.099094 -0.132686
C54   C     C_R   0.615137 0.426621 0.127772 -0.021929
C55   C     C_R   0.502033 0.499173 0.353082 -0.045163
C56   C     C_R   0.501838 0.496466 0.647191 -0.094374
H1    H     H_    0.507379 0.722484 0.345382 0.150552
H2    H     H_    0.107055 0.318897 0.547272 0.172662
H3    H     H_    0.106071 0.709586 0.531630 0.177735
H4    H     H_    0.107536 0.480935 0.578838 0.170810
H5    H     H_    0.894383 0.709296 0.531799 0.173491
H6    H     H_    0.892406 0.480540 0.578832 0.167187
H7    H     H_    0.512540 0.717683 0.256708 0.140530
H8    H     H_    0.894142 0.708080 0.466734 0.170199
H9    H     H_    0.893243 0.318688 0.547155 0.171943
H10   H     H_    0.107821 0.477228 0.421096 0.165221
H11   H     H_    0.106946 0.316713 0.453806 0.170552
H12   H     H_    0.501966 0.273095 0.259269 0.137936
H13   H     H_    0.892649 0.477582 0.421088 0.165513
H14   H     H_    0.893161 0.316898 0.453701 0.170917
H15   H     H_    0.399393 0.120615 0.432280 0.146560
H16   H     H_    0.399989 0.880443 0.432157 0.149422
H17   H     H_    0.302578 0.119128 0.484820 0.145562
H18   H     H_    0.302701 0.880748 0.484570 0.145116
H19   H     H_    0.630308 0.120416 0.440500 0.146471
H20   H     H_    0.630951 0.879824 0.440698 0.147754
H21   H     H_    0.566794 0.118639 0.571348 0.148103
H22   H     H_    0.565829 0.880164 0.571506 0.177822
H23   H     H_    0.804318 0.343842 0.123129 0.190730
H24   H     H_    0.399596 0.119792 0.565561 0.153187
H25   H     H_    0.398611 0.880270 0.565275 0.183681
H26   H     H_    0.700295 0.119093 0.499001 0.146083
H27   H     H_    0.700195 0.881418 0.499331 0.145460
H28   H     H_    0.216926 0.610391 0.116553 0.190872
H29   H     H_    0.455073 0.692693 0.748066 0.137614
H30   H     H_    0.185476 0.453718 0.878616 0.196796
H31   H     H_    0.212288 0.582626 0.030165 0.152959
H32   H     H_    0.497340 0.275234 0.347537 0.151313
H33   H     H_    0.428272 0.809344 0.677653 0.326356
H34   H     H_    0.820303 0.392922 0.965293 0.146239
H35   H     H_    0.060015 0.279610 0.910305 0.258867
H36   H     H_    0.165183 0.174828 0.946723 0.273668
H37   H     H_    0.010762 0.220018 0.968758 0.243431
H38   H     H_    0.158187 0.360179 0.010012 0.230259
H39   H     H_    0.076338 0.472682 0.968526 0.202610
H40   H     H_    0.552196 0.278669 0.649623 0.173964
H41   H     H_    0.818446 0.408394 0.879434 0.188999
H42   H     H_    0.552929 0.263762 0.737396 0.150227
H43   H     H_    0.805114 0.323843 0.037106 0.143149
H44   H     H_    0.105900 0.707778 0.466567 0.169100
N1    N     N_R   0.510112 0.491596 0.200910 -0.357192
N2    N     N_R   0.503578 0.466272 0.799251 -0.345930
N3    N     N_3   0.499750 0.138610 0.498940 -0.033151
N4    N     N_3   0.499750 0.861390 0.498940 -0.043553
O1    O     O_R   0.314910 0.616040 0.499990 -0.634233
O2    O     O_2   0.282749 0.485229 0.798196 -0.555808
O3    O     O_2   0.717128 0.405244 0.203975 -0.558597
O4    O     O_2   0.724160 0.443735 0.798005 -0.555520
O5    O     O_3   0.444553 0.738059 0.652725 -0.791290
O6    O     O_R   0.314910 0.383960 0.499990 -0.635130
O7    O     O_R   0.500140 0.616020 0.428740 -0.628419
O8    O     O_R   0.500140 0.383980 0.428740 -0.627774
O9    O     O_R   0.685320 0.616040 0.499970 -0.638952
O10   O     O_R   0.685320 0.383960 0.499970 -0.635769
O11   O     O_R   0.500090 0.616050 0.571230 -0.568672
O12   O     O_R   0.500090 0.383950 0.571230 -0.643743
O13   O     O_2   0.304602 0.582570 0.199797 -0.559482
Zn1   Zn    Zn3+2 0.500150 0.654960 0.499980 0.922233
Zn2   Zn    Zn3+2 0.500150 0.345040 0.499980 0.903167

loop_
_geom_bond_atom_site_label_1
_geom_bond_atom_site_label_2
_ccdc_geom_bond_type
C10   C27   A    
C38   H14   S    
C8    C13   A    
C47   N1    A    
C22   C29   A    
C30   H44   S    
C41   C42   S    
C15   O5    S    
C35   C36   S    
C16   O9    A    
C28   C56   S    
C33   H9    S    
C7    C8    A    
C45   C46   A    
C12   C23   A    
C26   C27   A    
C53   H28   S    
C31   H2    S    
C32   H5    S    
C14   C15   A    
C19   N2    S    
C7    H30   S    
C41   H19   S    
H33   O5    S    
C18   C19   A    
C28   O12   A    
C20   C24   A    
C33   H6    S    
C31   C33   S    
C6    C51   S    
C9    C10   A    
C3    C22   A    
O10   Zn2   S    
C16   C37   S    
C4    O8    A    
C38   H13   S    
C45   C53   A    
C21   C22   A    
C49   H32   S    
C2    C6    A    
N4    Zn1   S    
C25   C29   A    
C46   N1    A    
C29   H43   S    
C2    C20   A    
C51   C52   S    
C35   C38   S    
C25   C54   A    
C32   H8    S    
C44   H25   S    
C39   C40   S    
C17   H40   S    
C12   H7    S    
C8    C9    A    
C21   C34   A    
C35   H10   S    
C24   C53   A    
C49   C55   A    
C33   C37   S    
C41   N3    S    
C46   O13   S    
C42   N4    S    
C31   H4    S    
C43   C44   S    
C5    C9    A    
C37   C38   S    
C28   O11   A    
C1    O6    A    
C40   N4    S    
C44   N4    S    
C35   H11   S    
O11   Zn1   S    
C30   H3    S    
C17   C18   A    
C52   H37   S    
C34   C45   A    
C32   C37   S    
C48   H12   S    
C17   C56   A    
C47   C54   A    
C48   C49   A    
C4    O7    A    
C34   C54   A    
C47   O3    S    
O7    Zn1   S    
C4    C55   S    
O1    Zn1   S    
C52   H36   S    
C2    C5    A    
C43   H21   S    
C27   H41   S    
C23   C48   A    
C40   H16   S    
C25   H23   S    
C50   H1    S    
C14   C19   A    
C3    C26   A    
N3    Zn2   S    
C42   H27   S    
C14   H29   S    
C13   O2    S    
C3    C5    A    
C16   O10   A    
O6    Zn2   S    
O8    Zn2   S    
C12   C50   A    
C39   N3    S    
C6    C7    A    
C26   H34   S    
C42   H20   S    
C50   C55   A    
O12   Zn2   S    
C30   C36   S    
C15   C56   A    
C44   H22   S    
C43   H24   S    
C30   C32   S    
C23   N1    S    
C41   H26   S    
C40   H18   S    
C11   N2    A    
C39   H17   S    
C24   H31   S    
C43   N3    S    
C10   C11   A    
C51   H38   S    
O9    Zn1   S    
C20   C21   A    
C1    O1    A    
C11   O4    S    
C39   H15   S    
C31   C36   S    
C52   H35   S    
C18   H42   S    
C13   N2    A    
C1    C36   S    
C51   H39   S    
