data_mof_unit_3979.cif
_audit_creation_date              2012-12-11T15:48:42-0500
_audit_creation_method            fapswitch 2.2
_symmetry_space_group_name_H-M    P1
_symmetry_Int_Tables_number       1
_space_group_crystal_system       triclinic
_cell_length_a                    10.922076
_cell_length_b                    10.944043
_cell_length_c                    18.786715
_cell_angle_alpha                 90.487699
_cell_angle_beta                  90.254747
_cell_angle_gamma                 60.35508
_cell_volume                      1951.60326479

loop_
_atom_site_label
_atom_site_type_symbol
_atom_type_description
_atom_site_fract_x
_atom_site_fract_y
_atom_site_fract_z
_atom_type_partial_charge
C1    C     C_R   0.239243 0.645811 0.610310 0.543393
C2    C     C_3   0.643360 0.568099 0.800701 -0.252416
C3    C     C_3   0.697139 0.672584 0.812391 0.047732
C4    C     C_3   0.668798 0.646709 0.676356 0.060954
C5    C     C_3   0.823383 0.603374 0.693017 -0.243149
C6    C     C_3   0.623540 0.555006 0.720370 -0.214058
C7    C     C_R   0.690174 0.139759 0.820836 0.014919
C8    C     C_R   0.795602 0.142721 0.780763 0.017126
C9    C     C_R   0.788993 0.151291 0.708365 0.018564
C10   C     C_R   0.577161 0.139129 0.708444 -0.186510
C11   C     C_R   0.577832 0.141662 0.781992 -0.180456
C12   C     C_R   0.653920 0.622236 0.600824 0.542052
C13   C     C_3   0.929386 0.147121 0.784832 -0.279386
C14   C     C_3   0.921369 0.158661 0.702996 -0.277875
C15   C     C_R   0.675708 0.158366 0.669984 0.013922
C16   C     C_R   0.178413 0.669684 0.834618 0.014203
C17   C     C_R   0.153856 0.576533 0.793864 0.018503
C18   C     C_R   0.161990 0.574339 0.720044 -0.005336
C19   C     C_R   0.210481 0.766276 0.725356 -0.165887
C20   C     C_R   0.208075 0.764210 0.799243 -0.170628
C21   C     C_3   0.230526 0.420177 0.797575 -0.283552
C22   C     C_3   0.237101 0.418207 0.717071 -0.271582
C23   C     C_R   0.631226 0.223721 0.600936 0.548295
C24   C     C_R   0.193130 0.667070 0.684439 0.015273
C25   C     C_R   0.705215 0.707653 0.181187 0.004817
C26   C     C_R   0.803293 0.589727 0.217480 0.015381
C27   C     C_R   0.794731 0.574899 0.289022 0.028433
C28   C     C_R   0.583658 0.800615 0.294455 -0.169767
C29   C     C_R   0.599483 0.818709 0.221337 -0.149419
C30   C     C_3   0.861889 0.437032 0.201637 -0.269598
C31   C     C_3   0.856635 0.419342 0.280888 -0.274334
C32   C     C_R   0.676843 0.672146 0.327404 0.011221
C33   C     C_R   0.643641 0.188688 0.168458 0.018316
C34   C     C_R   0.217772 0.652006 0.402705 0.542509
C35   C     C_R   0.507626 0.263287 0.196795 0.003806
C36   C     C_R   0.490265 0.288333 0.269228 0.001837
C37   C     C_R   0.741351 0.184671 0.284587 -0.173493
C38   C     C_R   0.758999 0.162302 0.211989 -0.174302
C39   C     C_3   0.386169 0.237013 0.191503 -0.268111
C40   C     C_3   0.377184 0.249195 0.271688 -0.265746
C41   C     C_R   0.606281 0.246109 0.313973 0.023207
C42   C     C_R   0.058532 0.726481 0.194892 0.012456
C43   C     C_R   0.073834 0.828732 0.232301 0.010821
C44   C     C_R   0.107702 0.813314 0.303254 -0.022628
C45   C     C_R   0.644996 0.625430 0.393878 0.533375
C46   C     C_R   0.092514 0.601217 0.306111 -0.160981
C47   C     C_R   0.065380 0.613359 0.232710 -0.174201
C48   C     C_3   0.166786 0.891923 0.217983 0.156562
C49   C     C_3   0.200243 0.878820 0.296687 -0.237823
C50   C     C_R   0.130478 0.692279 0.339464 0.016134
C51   C     C_R   0.702592 0.099885 0.895367 0.542416
C52   C     C_R   0.721920 0.687107 0.888614 0.546932
C53   C     C_R   0.118844 0.705870 0.905941 0.548152
C54   C     C_R   0.673725 0.111357 0.102381 0.537117
C55   C     C_R   0.729937 0.716343 0.105671 0.543308
C56   C     C_R   0.583426 0.287363 0.387728 0.561852
C57   C     C_R   0.030913 0.745185 0.119144 0.547490
C58   C     C_3   0.588814 0.816257 0.779532 -0.232744
C59   C     C_3   0.574048 0.802037 0.698883 -0.246243
C60   C     C_3   0.839197 0.620007 0.772628 -0.218587
Cr1   Cr    Cr6+3 0.392960 0.397920 0.502240 1.001252
Cr2   Cr    Cr6+3 0.398340 0.708480 0.501250 0.996156
Cr3   Cr    Cr6+3 0.708670 0.393570 0.496460 1.000389
Cr4   Cr    Cr6+3 0.937650 0.938540 0.007610 1.016584
Cr5   Cr    Cr6+3 0.625330 0.937370 0.994520 1.003255
Cr6   Cr    Cr6+3 0.937940 0.625230 0.001190 0.996105
H1    H     H_    0.627340 0.891044 0.788814 0.149110
H2    H     H_    0.685078 0.443191 0.704197 0.137194
H3    H     H_    0.920270 0.516548 0.793694 0.139261
H4    H     H_    0.895563 0.492003 0.677478 0.130819
H5    H     H_    0.490372 0.135349 0.682382 0.133912
H6    H     H_    0.492143 0.136194 0.807701 0.141943
H7    H     H_    0.017777 0.047409 0.804580 0.154239
H8    H     H_    0.916827 0.243105 0.811956 0.123545
H9    H     H_    0.904496 0.260893 0.683017 0.140257
H10   H     H_    0.006288 0.065034 0.675421 0.140679
H11   H     H_    0.235845 0.840143 0.700853 0.129691
H12   H     H_    0.484137 0.858504 0.805648 0.120470
H13   H     H_    0.225260 0.839910 0.828694 0.124971
H14   H     H_    0.164172 0.378099 0.818878 0.133232
H15   H     H_    0.334469 0.379630 0.823981 0.141363
H16   H     H_    0.344773 0.376619 0.695988 0.177793
H17   H     H_    0.173039 0.376853 0.691310 0.126160
H18   H     H_    0.493640 0.881122 0.323058 0.123465
H19   H     H_    0.523733 0.913203 0.195371 0.145621
H20   H     H_    0.970819 0.384956 0.180154 0.134635
H21   H     H_    0.786910 0.415148 0.171479 0.151069
H22   H     H_    0.779345 0.387868 0.296287 0.163092
H23   H     H_    0.461641 0.838623 0.686279 0.132236
H24   H     H_    0.962332 0.359561 0.305996 0.129287
H25   H     H_    0.833818 0.153144 0.317490 0.136376
H26   H     H_    0.865149 0.110637 0.191506 0.131568
H27   H     H_    0.411699 0.132288 0.171377 0.160129
H28   H     H_    0.294687 0.324968 0.164428 0.136697
H29   H     H_    0.275753 0.334090 0.290683 0.133253
H30   H     H_    0.412625 0.146673 0.298342 0.145058
H31   H     H_    0.096838 0.514359 0.335138 0.124000
H32   H     H_    0.059528 0.530202 0.204836 0.132829
H33   H     H_    0.104742 0.003611 0.201715 0.117344
H34   H     H_    0.605403 0.869954 0.669416 0.118297
H35   H     H_    0.312243 0.807346 0.310082 0.157560
H36   H     H_    0.153632 0.982422 0.324362 0.097329
H37   H     H_    0.876295 0.697133 0.781035 0.133853
H38   H     H_    0.855635 0.669696 0.662568 0.119904
H39   H     H_    0.719321 0.463813 0.822820 0.122547
H40   H     H_    0.541332 0.605460 0.828829 0.118174
H41   H     H_    0.511142 0.588320 0.709577 0.129803
O1    O     O_R   0.507380 0.255700 0.581440 -0.532828
O2    O     O_R   0.524480 0.695810 0.424040 -0.511964
O3    O     O_R   0.736390 0.504290 0.414790 -0.527246
O4    O     O_R   0.691300 0.277290 0.422170 -0.512105
O5    O     O_3   0.499990 0.499990 0.499980 -0.263582
O6    O     O_R   0.089400 0.825690 0.930570 -0.518446
O7    O     O_R   0.818460 0.054440 0.929850 -0.494566
O8    O     O_R   0.606060 0.077150 0.915510 -0.535032
O9    O     O_R   0.646550 0.806680 0.917570 -0.504092
O10   O     O_R   0.837170 0.593410 0.915250 -0.524114
O11   O     O_R   0.065200 0.635530 0.931570 -0.496800
O12   O     O_R   0.280320 0.527350 0.578930 -0.503288
O13   O     O_R   0.068260 0.828890 0.091840 -0.469836
O14   O     O_R   0.798870 0.057410 0.079340 -0.530339
O15   O     O_R   0.584930 0.080350 0.076780 -0.528515
O16   O     O_R   0.626960 0.809650 0.067060 -0.497491
O17   O     O_R   0.816040 0.596610 0.076510 -0.525705
O18   O     O_R   0.045610 0.638500 0.081060 -0.526871
O19   O     O_3   0.833640 0.833710 0.001100 -0.284973
O20   O     O_R   0.260510 0.739590 0.584590 -0.529948
O21   O     O_R   0.532300 0.695080 0.573820 -0.507867
O22   O     O_R   0.744840 0.503500 0.576370 -0.530431
O23   O     O_R   0.699120 0.276560 0.571960 -0.497130
O24   O     O_R   0.498940 0.256500 0.419860 -0.512799
O25   O     O_R   0.272500 0.528080 0.429150 -0.518112
O26   O     O_R   0.252060 0.740380 0.423010 -0.522653
O27   O     O_3   0.282421 0.815586 0.170328 -0.526530
C61   C     C_3   0.377224 0.673498 0.188337 0.010631
H42   H     H_    0.327619 0.619482 0.215368 0.135559
H43   H     H_    0.461044 0.667926 0.223657 0.135037
C62   C     C_3   0.446756 0.591847 0.120612 -0.342167
H44   H     H_    0.493713 0.645557 0.090650 0.187736
H45   H     H_    0.531654 0.484534 0.134060 0.089414
H46   H     H_    0.367546 0.584082 0.086496 0.172287

loop_
_geom_bond_atom_site_label_1
_geom_bond_atom_site_label_2
_ccdc_geom_bond_type
C44   C49   S    
C61   C62   S    
C8    C13   S    
Cr1   O12   S    
C32   C45   S    
C19   C20   A    
C9    C14   S    
C61   H42   S    
C41   C56   S    
C7    C11   A    
C28   C32   A    
C26   C27   A    
C5    H4    S    
C47   H32   S    
C18   C24   A    
C22   H16   S    
Cr2   O26   S    
C48   O27   S    
C28   C29   A    
C10   C15   A    
C57   O18   A    
C30   C31   S    
C45   O2    A    
C28   H18   S    
Cr4   O14   S    
C38   H26   S    
C4    C59   S    
C59   H23   S    
Cr3   O23   S    
Cr3   O5    S    
C19   H11   S    
Cr1   O1    S    
C16   C53   S    
C39   H27   S    
Cr1   O25   S    
C55   O17   A    
C35   C36   A    
C16   C17   A    
Cr6   O10   S    
C6    H41   S    
C31   H22   S    
C30   H20   S    
C60   H37   S    
C43   C48   S    
C56   O4    A    
C29   H19   S    
C20   H13   S    
C3    C60   S    
C15   C23   S    
C54   O15   A    
C5    H38   S    
C34   O25   A    
C21   C22   S    
C37   C41   A    
C59   H34   S    
Cr5   O8    S    
C36   C41   A    
C2    C6    S    
C40   H30   S    
C42   C57   S    
C53   O6    A    
C52   O9    A    
C25   C29   A    
C55   O16   A    
C34   C50   S    
C51   O7    A    
Cr4   O7    S    
C12   O22   A    
C37   H25   S    
C27   C31   S    
C1    O20   A    
C7    C8    A    
C4    C6    S    
C10   C11   A    
C49   H36   S    
C58   H12   S    
C11   H6    S    
C8    C9    A    
C34   O26   A    
C25   C26   A    
C2    H40   S    
C51   O8    A    
Cr6   O19   S    
C23   O23   A    
C14   H10   S    
C35   C39   S    
C43   C44   A    
C39   H28   S    
C1    O12   A    
C37   C38   A    
C36   C40   S    
C16   C20   A    
C31   H24   S    
C45   O3    A    
C17   C18   A    
Cr5   O15   S    
C62   H45   S    
C57   O13   A    
C53   O11   A    
C48   C49   S    
C46   H31   S    
C13   H7    S    
C26   C30   S    
Cr4   O19   S    
Cr5   O9    S    
Cr6   O17   S    
C4    C12   S    
C42   C43   A    
C40   H29   S    
C39   C40   S    
C49   H35   S    
C44   C50   A    
C33   C54   S    
C61   H43   S    
C48   H33   S    
C46   C47   A    
Cr4   O6    S    
C5    C60   S    
C27   C32   A    
C18   C22   S    
Cr5   O16   S    
C54   O14   A    
C25   C55   S    
C21   H15   S    
C4    C5    S    
C62   H46   S    
C3    C52   S    
O27   C61   S    
C12   O21   A    
C46   C50   A    
C2    H39   S    
C33   C38   A    
Cr4   O13   S    
Cr6   O18   S    
Cr5   O19   S    
Cr3   O3    S    
C19   C24   A    
C58   C59   S    
C7    C51   S    
C14   H9    S    
C22   H17   S    
Cr2   O21   S    
Cr2   O20   S    
Cr2   O2    S    
C60   H3    S    
C23   O1    A    
C21   H14   S    
C6    H2    S    
C33   C35   A    
C2    C3    S    
C42   C47   A    
Cr3   O22   S    
Cr3   O4    S    
C17   C21   S    
C56   O24   A    
C62   H44   S    
Cr1   O24   S    
C10   H5    S    
C3    C58   S    
C58   H1    S    
Cr2   O5    S    
C13   H8    S    
C1    C24   S    
Cr6   O11   S    
C52   O10   A    
C30   H21   S    
C13   C14   S    
Cr1   O5    S    
C9    C15   A    
