data_mof_unit_3767.cif
_audit_creation_date              2013-03-05T15:52:28-0500
_audit_creation_method            fapswitch 2.2
_symmetry_space_group_name_H-M    P1
_symmetry_Int_Tables_number       1
_space_group_crystal_system       triclinic
_cell_length_a                    27.788075
_cell_length_b                    10.796083
_cell_length_c                    9.617526
_cell_angle_alpha                 89.816867
_cell_angle_beta                  90.1339
_cell_angle_gamma                 93.272636
_cell_volume                      2880.55378468

loop_
_atom_site_label
_atom_site_type_symbol
_atom_site_description
_atom_site_fract_x
_atom_site_fract_y
_atom_site_fract_z
_atom_type_partial_charge
O1    O     O_R   0.500000 0.319640 0.618810 -0.586129
O2    O     O_R   0.500000 0.319660 0.381240 -0.581469
C1    C     C_R   0.502609 0.262368 0.500859 0.795521
O3    O     O_R   0.430260 0.500010 0.618770 -0.563635
O4    O     O_R   0.430270 0.500030 0.381200 -0.578362
C2    C     C_R   0.407721 0.497381 0.499906 0.818762
Cu1   Cu    Cu3+1 0.500000 0.499990 0.640660 0.955440
Cu2   Cu    Cu3+1 0.500000 0.500010 0.359340 0.957886
O5    O     O_R   0.500000 0.680340 0.618760 -0.605390
O6    O     O_R   0.500000 0.680360 0.381190 -0.587479
O7    O     O_R   0.569730 0.499970 0.618800 -0.594966
O8    O     O_R   0.569740 0.499990 0.381230 -0.585945
C3    C     C_R   0.494108 0.735821 0.500827 0.817519
C4    C     C_R   0.592138 0.500656 0.500384 0.830144
C5    C     C_R   0.176597 0.454669 0.392703 0.588040
O9    O     O_2   0.200045 0.419909 0.277676 -0.517091
N1    N     N_R   0.202171 0.493135 0.507433 -0.454394
C6    C     C_R   0.179629 0.526055 0.626964 0.513281
C7    C     C_R   0.280822 0.579088 0.417973 0.310435
C8    C     C_R   0.331153 0.575968 0.415115 -0.286115
C9    C     C_R   0.327830 0.408829 0.585608 -0.048840
C10   C     C_R   0.277665 0.410332 0.586610 -0.186739
C11   C     C_R   0.253943 0.495157 0.504320 0.313264
C12   C     C_R   0.101628 0.482744 0.515821 -0.052791
C13   C     C_R   0.126142 0.449938 0.394207 -0.024760
C14   C     C_R   0.099998 0.411629 0.276548 -0.136037
C15   C     C_R   0.128592 0.520966 0.634941 -0.066008
C16   C     C_R   0.354899 0.493176 0.500239 -0.085796
H1    H     H_    0.256641 0.344635 0.650698 0.162494
H2    H     H_    0.118060 0.384833 0.182469 0.190600
C17   C     C_R   0.644546 0.496163 0.502169 -0.125440
C18   C     C_R   0.972754 0.440180 0.395783 0.045933
C19   C     C_R   0.974140 0.498242 0.643556 0.040342
C20   C     C_R   0.948025 0.467883 0.520257 0.070023
C21   C     C_R   0.945162 0.413440 0.274613 -0.209901
C22   C     C_R   0.895337 0.412557 0.275913 -0.133520
C23   C     C_R   0.870703 0.439599 0.397179 -0.022385
C24   C     C_R   0.896654 0.465817 0.520845 -0.056583
C25   C     C_R   0.871172 0.490948 0.643998 -0.074419
C26   C     C_R   0.820127 0.487960 0.638541 0.565256
N2    N     N_R   0.796266 0.467871 0.515369 -0.435608
C27   C     C_R   0.820419 0.443345 0.396106 0.568008
C28   C     C_R   0.714204 0.371476 0.482321 0.266891
C29   C     C_R   0.664382 0.382507 0.476133 -0.339212
C30   C     C_R   0.674658 0.601782 0.533363 -0.108768
C31   C     C_R   0.725056 0.592844 0.535105 0.205642
C32   C     C_R   0.744781 0.477174 0.510700 0.279344
O10   O     O_2   0.795807 0.424506 0.276125 -0.543110
C33   C     C_R   0.023975 0.440922 0.395684 0.045822
C34   C     C_R   0.050215 0.476820 0.517637 0.069686
C35   C     C_R   0.025568 0.507045 0.640876 0.039679
C36   C     C_R   0.050111 0.406897 0.277006 -0.209058
H3    H     H_    0.640874 0.301351 0.453746 0.154764
H4    H     H_    0.876116 0.390718 0.180214 0.194942
H5    H     H_    0.960708 0.394698 0.175115 0.135091
H6    H     H_    0.033346 0.374247 0.182065 0.137608
O11   O     O_2   0.206851 0.564503 0.736560 -0.520350
C37   C     C_R   0.103542 0.553120 0.756299 -0.024117
H7    H     H_    0.351903 0.640832 0.349379 0.152316
C38   C     C_R   0.947775 0.519395 0.765974 -0.246876
C39   C     C_R   0.897621 0.518260 0.766946 -0.020222
O12   O     O_2   0.794155 0.504226 0.754699 -0.534576
C40   C     C_R   0.053332 0.546977 0.757424 -0.247995
H8    H     H_    0.965091 0.536668 0.864790 0.133148
H9    H     H_    0.037088 0.576881 0.852126 0.136935
H10   H     H_    0.493760 0.111004 0.280196 0.163692
C41   C     C_R   0.523391 0.112268 0.756825 -0.140528
H11   H     H_    0.545182 0.198382 0.758977 0.162345
C42   C     C_R   0.514940 0.051600 0.883238 -0.160634
H12   H     H_    0.528043 0.093791 0.979109 0.141275
C43   C     C_R   0.486828 0.940990 0.886855 -0.170367
H13   H     H_    0.476275 0.901013 0.986519 0.132219
C44   C     C_R   0.471748 0.883536 0.762790 0.003892
C45   C     C_R   0.487350 0.935280 0.632834 0.052057
C46   C     C_R   0.505186 0.059960 0.631105 0.099777
C47   C     C_R   0.503458 0.126890 0.503838 -0.113052
C48   C     C_R   0.494899 0.062731 0.378981 -0.182910
H14   H     H_    0.486388 0.887301 0.280076 0.157046
C49   C     C_R   0.488852 0.934896 0.379066 -0.170702
C50   C     C_R   0.487029 0.869313 0.504816 -0.111037
C51   C     C_R   0.580127 0.625177 0.134680 -0.015837
C52   C     C_R   0.621894 0.646253 0.053684 0.203418
C53   C     C_R   0.616290 0.664541 0.912529 -0.271833
H15   H     H_    0.645969 0.703545 0.850872 0.173323
C54   C     C_R   0.571812 0.638516 0.852086 -0.160154
H16   H     H_    0.568001 0.670197 0.747967 0.222532
C55   C     C_R   0.535553 0.568623 0.924003 0.181948
C56   C     C_R   0.537199 0.566467 0.073278 0.071454
N3    N     N_R   0.500460 0.501210 0.147910 -0.214059
C57   C     C_R   0.466381 0.432206 0.072981 0.040565
H17   H     H_    0.439586 0.376680 0.869186 0.164866
C58   C     C_R   0.466574 0.432644 0.925459 -0.069599
N4    N     N_R   0.500480 0.501290 0.852040 -0.198340
C59   C     C_1   0.350411 0.315757 0.667437 0.271242
N5    N     N_1   0.368371 0.240695 0.732549 -0.286228
N6    N     N_2   0.257384 0.665638 0.333128 -0.400323
H18   H     H_    0.275823 0.689303 0.243010 0.268819
C60   C     C_3   0.242459 0.773679 0.406455 -0.636955
H19   H     H_    0.223061 0.833585 0.333753 0.236581
H20   H     H_    0.274442 0.827814 0.448538 0.224364
H21   H     H_    0.217671 0.746295 0.492893 0.245122
C61   C     C_1   0.127491 0.592673 0.883880 0.333256
N7    N     N_1   0.146385 0.624216 0.986256 -0.227842
C62   C     C_1   0.654339 0.719698 0.560896 0.220346
N8    N     N_1   0.638461 0.814307 0.583789 -0.289467
C63   C     C_1   0.875192 0.551143 0.896392 0.322977
N9    N     N_1   0.857357 0.578298 0.999712 -0.250000
N10   N     N_2   0.756476 0.699090 0.562491 -0.404181
H22   H     H_    0.744120 0.758354 0.636523 0.265004
C64   C     C_3   0.774276 0.763625 0.439371 -0.672291
H23   H     H_    0.799942 0.841388 0.470039 0.229941
H24   H     H_    0.743933 0.801848 0.380688 0.234658
H25   H     H_    0.793603 0.700106 0.371392 0.243568
C65   C     C_1   0.433621 0.787086 0.772227 0.260415
N11   N     N_1   0.402774 0.710822 0.780928 -0.256063
C66   C     C_1   0.430956 0.351942 0.142447 0.308578
N12   N     N_1   0.402416 0.286771 0.197475 -0.276491
C67   C     C_1   0.579863 0.717864 0.241580 0.353791
N13   N     N_1   0.582674 0.796782 0.322787 -0.288031
N14   N     N_2   0.667325 0.677487 0.117280 -0.446193
H26   H     H_    0.688319 0.744092 0.064621 0.257654
C68   C     C_3   0.693923 0.570602 0.152433 -0.573067
H27   H     H_    0.705378 0.523717 0.056265 0.247803
H28   H     H_    0.671409 0.503919 0.215926 0.234365
H29   H     H_    0.726458 0.600554 0.213283 0.244116
N15   N     N_2   0.733534 0.254141 0.458515 -0.398350
H30   H     H_    0.713209 0.198312 0.391086 0.261409
C69   C     C_3   0.745896 0.188409 0.583704 -0.647126
H31   H     H_    0.762255 0.100471 0.555435 0.224788
H32   H     H_    0.713039 0.166044 0.646733 0.226881
H33   H     H_    0.772480 0.244687 0.646732 0.244835

loop_
_geom_bond_atom_site_label_1
_geom_bond_atom_site_label_2
_geom_bond_distance
_ccdc_geom_bond_type
C55   C56   1.436432 A    
C40   H9    1.076096 S    
N15   H30   1.031874 S    
C10   H1    1.084372 S    
C44   C45   1.425683 A    
C21   C22   1.384126 A    
C12   C15   1.416997 A    
C52   N14   1.425023 S    
C4    C17   1.459941 S    
C28   C29   1.397447 A    
C69   H31   1.110584 S    
C65   N11   1.157134 T    
Cu1   Cu2   2.705602 S    
C30   C31   1.409329 A    
C66   N12   1.157571 T    
Cu1   O7    1.949535 S    
N1    C11   1.437958 S    
C22   C23   1.393818 A    
O4    C2    1.303039 A    
O7    C4    1.299051 A    
C5    C13   1.400167 A    
C63   N9    1.157459 T    
C5    O9    1.350250 S    
C60   H19   1.110355 S    
C26   O12   1.348792 S    
N10   H22   1.031186 S    
N1    C6    1.368073 A    
N2    C27   1.364549 A    
C23   C27   1.400227 A    
C42   C43   1.389538 A    
O5    C3    1.295388 A    
C67   N13   1.156881 T    
O1    Cu1   1.959048 S    
C64   H23   1.110294 S    
C29   H3    1.084417 S    
C2    C16   1.465936 S    
C7    C8    1.401281 A    
N10   C64   1.445795 S    
C31   N10   1.426135 S    
C37   C61   1.448395 S    
C57   C66   1.438142 S    
C54   C55   1.405728 A    
C3    C50   1.466273 S    
C45   C50   1.424090 A    
C9    C10   1.395065 A    
C61   N7    1.157759 T    
O3    Cu1   1.948868 S    
Cu1   N4    2.033054 S    
C28   N15   1.423290 S    
C62   N8    1.157482 T    
N14   C68   1.444248 S    
C51   C52   1.406610 A    
C48   C49   1.380749 A    
C12   C34   1.426584 A    
C25   C39   1.413763 A    
C17   C29   1.397131 A    
C21   H5    1.075360 S    
C41   H11   1.080367 S    
C18   C21   1.414900 A    
C35   C40   1.413717 A    
C12   C13   1.411167 A    
O3    C2    1.301836 A    
C45   C46   1.407664 A    
C25   C26   1.417833 A    
C43   C44   1.398850 A    
H14   C49   1.083471 S    
C8    C16   1.401673 A    
C13   C14   1.394339 A    
C54   H16   1.064134 S    
C51   C67   1.437305 S    
C15   C37   1.414665 A    
C44   C65   1.445305 S    
N6    C60   1.446286 S    
C38   C39   1.393112 A    
O1    C1    1.297853 A    
C18   C20   1.422796 A    
C7    C11   1.410453 A    
C46   C47   1.421489 A    
C23   C24   1.410504 A    
C1    C47   1.464353 S    
C30   C62   1.447223 S    
C14   C36   1.384312 A    
C6    O11   1.348600 S    
C57   C58   1.418806 A    
C53   H15   1.081731 S    
Cu2   O8    1.948862 S    
C33   C36   1.414987 A    
N6    H18   1.031851 S    
C34   C35   1.418509 A    
N2    C32   1.440490 S    
C59   N5    1.157319 T    
C27   O10   1.350034 S    
C47   C48   1.401240 A    
C8    H7    1.084126 S    
C39   C63   1.447790 S    
C64   H25   1.110274 S    
C26   N2    1.368033 A    
C53   C54   1.379322 A    
C9    C16   1.410332 A    
O8    C4    1.302643 A    
C14   H2    1.083809 S    
C19   C38   1.414180 A    
C60   H20   1.111661 S    
C33   C34   1.422739 A    
C41   C46   1.416225 A    
C68   H28   1.109105 S    
C69   H33   1.109648 S    
H17   C58   1.081124 S    
N14   H26   1.032003 S    
C37   C40   1.393096 A    
Cu1   O5    1.957763 S    
H10   C48   1.083427 S    
C31   C32   1.412662 A    
N15   C69   1.446257 S    
C20   C24   1.426445 A    
O2    Cu2   1.957763 S    
C6    C15   1.418412 A    
O6    C3    1.313656 A    
C69   H32   1.111694 S    
O4    Cu2   1.949538 S    
C5    N1    1.364033 A    
C19   C35   1.427106 A    
C60   H21   1.109434 S    
C38   H8    1.076213 S    
C68   H29   1.108952 S    
O2    C1    1.308250 A    
C68   H27   1.111636 S    
C43   H13   1.084082 S    
C24   C25   1.416248 A    
C55   N4    1.369854 A    
C58   N4    1.362205 A    
C19   C20   1.418292 A    
C42   H12   1.082771 S    
C64   H24   1.111647 S    
C18   C33   1.422909 A    
C51   C56   1.444393 A    
C22   H4    1.082905 S    
C49   C50   1.399025 A    
C9    C59   1.444777 S    
C56   N3    1.404228 A    
Cu2   O6    1.959049 S    
C52   C53   1.380943 A    
C17   C30   1.408009 A    
C10   C11   1.400497 A    
Cu2   N3    2.033499 S    
C41   C42   1.393180 A    
N3    C57   1.375057 A    
C28   C32   1.410252 A    
C7    N6    1.423111 S    
C36   H6    1.075327 S    
