data_mof_unit_3601.cif
_audit_creation_date              2012-12-10T18:53:45-0500
_audit_creation_method            fapswitch 2.2
_symmetry_space_group_name_H-M    P1
_symmetry_Int_Tables_number       1
_space_group_crystal_system       triclinic
_cell_length_a                    10.637996
_cell_length_b                    9.93877
_cell_length_c                    19.192708
_cell_angle_alpha                 90.146631
_cell_angle_beta                  91.75764
_cell_angle_gamma                 89.97559
_cell_volume                      2028.25656903

loop_
_atom_site_label
_atom_site_type_symbol
_atom_type_description
_atom_site_fract_x
_atom_site_fract_y
_atom_site_fract_z
_atom_type_partial_charge
C1    C     C_R   0.260329 0.499864 0.500239 0.842304
C2    C     C_R   0.066871 0.591289 0.543252 -0.223523
C3    C     C_R   0.872110 0.498950 0.501386 0.003936
C4    C     C_R   0.127827 0.498872 0.501216 0.003285
C5    C     C_R   0.598939 0.071989 0.529409 0.148320
C6    C     C_R   0.403310 0.928859 0.467825 0.159019
C7    C     C_R   0.404428 0.073077 0.467522 0.198619
C8    C     C_R   0.598092 0.927915 0.530116 0.176367
C9    C     C_R   0.415493 0.570767 0.251467 0.171069
C10   C     C_R   0.473357 0.380825 0.749549 0.192255
C11   C     C_R   0.477258 0.627142 0.747193 0.197149
C12   C     C_R   0.739639 0.499858 0.500622 0.859628
C13   C     C_R   0.607911 0.435079 0.258899 0.153892
C14   C     C_R   0.427219 0.578655 0.179649 -0.230608
C15   C     C_R   0.495074 0.386140 0.821996 -0.188449
C16   C     C_R   0.495923 0.629181 0.819065 -0.242275
C17   C     C_R   0.616604 0.442297 0.186740 -0.225782
C18   C     C_R   0.526555 0.513677 0.147298 0.023530
C19   C     C_R   0.509085 0.509644 0.856139 0.004513
C20   C     C_R   0.506836 0.499401 0.291111 -0.099255
C21   C     C_R   0.479198 0.502437 0.711056 -0.184006
C22   C     C_3   0.213066 0.547682 0.304136 -0.818968
C23   C     C_R   0.523477 0.514513 0.931657 0.313093
C24   C     C_3   0.433964 0.133133 0.753678 -0.867913
C25   C     C_3   0.320718 0.769591 0.691696 -0.741834
C26   C     C_3   0.704445 0.228631 0.299386 -0.762217
C27   C     C_3   0.712314 0.179185 0.627480 -0.662960
C28   C     C_3   0.179863 0.867906 0.451309 -0.791184
C29   C     C_3   0.309483 0.144870 0.356751 -0.754217
C30   C     C_3   0.711359 0.845828 0.633910 -0.727950
C31   C     C_R   0.532964 0.517377 0.071971 0.312752
C32   C     C_R   0.501658 0.499758 0.366173 0.919384
C33   C     C_R   0.492013 0.500346 0.634494 0.840835
C34   C     C_R   0.061945 0.405089 0.460148 -0.214907
C35   C     C_R   0.937895 0.591793 0.543034 -0.208142
C36   C     C_R   0.933071 0.404506 0.460571 -0.193792
H1    H     H_    0.109761 0.335119 0.426846 0.146974
H2    H     H_    0.168699 0.498388 0.257528 0.242708
H3    H     H_    0.140450 0.606679 0.331209 0.243568
H4    H     H_    0.249577 0.469615 0.340630 0.239502
H5    H     H_    0.360079 0.268953 0.680998 0.242672
H6    H     H_    0.361705 0.136949 0.794213 0.252110
H7    H     H_    0.528313 0.111551 0.777457 0.248081
H8    H     H_    0.409440 0.050412 0.716993 0.243184
H9    H     H_    0.488096 0.833905 0.738057 0.208245
H10   H     H_    0.263505 0.786323 0.738427 0.224470
H11   H     H_    0.283882 0.680465 0.662718 0.235705
H12   H     H_    0.889907 0.662587 0.575788 0.157216
H13   H     H_    0.311458 0.858333 0.656905 0.225406
H14   H     H_    0.794177 0.410732 0.287531 0.218973
H15   H     H_    0.717015 0.188901 0.245843 0.232561
H16   H     H_    0.614479 0.191420 0.319597 0.254568
H17   H     H_    0.782025 0.190054 0.333830 0.221703
H18   H     H_    0.791744 0.109878 0.535665 0.197646
H19   H     H_    0.624336 0.152008 0.653380 0.257765
H20   H     H_    0.728044 0.289087 0.632773 0.243877
H21   H     H_    0.791980 0.127068 0.654615 0.194271
H22   H     H_    0.332611 0.772211 0.404379 0.296019
H23   H     H_    0.881083 0.332873 0.428310 0.154037
H24   H     H_    0.134818 0.767854 0.446701 0.255299
H25   H     H_    0.124217 0.936196 0.416735 0.229608
H26   H     H_    0.176060 0.903122 0.506257 0.230255
H27   H     H_    0.219996 0.133374 0.451913 0.217135
H28   H     H_    0.283217 0.044255 0.335935 0.239002
H29   H     H_    0.403764 0.172018 0.338485 0.250563
H30   H     H_    0.240737 0.219187 0.335435 0.217439
H31   H     H_    0.787035 0.877893 0.536019 0.196024
H32   H     H_    0.704995 0.738592 0.649168 0.250723
H33   H     H_    0.635639 0.903296 0.659064 0.235722
H34   H     H_    0.118769 0.663024 0.575441 0.146510
H35   H     H_    0.803444 0.885098 0.653729 0.198793
H36   H     H_    0.356574 0.632649 0.148916 0.155002
H37   H     H_    0.495346 0.295371 0.852912 0.166926
H38   H     H_    0.498362 0.725054 0.846128 0.154251
H39   H     H_    0.694944 0.394400 0.161722 0.156990
H40   H     H_    0.279107 0.719152 0.256553 0.228812
N1    N     N_R   0.500000 0.857200 0.500000 -0.138769
N2    N     N_2   0.706672 0.374111 0.299398 -0.312468
N3    N     N_2   0.707314 0.142947 0.554377 -0.256053
N4    N     N_2   0.307976 0.860442 0.428035 -0.288291
N5    N     N_2   0.307869 0.147027 0.432142 -0.247325
N6    N     N_2   0.702807 0.856179 0.558672 -0.250925
N7    N     N_R   0.500000 0.142800 0.500000 -0.130269
N8    N     N_R   0.580198 0.411435 0.036668 -0.177162
N9    N     N_R   0.478846 0.621535 0.967078 -0.178109
N10   N     N_R   0.575195 0.409844 0.967469 -0.182292
N11   N     N_R   0.483080 0.622748 0.036138 -0.180091
N12   N     N_2   0.313017 0.636431 0.283539 -0.313702
N13   N     N_2   0.435851 0.258258 0.715402 -0.285780
N14   N     N_2   0.451559 0.750843 0.712370 -0.280053
O1    O     O_R   0.316770 0.614620 0.500000 -0.617453
O2    O     O_R   0.683230 0.385380 0.500000 -0.589803
O3    O     O_R   0.683230 0.614620 0.500000 -0.600820
O4    O     O_R   0.316770 0.385380 0.500000 -0.607706
O5    O     O_R   0.499990 0.614700 0.398140 -0.629768
O6    O     O_R   0.500010 0.385300 0.601860 -0.605291
O7    O     O_R   0.500010 0.614700 0.601860 -0.561224
O8    O     O_R   0.499990 0.385300 0.398140 -0.594474
Zn1   Zn    Zn3+2 0.500000 0.653120 0.500000 0.966102
Zn2   Zn    Zn3+2 0.500000 0.346880 0.500000 0.969445

loop_
_geom_bond_atom_site_label_1
_geom_bond_atom_site_label_2
_ccdc_geom_bond_type
C2    C35   A    
H5    N13   S    
C26   H17   S    
C34   H1    S    
C24   H6    S    
C14   C18   A    
C2    C4    A    
C36   H23   S    
C24   N13   S    
C30   H35   S    
C15   C19   A    
C25   N14   S    
C26   N2    S    
H27   N5    S    
C16   H38   S    
N8    N10   A    
C27   N3    S    
C10   C15   A    
C9    N12   S    
C5    N7    A    
C27   H19   S    
C21   C33   S    
O5    Zn1   S    
C22   H2    S    
C3    C12   S    
C10   N13   S    
C1    O4    A    
C23   N10   A    
C22   N12   S    
C5    N3    S    
O3    Zn1   S    
C33   O7    A    
H22   N4    S    
C28   H25   S    
N9    N11   A    
C29   H28   S    
C1    O1    A    
C35   H12   S    
H14   N2    S    
O7    Zn1   S    
C28   H24   S    
C10   C21   A    
C4    C34   A    
C31   N11   A    
C27   H21   S    
C27   H20   S    
C6    N1    A    
C25   H11   S    
C11   C21   A    
C31   N8    A    
C30   N6    S    
C19   C23   S    
C9    C14   A    
C29   N5    S    
C26   H16   S    
C11   C16   A    
C9    C20   A    
C6    N4    S    
C3    C35   A    
C22   H4    S    
C17   C18   A    
H9    N14   S    
C29   H29   S    
C15   H37   S    
O8    Zn2   S    
N7    Zn2   S    
C8    N1    A    
C24   H8    S    
C8    N6    S    
C12   O3    A    
C33   O6    A    
C30   H33   S    
O2    Zn2   S    
H18   N3    S    
C20   C32   S    
H40   N12   S    
C13   N2    S    
C13   C20   A    
C7    N5    S    
C14   H36   S    
C12   O2    A    
C5    C8    A    
C6    C7    A    
C13   C17   A    
C1    C4    S    
C26   H15   S    
C11   N14   S    
C7    N7    A    
C3    C36   A    
C16   C19   A    
C22   H3    S    
O6    Zn2   S    
C32   O8    A    
N1    Zn1   S    
C34   C36   A    
O4    Zn2   S    
C28   N4    S    
C25   H13   S    
C29   H30   S    
C32   O5    A    
H31   N6    S    
C23   N9    A    
C17   H39   S    
C24   H7    S    
C18   C31   S    
O1    Zn1   S    
C2    H34   S    
C25   H10   S    
C30   H32   S    
C28   H26   S    
