data_mof_unit_2641.cif
_audit_creation_date              2012-12-10T17:19:25-0500
_audit_creation_method            fapswitch 2.2
_symmetry_space_group_name_H-M    P1
_symmetry_Int_Tables_number       1
_space_group_crystal_system       triclinic
_cell_length_a                    15.071173
_cell_length_b                    10.762191
_cell_length_c                    9.663088
_cell_angle_alpha                 89.338856
_cell_angle_beta                  89.918817
_cell_angle_gamma                 93.982919
_cell_volume                      1563.44828663

loop_
_atom_site_label
_atom_site_type_symbol
_atom_type_description
_atom_site_fract_x
_atom_site_fract_y
_atom_site_fract_z
_atom_type_partial_charge
C1    C     C_R   0.499850 0.263009 0.500710 0.854613
C2    C     C_R   0.906685 0.496906 0.626747 0.108370
C3    C     C_R   0.953566 0.492762 0.247847 -0.203215
C4    C     C_R   0.046098 0.493127 0.247866 -0.182399
C5    C     C_R   0.092795 0.495124 0.373315 0.106966
C6    C     C_R   0.046268 0.496505 0.500048 0.062036
C7    C     C_R   0.092683 0.498773 0.626797 0.100851
C8    C     C_R   0.045866 0.499767 0.752237 -0.184485
C9    C     C_R   0.953304 0.498684 0.752218 -0.209819
C10   C     C_R   0.185283 0.495897 0.374241 -0.206290
C11   C     C_R   0.231743 0.498551 0.500103 -0.064929
C12   C     C_R   0.328827 0.499420 0.500073 0.850333
C13   C     C_R   0.185188 0.500163 0.625903 -0.194212
C14   C     C_R   0.657669 0.145401 0.589028 -0.147232
C15   C     C_R   0.734519 0.088316 0.626339 -0.114941
C16   C     C_R   0.736712 0.959553 0.618958 -0.118030
C17   C     C_R   0.661757 0.887270 0.575688 -0.109881
C18   C     C_R   0.582440 0.942818 0.540853 0.118484
C19   C     C_R   0.580768 0.073732 0.545207 0.044208
C20   C     C_R   0.502964 0.129391 0.502049 -0.149056
C21   C     C_R   0.428304 0.056801 0.455284 0.265220
C22   C     C_R   0.429936 0.928481 0.453848 -0.207225
C23   C     C_R   0.500985 0.737186 0.499373 0.825078
C24   C     C_R   0.505400 0.871544 0.497736 -0.108247
C25   C     C_R   0.647957 0.631503 0.130837 0.410006
C26   C     C_R   0.722790 0.662327 0.048754 -0.220322
C27   C     C_R   0.713070 0.675106 0.908425 -0.285260
C28   C     C_R   0.632117 0.640679 0.849437 -0.100573
C29   C     C_R   0.565633 0.569739 0.922929 0.116310
C30   C     C_R   0.568785 0.568138 0.072077 0.113876
C31   C     C_R   0.437848 0.432457 0.075779 -0.076023
C32   C     C_R   0.438902 0.429596 0.928981 0.336438
C33   C     C_R   0.671086 0.499064 0.499964 0.801078
C34   C     C_R   0.814273 0.496626 0.625774 -0.278514
C35   C     C_R   0.767949 0.496737 0.499945 -0.059954
C36   C     C_R   0.814419 0.494306 0.374192 -0.199256
C37   C     C_R   0.906822 0.494165 0.373288 0.099783
C38   C     C_R   0.953229 0.495850 0.500028 0.069467
Cu1   Cu    Cu3+1 0.499990 0.499990 0.640660 0.988553
Cu2   Cu    Cu3+1 0.500010 0.500010 0.359340 1.008418
H1    H     H_    0.778634 0.496310 0.723181 0.171805
H2    H     H_    0.659534 0.245729 0.593880 0.130946
H3    H     H_    0.792935 0.144406 0.659289 0.146014
H4    H     H_    0.796964 0.915562 0.645466 0.139686
H5    H     H_    0.667375 0.788339 0.565877 0.133603
H6    H     H_    0.371506 0.872513 0.420164 0.167353
H7    H     H_    0.387424 0.376080 0.132287 0.185670
H8    H     H_    0.784362 0.700988 0.094076 0.190210
H9    H     H_    0.766495 0.719367 0.846377 0.167793
H10   H     H_    0.624786 0.668845 0.745328 0.197620
H11   H     H_    0.778914 0.492417 0.276794 0.158440
H12   H     H_    0.918587 0.491594 0.149880 0.138651
H13   H     H_    0.081130 0.492085 0.149900 0.145285
H14   H     H_    0.220919 0.494528 0.276769 0.163972
H15   H     H_    0.220733 0.502679 0.723362 0.183195
H16   H     H_    0.080818 0.501413 0.850216 0.147497
H17   H     H_    0.918213 0.499664 0.850157 0.142447
N1    N     N_R   0.500860 0.501210 0.147910 -0.213766
N2    N     N_R   0.500890 0.501290 0.852040 -0.216726
O1    O     O_R   0.499990 0.319640 0.618810 -0.540445
O2    O     O_R   0.500000 0.319660 0.381240 -0.562121
O3    O     O_R   0.370250 0.499960 0.618800 -0.549302
O4    O     O_R   0.370260 0.499980 0.381230 -0.590013
O5    O     O_R   0.500000 0.680340 0.618760 -0.613566
O6    O     O_R   0.500010 0.680360 0.381190 -0.511247
O7    O     O_R   0.629740 0.500020 0.618770 -0.624283
O8    O     O_R   0.629750 0.500040 0.381200 -0.559047
Cl1   Cl    Cl    0.655500 0.734811 0.269383 -0.642503
Br1   Br    Br    0.353469 0.314555 0.844586 -0.467150
Br2   Br    Br    0.321165 0.129117 0.396823 -0.480241

loop_
_geom_bond_atom_site_label_1
_geom_bond_atom_site_label_2
_ccdc_geom_bond_type
C25   C30   A    
C23   C24   S    
C6    C38   A    
C25   Cl1   S    
C29   C30   A    
C4    H13   S    
C12   O3    A    
C16   H4    S    
C31   C32   A    
C26   H8    S    
C21   Br2   S    
C14   H2    S    
Cu1   N2    S    
C8    H16   S    
C22   C24   A    
C17   C18   A    
C3    C4    A    
C23   O5    A    
C15   H3    S    
C7    C8    A    
C31   H7    S    
C21   C22   A    
C3    H12   S    
Cu1   O5    S    
C11   C13   A    
C3    C37   A    
C26   C27   A    
C37   C38   A    
C34   H1    S    
C18   C24   A    
Cu1   O1    S    
C30   N1    A    
C31   N1    A    
C5    C10   A    
C28   C29   A    
C33   C35   S    
C17   H5    S    
C33   O7    A    
C18   C19   A    
C6    C7    A    
C9    H17   S    
Cu2   O6    S    
C5    C6    A    
C10   H14   S    
Cu1   O7    S    
Cu2   O4    S    
Cu2   N1    S    
C10   C11   A    
C29   N2    A    
C15   C16   A    
Cu1   Cu2   S    
C16   C17   A    
C27   H9    S    
C7    C13   A    
C2    C34   A    
C36   H11   S    
C20   C21   A    
C33   O8    A    
C36   C37   A    
C34   C35   A    
C1    O1    A    
C27   C28   A    
C12   O4    A    
Cu1   O3    S    
C2    C38   A    
C14   C15   A    
C4    C5    A    
C1    C20   S    
C32   N2    A    
C22   H6    S    
C25   C26   A    
C2    C9    A    
C28   H10   S    
C14   C19   A    
Cu2   O8    S    
C32   Br1   S    
Cu2   O2    S    
C19   C20   A    
C11   C12   S    
C23   O6    A    
C8    C9    A    
C13   H15   S    
C35   C36   A    
C1    O2    A    
