data_mof_unit_1936.cif
_audit_creation_date              2012-12-11T14:57:55-0500
_audit_creation_method            fapswitch 2.2
_symmetry_space_group_name_H-M    P1
_symmetry_Int_Tables_number       1
_space_group_crystal_system       triclinic
_cell_length_a                    6.969699
_cell_length_b                    16.475887
_cell_length_c                    17.491467
_cell_angle_alpha                 100.360233
_cell_angle_beta                  90.206062
_cell_angle_gamma                 90.850849
_cell_volume                      1975.57488346

loop_
_atom_site_label
_atom_site_type_symbol
_atom_type_description
_atom_site_fract_x
_atom_site_fract_y
_atom_site_fract_z
_atom_type_partial_charge
O1    O     O_R   0.506180 0.438940 0.579430 -0.540898
O2    O     O_R   0.170520 0.406230 0.413590 -0.531071
O3    O     O_R   0.005180 0.561060 0.420570 -0.527889
C1    C     C_R   0.339919 0.382218 0.386283 0.787930
O4    O     O_R   0.176140 0.429310 0.578370 -0.543407
O5    O     O_R   0.010830 0.584300 0.586530 -0.543594
C2    C     C_R   0.344572 0.410770 0.602638 0.687758
O6    O     O_R   0.500520 0.415700 0.413470 -0.531143
O7    O     O_3   0.340830 0.550820 0.502480 -0.369781
V1    V     V_3+5 0.064040 0.490570 0.499540 1.435540
O8    O     O_R   0.681400 0.593770 0.586410 -0.539185
C3    C     C_R   0.852672 0.619124 0.612703 0.688254
O9    O     O_R   0.675790 0.570690 0.421630 -0.540991
C4    C     C_R   0.844189 0.584710 0.393963 0.729273
V2    V     V_3+5 0.564650 0.509430 0.500460 1.430678
O10   O     O_3   0.837730 0.449180 0.497520 -0.370661
C5    C     C_R   0.913447 0.863932 0.167759 -0.145930
C6    C     C_R   0.854335 0.633031 0.329414 -0.048285
C7    C     C_R   0.900127 0.641173 0.193263 -0.202564
C8    C     C_R   0.882913 0.593569 0.252265 0.145444
C9    C     C_R   0.841195 0.719409 0.345249 -0.248865
C10   C     C_R   0.874411 0.768894 0.287497 0.019237
C11   C     C_R   0.897041 0.728749 0.209271 0.078352
C12   C     C_R   0.917115 0.776524 0.149129 0.041250
C13   C     C_R   0.908189 0.903996 0.246575 0.158301
C14   C     C_R   0.891302 0.856924 0.307353 0.102381
H1    H     H_    0.921684 0.607988 0.135031 0.131710
H2    H     H_    0.805294 0.747568 0.403580 0.129661
H3    H     H_    0.584022 0.645366 0.950923 0.111073
C15   C     C_R   0.018114 0.914353 0.734734 -0.158478
C16   C     C_R   0.075625 0.933228 0.664430 -0.201257
C17   C     C_R   0.074544 0.872678 0.598880 -0.089471
C18   C     C_R   0.008120 0.792754 0.601062 0.195728
C19   C     C_R   0.944435 0.770397 0.672835 0.029009
C20   C     C_R   0.955277 0.833849 0.741059 0.051617
C21   C     C_R   0.869477 0.689784 0.680015 -0.168845
C22   C     C_R   0.807113 0.676097 0.754099 0.047460
C23   C     C_R   0.802825 0.742407 0.818388 0.076054
C24   C     C_R   0.893452 0.818471 0.814051 -0.162945
C25   C     C_R   0.754766 0.596147 0.766982 -0.174461
C26   C     C_R   0.688014 0.584199 0.839723 0.206248
C27   C     C_R   0.648877 0.652578 0.896474 -0.135959
C28   C     C_R   0.708267 0.730375 0.886671 -0.199635
H4    H     H_    0.021002 0.964545 0.784013 0.115551
H5    H     H_    0.122357 0.995380 0.660814 0.147609
H6    H     H_    0.126003 0.888353 0.545107 0.125819
H7    H     H_    0.772398 0.542366 0.722096 0.097075
H8    H     H_    0.681560 0.780201 0.934228 0.128709
C29   C     C_R   0.451756 0.220732 0.403157 -0.134875
C30   C     C_R   0.500483 0.143902 0.416396 -0.182056
C31   C     C_R   0.482670 0.075584 0.358656 -0.114596
C32   C     C_R   0.437599 0.083102 0.281935 0.108810
C33   C     C_R   0.416929 0.165166 0.263931 0.025761
C34   C     C_R   0.405653 0.233481 0.327942 0.043036
C35   C     C_R   0.403362 0.182254 0.186526 -0.159646
C36   C     C_R   0.351394 0.263234 0.176380 0.041359
C37   C     C_R   0.347331 0.330851 0.240112 0.054417
C38   C     C_R   0.357991 0.314297 0.316924 -0.164639
C39   C     C_R   0.297081 0.277976 0.102710 -0.213186
C40   C     C_R   0.280904 0.357504 0.088062 -0.171111
C41   C     C_R   0.322288 0.425699 0.146265 0.171115
C42   C     C_R   0.340320 0.413142 0.223816 0.144021
H9    H     H_    0.458451 0.270585 0.452613 0.086785
H10   H     H_    0.552088 0.137120 0.472230 0.118872
H11   H     H_    0.510841 0.016741 0.375022 0.130554
H12   H     H_    0.266501 0.227846 0.055206 0.129486
H13   H     H_    0.242316 0.364578 0.029844 0.163723
C43   C     C_R   0.419787 0.134238 0.830956 -0.174277
C44   C     C_R   0.350650 0.359224 0.665095 -0.110765
C45   C     C_R   0.293774 0.343163 0.799342 0.203889
C46   C     C_R   0.284402 0.391121 0.740304 0.130612
C47   C     C_R   0.410042 0.276224 0.648928 -0.259095
C48   C     C_R   0.415361 0.226075 0.707869 -0.032789
C49   C     C_R   0.375265 0.263911 0.785111 0.059350
C50   C     C_R   0.413335 0.220920 0.846675 0.085268
C51   C     C_R   0.454107 0.093932 0.754201 0.151895
C52   C     C_R   0.461439 0.139954 0.692220 0.151117
H14   H     H_    0.448578 0.251504 0.589684 0.113462
O11   O     O_R   0.265840 0.084300 0.086750 -0.544996
O12   O     O_R   0.589750 0.070740 0.921690 -0.539132
O13   O     O_R   0.755020 0.915730 0.913400 -0.542214
C53   C     C_R   0.422352 0.086341 0.895641 0.715338
O14   O     O_R   0.595830 0.093740 0.086480 -0.535368
O15   O     O_R   0.761150 0.938890 0.079360 -0.547519
C54   C     C_R   0.425912 0.116270 0.115494 0.674003
O16   O     O_R   0.259710 0.061140 0.920790 -0.540451
O17   O     O_3   0.425260 0.949200 0.997610 -0.370422
V3    V     V_3+5 0.702060 0.009430 0.000450 1.392269
O18   O     O_R   0.090530 0.929220 0.078150 -0.541062
C55   C     C_R   0.922075 0.914229 0.104785 0.702992
O19   O     O_R   0.084440 0.906220 0.913360 -0.534837
C56   C     C_R   0.913312 0.883730 0.885166 0.691012
V4    V     V_3+5 0.201450 0.990520 0.999290 1.393906
O20   O     O_3   0.928380 0.050800 0.002390 -0.366596
C57   C     C_3   0.951173 0.735330 0.065242 -0.334316
C58   C     C_3   0.162526 0.715430 0.052264 -0.752994
H15   H     H_    0.248835 0.773239 0.056024 0.233002
H16   H     H_    0.215815 0.681511 0.097110 0.232519
H17   H     H_    0.181549 0.677486 0.993624 0.221562
H18   H     H_    0.859133 0.679608 0.048253 0.167118
H19   H     H_    0.910797 0.775376 0.023829 0.163400
N1    N     N_3   0.005451 0.738234 0.528026 -0.713118
H20   H     H_    0.868083 0.712902 0.517417 0.204671
H21   H     H_    0.111707 0.694309 0.527265 0.264948
C59   C     C_3   0.668840 0.499494 0.859481 -0.357477
C60   C     C_3   0.800792 0.492059 0.927897 -0.795043
H22   H     H_    0.950639 0.508055 0.914564 0.248388
H23   H     H_    0.756729 0.533986 0.981637 0.221954
H24   H     H_    0.793960 0.428597 0.939943 0.228962
H25   H     H_    0.518638 0.489253 0.875528 0.191639
H26   H     H_    0.705783 0.451069 0.809018 0.182316
C61   C     C_3   0.354524 0.511690 0.127776 -0.363382
C62   C     C_3   0.350457 0.516944 0.041727 -0.834233
H27   H     H_    0.445867 0.470199 0.008726 0.241120
H28   H     H_    0.201149 0.508640 0.019152 0.238562
H29   H     H_    0.405911 0.578043 0.033766 0.223470
H30   H     H_    0.246875 0.554380 0.158316 0.197062
H31   H     H_    0.498851 0.534350 0.149854 0.185327
C63   C     C_3   0.410437 0.003699 0.222241 -0.356326
C64   C     C_3   0.393420 0.922037 0.252434 -0.766065
H32   H     H_    0.530485 0.906022 0.277296 0.218230
H33   H     H_    0.281210 0.925056 0.297231 0.249051
H34   H     H_    0.354750 0.871432 0.203551 0.230247
H35   H     H_    0.275509 0.008375 0.190956 0.212133
H36   H     H_    0.531323 0.997363 0.181266 0.197224
N2    N     N_3   0.919069 0.992638 0.265589 -0.658925
H37   H     H_    0.780991 0.013534 0.277378 0.241045
H38   H     H_    0.967218 0.020518 0.220184 0.215564
N3    N     N_3   0.358465 0.483880 0.285141 -0.661964
H39   H     H_    0.237092 0.520099 0.285933 0.265157
H40   H     H_    0.477320 0.519881 0.276022 0.209717
C65   C     C_3   0.521778 0.265296 0.917894 -0.340119
C66   C     C_3   0.737923 0.259876 0.903693 -0.743536
H41   H     H_    0.784527 0.194804 0.890450 0.242911
H42   H     H_    0.775576 0.289949 0.853745 0.221781
H43   H     H_    0.816980 0.290927 0.956365 0.216779
H44   H     H_    0.486135 0.331309 0.932891 0.205577
H45   H     H_    0.489805 0.236875 0.968875 0.167985
N4    N     N_3   0.496641 0.007616 0.741078 -0.664403
H46   H     H_    0.624560 0.999705 0.770078 0.234907
H47   H     H_    0.387686 0.975691 0.764482 0.229932
N5    N     N_3   0.194485 0.369511 0.870725 -0.708917
H48   H     H_    0.239928 0.429198 0.894403 0.239485
H49   H     H_    0.049402 0.371753 0.856837 0.251562
C67   C     C_3   0.513181 0.101714 0.609091 -0.350520
C68   C     C_3   0.574326 0.011679 0.588784 -0.692567
H50   H     H_    0.704609 0.001056 0.622080 0.253202
H51   H     H_    0.455207 0.969133 0.597826 0.249512
H52   H     H_    0.610945 0.997476 0.526161 0.190879
H53   H     H_    0.386060 0.108082 0.572228 0.169557
H54   H     H_    0.636425 0.138571 0.592955 0.169208
N6    N     N_3   0.205863 0.472324 0.758210 -0.686713
H55   H     H_    0.307862 0.514794 0.744981 0.226113
H56   H     H_    0.084683 0.474307 0.723352 0.240143
C69   C     C_3   0.893513 0.896153 0.394285 -0.342928
C70   C     C_3   0.962199 0.985652 0.420905 -0.710962
H57   H     H_    0.102503 0.997438 0.395122 0.253610
H58   H     H_    0.853822 0.029923 0.408335 0.240076
H59   H     H_    0.981594 0.997649 0.485012 0.192193
H60   H     H_    0.747806 0.889586 0.418229 0.166502
H61   H     H_    0.993749 0.859653 0.423384 0.195965
N7    N     N_3   0.898870 0.505136 0.233975 -0.693301
H62   H     H_    0.913814 0.485214 0.174116 0.234253
H63   H     H_    0.772191 0.478100 0.249527 0.225460

loop_
_geom_bond_atom_site_label_1
_geom_bond_atom_site_label_2
_ccdc_geom_bond_type
C25   H7    S    
C35   C36   A    
V4    O20   S    
C29   H9    S    
H3    C27   S    
C6    C9    A    
C30   H10   S    
C26   C27   A    
C4    C6    S    
O2    C1    A    
C57   C58   S    
C1    O6    A    
C67   C68   S    
C37   C42   A    
C63   H35   S    
C69   H61   S    
C43   C50   A    
N2    H37   S    
C26   C59   S    
C15   C20   A    
C21   C22   A    
C59   H25   S    
O11   V4    S    
C22   C25   A    
C39   H12   S    
O5    C3    A    
C61   H30   S    
C60   H22   S    
C65   H45   S    
C29   C34   A    
C58   H17   S    
C36   C37   A    
C6    C8    A    
C19   C20   A    
C31   H11   S    
C44   C46   A    
C50   C65   S    
C47   H14   S    
C62   H27   S    
O13   C56   A    
O8    V2    S    
C7    C8    A    
C40   H13   S    
C65   C66   S    
C58   H16   S    
C45   C49   A    
C66   H43   S    
C11   C12   A    
C45   C46   A    
O1    V2    S    
C3    C21   S    
C7    H1    S    
C28   H8    S    
C68   H51   S    
C67   H53   S    
C64   H34   S    
C62   H29   S    
O14   V3    S    
C59   H26   S    
C39   C40   A    
O9    C4    A    
O18   V4    S    
C42   N3    S    
C15   H4    S    
C14   C69   S    
C41   C42   A    
O15   C55   A    
O7    V1    S    
C61   C62   S    
C64   H33   S    
C30   C31   A    
N7    H63   S    
C33   C35   A    
C48   C49   A    
C23   C24   A    
V3    O20   S    
C45   N5    S    
C5    C12   A    
N5    H48   S    
C49   C50   A    
C68   H50   S    
C18   N1    S    
C51   C52   A    
O12   C53   A    
C12   C57   S    
O19   C56   A    
O4    C2    A    
C57   H18   S    
C65   H44   S    
C53   O16   A    
C31   C32   A    
C40   C41   A    
C35   C54   S    
C44   C47   A    
C20   C24   A    
C13   N2    S    
C2    C44   S    
C22   C23   A    
O16   V4    S    
O19   V4    S    
C68   H52   S    
C16   C17   A    
N4    H46   S    
C8    N7    S    
C58   H15   S    
C18   C19   A    
C32   C33   A    
N1    H21   S    
C67   H54   S    
O3    C4    A    
C63   H36   S    
C25   C26   A    
O14   C54   A    
C9    H2    S    
N6    H56   S    
O6    V2    S    
O9    V2    S    
C10   C14   A    
C66   H41   S    
N5    H49   S    
C43   C51   A    
C27   C28   A    
O2    V1    S    
C52   C67   S    
C24   C56   S    
O11   C54   A    
C64   H32   S    
C7    C11   A    
N3    H39   S    
C34   C38   A    
C51   N4    S    
C70   H57   S    
N2    H38   S    
C69   H60   S    
O1    C2    A    
C17   H6    S    
C70   H59   S    
C5    C55   S    
O15   V3    S    
C47   C48   A    
O5    V1    S    
C63   C64   S    
C33   C34   A    
N7    H62   S    
C59   C60   S    
C36   C39   A    
C43   C53   S    
C17   C18   A    
C70   H58   S    
C13   C14   A    
C5    C13   A    
O4    V1    S    
O12   V3    S    
O3    V1    S    
V1    O10   S    
C61   H31   S    
N4    H47   S    
C37   C38   A    
C15   C16   A    
C60   H23   S    
O17   V4    S    
C19   C21   A    
O7    V2    S    
N1    H20   S    
O13   V3    S    
C32   C63   S    
C57   H19   S    
C23   C28   A    
N6    H55   S    
O17   V3    S    
C29   C30   A    
C16   H5    S    
C1    C38   S    
C69   C70   S    
C66   H42   S    
C46   N6    S    
C48   C52   A    
C10   C11   A    
N3    H40   S    
O18   C55   A    
C9    C10   A    
C41   C61   S    
V2    O10   S    
O8    C3    A    
C62   H28   S    
C60   H24   S    
