data_mof_unit_600.cif
_audit_creation_date              2012-12-11T15:50:39-0500
_audit_creation_method            fapswitch 2.2
_symmetry_space_group_name_H-M    P1
_symmetry_Int_Tables_number       1
_space_group_crystal_system       triclinic
_cell_length_a                    6.916083
_cell_length_b                    14.49591
_cell_length_c                    16.215031
_cell_angle_alpha                 89.999955
_cell_angle_beta                  89.999874
_cell_angle_gamma                 90.0
_cell_volume                      1625.63658252

loop_
_atom_site_label
_atom_site_type_symbol
_atom_type_description
_atom_site_fract_x
_atom_site_fract_y
_atom_site_fract_z
_atom_type_partial_charge
O1    O     O_R   0.638140 0.833910 0.163320 -0.530474
O2    O     O_R   0.361860 0.166090 0.836680 -0.530474
O3    O     O_R   0.361860 0.166090 0.663320 -0.530473
O4    O     O_R   0.638140 0.833910 0.336680 -0.530472
O5    O     O_R   0.138140 0.666090 0.336680 -0.530473
O6    O     O_R   0.861860 0.333910 0.663320 -0.530473
O7    O     O_R   0.861860 0.333910 0.836680 -0.530473
O8    O     O_R   0.138140 0.666090 0.163320 -0.530473
O9    O     O_R   0.308390 0.844930 0.336080 -0.522060
O10   O     O_R   0.691610 0.155070 0.663920 -0.522059
O11   O     O_R   0.691610 0.155070 0.836080 -0.522060
O12   O     O_R   0.308390 0.844930 0.163920 -0.522060
O13   O     O_R   0.808390 0.655070 0.163920 -0.522060
O14   O     O_R   0.191610 0.344930 0.836080 -0.522060
O15   O     O_R   0.191610 0.344930 0.663920 -0.522060
O16   O     O_R   0.808390 0.655070 0.336080 -0.522060
C1    C     C_R   0.477258 0.867803 0.364513 0.847025
C2    C     C_R   0.522742 0.132197 0.635487 0.847026
C3    C     C_R   0.522742 0.132197 0.864513 0.847027
C4    C     C_R   0.477258 0.867803 0.135487 0.847027
C5    C     C_R   0.977258 0.632197 0.135487 0.847026
C6    C     C_R   0.022742 0.367803 0.864513 0.847026
C7    C     C_R   0.022742 0.367803 0.635487 0.847027
C8    C     C_R   0.977258 0.632197 0.364513 0.847027
O17   O     O_3   0.471620 0.691320 0.250000 -0.363454
O18   O     O_3   0.528380 0.308680 0.750000 -0.363454
O19   O     O_3   0.971620 0.808680 0.250000 -0.363454
O20   O     O_3   0.028380 0.191320 0.750000 -0.363454
V1    V     V_3+5 0.196770 0.760880 0.250000 1.710171
V2    V     V_3+5 0.803230 0.239120 0.750000 1.710171
V3    V     V_3+5 0.696770 0.739120 0.250000 1.710171
V4    V     V_3+5 0.303230 0.260880 0.750000 1.710171
C9    C     C_R   0.856185 0.489395 0.439007 0.249399
C10   C     C_R   0.143815 0.510605 0.560993 0.249399
C11   C     C_R   0.143816 0.510605 0.939007 0.249399
C12   C     C_R   0.856184 0.489395 0.060993 0.249399
C13   C     C_R   0.356187 0.010606 0.060994 0.249398
C14   C     C_R   0.643813 0.989394 0.939006 0.249398
C15   C     C_R   0.643818 0.989396 0.560992 0.249399
C16   C     C_R   0.356182 0.010604 0.439008 0.249401
C17   C     C_R   0.867376 0.426020 0.505508 0.304595
C18   C     C_R   0.132624 0.573980 0.494492 0.304594
C19   C     C_R   0.132625 0.573980 0.005508 0.304593
C20   C     C_R   0.867375 0.426020 0.994492 0.304593
C21   C     C_R   0.367378 0.073981 0.994493 0.304592
C22   C     C_R   0.632622 0.926019 0.005507 0.304592
C23   C     C_R   0.632626 0.926021 0.494491 0.304595
C24   C     C_R   0.367373 0.073979 0.505509 0.304595
C25   C     C_R   0.012335 0.435950 0.566301 -0.234075
C26   C     C_R   0.987664 0.564050 0.433699 -0.234076
C27   C     C_R   0.987665 0.564050 0.066301 -0.234074
C28   C     C_R   0.012335 0.435950 0.933698 -0.234074
C29   C     C_R   0.512335 0.064050 0.933698 -0.234074
C30   C     C_R   0.487665 0.935950 0.066301 -0.234074
C31   C     C_R   0.487664 0.935949 0.433699 -0.234076
C32   C     C_R   0.512335 0.064050 0.566301 -0.234076
Cl1   Cl    Cl    0.687810 0.469684 0.358526 -0.528160
Cl2   Cl    Cl    0.312190 0.530316 0.641474 -0.528161
Cl3   Cl    Cl    0.312192 0.530315 0.858526 -0.528160
Cl4   Cl    Cl    0.687808 0.469685 0.141474 -0.528160
Cl5   Cl    Cl    0.187815 0.030317 0.141477 -0.528160
Cl6   Cl    Cl    0.812185 0.969682 0.858523 -0.528161
Cl7   Cl    Cl    0.812198 0.969687 0.641472 -0.528163
Cl8   Cl    Cl    0.187804 0.030314 0.358528 -0.528158
O21   O     O_3   0.743715 0.351193 0.511363 -0.614562
H1    H     H_    0.626136 0.362000 0.478158 0.354953
O22   O     O_3   0.256285 0.648807 0.488637 -0.614563
H2    H     H_    0.373864 0.638000 0.521842 0.354953
O23   O     O_3   0.256287 0.648807 0.011363 -0.614562
H3    H     H_    0.373866 0.637999 0.978158 0.354953
O24   O     O_3   0.743713 0.351193 0.988637 -0.614562
H4    H     H_    0.626134 0.362001 0.021842 0.354953
O25   O     O_3   0.243719 0.148809 0.988638 -0.614564
H5    H     H_    0.126142 0.138003 0.021846 0.354953
O26   O     O_3   0.756281 0.851191 0.011361 -0.614564
H6    H     H_    0.873858 0.861997 0.978154 0.354953
O27   O     O_3   0.756290 0.851194 0.488635 -0.614562
H7    H     H_    0.873870 0.862003 0.521839 0.354953
O28   O     O_3   0.243708 0.148804 0.511365 -0.614559
H8    H     H_    0.126124 0.137993 0.478164 0.354951

loop_
_geom_bond_atom_site_label_1
_geom_bond_atom_site_label_2
_ccdc_geom_bond_type
O17   V3    S    
O18   V4    S    
O12   V1    S    
O19   V1    S    
O25   H5    S    
C10   C18   A    
C19   C27   A    
O15   V4    S    
O27   H7    S    
O16   V3    S    
O5    C8    A    
O11   C3    A    
C20   O24   S    
O8    V1    S    
C24   O28   S    
C11   Cl3   S    
C7    C25   S    
O1    V3    S    
O3    C2    A    
C21   O25   S    
C16   C24   A    
O11   V2    S    
C10   C25   A    
C11   C19   A    
C1    C31   S    
C2    C32   S    
C20   C28   A    
O15   C7    A    
C21   C29   A    
C19   O23   S    
O7    V2    S    
O17   V1    S    
O12   C4    A    
O3    V4    S    
C17   C25   A    
C22   O26   S    
O5    V1    S    
C8    C26   S    
O19   V3    S    
O22   H2    S    
O20   V4    S    
C4    C30   S    
C17   O21   S    
C9    C26   A    
C15   C23   A    
O26   H6    S    
O10   V2    S    
C15   C32   A    
C16   C31   A    
C22   C30   A    
O8    C5    A    
O13   C5    A    
O2    V4    S    
C12   C27   A    
C18   C26   A    
C13   C30   A    
O9    C1    A    
O6    V2    S    
O18   V2    S    
C18   O22   S    
C12   C20   A    
O4    C1    A    
C13   C21   A    
C5    C27   S    
C23   C31   A    
C24   C32   A    
O1    C4    A    
C9    Cl1   S    
O2    C3    A    
O13   V3    S    
O14   V4    S    
C12   Cl4   S    
C13   Cl5   S    
O9    V1    S    
O7    C6    A    
C15   Cl7   S    
C16   Cl8   S    
C9    C17   A    
O14   C6    A    
O20   V2    S    
O24   H4    S    
C3    C29   S    
C14   C29   A    
O10   C2    A    
O6    C7    A    
C6    C28   S    
O23   H3    S    
C14   C22   A    
O4    V3    S    
O28   H8    S    
O16   C8    A    
O21   H1    S    
C11   C28   A    
C10   Cl2   S    
C23   O27   S    
C14   Cl6   S    
