data_mof_unit_2780.cif
_audit_creation_date              2013-03-05T15:43:53-0500
_audit_creation_method            fapswitch 2.2
_symmetry_space_group_name_H-M    P1
_symmetry_Int_Tables_number       1
_space_group_crystal_system       triclinic
_cell_length_a                    8.464797
_cell_length_b                    15.562271
_cell_length_c                    18.749319
_cell_angle_alpha                 101.504141
_cell_angle_beta                  90.908127
_cell_angle_gamma                 100.088603
_cell_volume                      2379.53060791

loop_
_atom_site_label
_atom_site_type_symbol
_atom_site_description
_atom_site_fract_x
_atom_site_fract_y
_atom_site_fract_z
_atom_type_partial_charge
P1    P     P_3+3 0.038110 0.412300 0.335300 0.481136
O1    O     O_2   0.871030 0.438240 0.324420 -0.345738
O2    O     O_3   0.120590 0.445310 0.413740 -0.424961
O3    O     O_3   0.663040 0.605930 0.370050 -0.351126
O4    O     O_2   0.736664 0.528773 0.240453 -0.345212
O5    O     O_3   0.971563 0.297668 0.311745 -0.591378
O6    O     O_3   0.717448 0.697174 0.256352 -0.550118
C1    C     C_3   0.694472 0.851264 0.275132 -0.628304
P2    P     P_3+3 0.679950 0.711710 0.558590 0.562572
P3    P     P_3+3 0.150475 0.767680 0.408730 0.459583
O7    O     O_2   0.855660 0.723510 0.537160 -0.329976
O8    O     O_3   0.086340 0.654970 0.406630 -0.384525
O9    O     O_2   0.033440 0.812146 0.458537 -0.367609
O10   O     O_3   0.664691 0.780319 0.647700 -0.567618
O11   O     O_3   0.104909 0.790881 0.323132 -0.479484
C2    C     C_3   0.188331 0.744223 0.267725 0.358149
C3    C     C_3   0.069075 0.676684 0.212296 -0.661154
H1    H     H_    0.987960 0.634216 0.242024 0.242661
C4    C     C_3   0.253261 0.725578 0.608972 0.547235
H2    H     H_    0.359068 0.697316 0.589619 0.052741
H3    H     H_    0.153210 0.700224 0.566906 0.126051
C5    C     C_3   0.287939 0.826994 0.619102 -0.849777
H4    H     H_    0.268332 0.859895 0.675570 0.296327
H5    H     H_    0.207509 0.849185 0.582149 0.236682
Ba1   Ba    Ba6+2 0.854120 0.540280 0.465540 1.606829
C6    C     C_3   0.060184 0.251862 0.349081 0.321811
H6    H     H_    0.189843 0.279103 0.351632 0.136283
C7    C     C_3   0.029357 0.154007 0.308784 -0.704647
C8    C     C_3   0.725122 0.771862 0.717395 0.072924
C9    C     C_3   0.731148 0.865513 0.775505 -0.712342
P4    P     P_3+3 0.151600 0.587780 0.664700 0.509088
O12   O     O_2   0.318670 0.561790 0.675630 -0.334696
O13   O     O_3   0.069120 0.554770 0.586270 -0.434159
O14   O     O_3   0.526680 0.394150 0.629950 -0.347277
O15   O     O_3   0.212819 0.702809 0.676018 -0.515082
P5    P     P_3+3 0.045066 0.228922 0.587243 0.507084
O16   O     O_3   0.607620 0.388570 0.462320 -0.396172
O17   O     O_3   0.103380 0.345110 0.593380 -0.371339
O18   O     O_2   0.171300 0.183226 0.543115 -0.283904
O19   O     O_3   0.069881 0.204301 0.673372 -0.526197
Ba2   Ba    Ba6+2 0.335710 0.459790 0.534460 1.628470
P6    P     P_3+3 0.630496 0.595125 0.276686 0.492161
C10   C     C_3   0.667382 0.766152 0.306078 0.335998
H7    H     H_    0.588045 0.883659 0.283623 0.194463
O20   O     O_3   0.582100 0.611510 0.537680 -0.362304
C11   C     C_3   0.565120 0.280169 0.300431 0.271558
H8    H     H_    0.686818 0.303477 0.326730 0.141608
C12   C     C_3   0.584237 0.224145 0.223241 -0.694407
H9    H     H_    0.548333 0.152162 0.223879 0.278054
H10   H     H_    0.713361 0.233844 0.211716 0.160888
P7    P     P_3+3 0.510465 0.272696 0.436627 0.468591
O21   O     O_2   0.334040 0.276520 0.462890 -0.364152
O22   O     O_3   0.472975 0.227421 0.342362 -0.576588
H11   H     H_    0.139395 0.634020 0.177826 0.122518
C13   C     C_3   0.068124 0.281003 0.727284 0.465968
H12   H     H_    0.977279 0.320144 0.714790 0.021850
C14   C     C_3   0.031622 0.253536 0.799508 -1.001962
H13   H     H_    0.905822 0.217454 0.797591 0.267151
H14   H     H_    0.114305 0.209445 0.811232 0.304131
P8    P     P_3+3 0.545555 0.401864 0.723646 0.481733
C15   C     C_3   0.592059 0.241355 0.700071 0.257114
O23   O     O_2   0.411553 0.452191 0.755046 -0.388419
O24   O     O_3   0.482784 0.292348 0.734383 -0.504289
H15   H     H_    0.658341 0.113156 0.697594 0.188659
C16   C     C_3   0.562436 0.149585 0.719464 -0.668373
H16   H     H_    0.568952 0.157240 0.779727 0.236240
C17   C     C_R   0.019495 0.431053 0.039946 0.044169
C18   C     C_R   0.933582 0.376047 0.082803 0.110659
C19   C     C_R   0.797535 0.315530 0.051400 -0.096155
C20   C     C_R   0.730380 0.320865 0.984410 -0.177109
C21   C     C_R   0.804051 0.383744 0.944469 0.031039
C22   C     C_R   0.956242 0.433720 0.969769 0.042948
C23   C     C_R   0.725988 0.401014 0.882757 -0.173383
C24   C     C_R   0.815901 0.450205 0.834679 -0.062860
C25   C     C_R   0.977345 0.493295 0.857138 0.033152
C26   C     C_R   0.041627 0.489175 0.926957 -0.032764
C27   C     C_R   0.754988 0.456214 0.764387 0.101904
C28   C     C_R   0.861067 0.497888 0.718251 -0.360709
C29   C     C_R   0.020702 0.540510 0.738371 0.142601
C30   C     C_R   0.074303 0.542989 0.811576 0.023420
C31   C     C_R   0.166930 0.484099 0.067771 -0.025478
C32   C     C_R   0.221383 0.488019 0.140711 -0.011504
C33   C     C_R   0.119832 0.444610 0.188100 -0.023251
C34   C     C_R   0.981589 0.384090 0.156563 -0.098601
H17   H     H_    0.741509 0.264877 0.079287 0.140043
H18   H     H_    0.621304 0.274480 0.964445 0.193722
H19   H     H_    0.906992 0.345875 0.189509 0.158135
C35   C     C_R   0.221201 0.594967 0.841412 -0.168543
C36   C     C_R   0.280522 0.594689 0.911616 0.151296
C37   C     C_R   0.192981 0.539644 0.953891 0.061075
C38   C     C_R   0.255777 0.536852 0.023926 0.020733
C39   C     C_R   0.428472 0.647574 0.939742 -0.133154
C40   C     C_R   0.491708 0.643757 0.008185 -0.074083
C41   C     C_R   0.406112 0.588514 0.050669 0.126004
C42   C     C_R   0.371997 0.540994 0.167405 -0.028436
C43   C     C_R   0.465933 0.587084 0.120495 -0.147612
C44   C     C_R   0.417499 0.553121 0.241884 0.228077
C45   C     C_R   0.301492 0.526730 0.290111 -0.432611
C46   C     C_R   0.158145 0.466174 0.265092 0.334273
H20   H     H_    0.495878 0.691254 0.908368 0.164156
H21   H     H_    0.606730 0.684950 0.028265 0.149344
H22   H     H_    0.580390 0.628294 0.139481 0.207609
H23   H     H_    0.328253 0.548604 0.347974 0.135739
C47   C     C_R   0.761484 0.226578 0.508462 -0.381387
C48   C     C_R   0.840069 0.178060 0.546624 0.223921
C49   C     C_R   0.762447 0.092555 0.553300 -0.245481
C50   C     C_R   0.625582 0.045739 0.507101 0.109932
C51   C     C_R   0.547812 0.100748 0.468991 -0.160352
C52   C     C_R   0.606609 0.194111 0.478808 0.231658
C53   C     C_R   0.409704 0.903483 0.470783 -0.247617
C54   C     C_R   0.357703 0.811451 0.448193 0.199304
C55   C     C_R   0.602453 0.785480 0.502132 0.246888
C56   C     C_R   0.667398 0.880148 0.512903 -0.223117
C57   C     C_R   0.569389 0.942266 0.496748 0.066664
C58   C     C_R   0.454307 0.752836 0.463748 -0.522350
H24   H     H_    0.318871 0.943593 0.471312 0.188585
H25   H     H_    0.814141 0.063881 0.593578 0.163856
H26   H     H_    0.405798 0.682152 0.453381 0.153422
H27   H     H_    0.824977 0.288270 0.498083 0.157349
H28   H     H_    0.735071 0.776747 0.359400 0.118013
H29   H     H_    0.412903 0.850080 0.606572 0.249773
H30   H     H_    0.019603 0.256473 0.405558 0.090780
C59   C     C_2   0.851169 0.118086 0.291164 1.120105
O25   O     O_2   0.757467 0.135994 0.338060 -0.606116
O26   O     O_R   0.788915 0.063248 0.224410 -0.774130
H31   H     H_    0.871568 0.042257 0.190095 0.310659
H32   H     H_    0.070442 0.116254 0.346611 0.157960
C60   C     C_2   0.126052 0.141310 0.242186 1.120119
O27   O     O_2   0.110443 0.182352 0.194021 -0.590407
O28   O     O_R   0.227923 0.078957 0.234505 -0.726135
H33   H     H_    0.273737 0.068494 0.184647 0.349321
C61   C     C_2   0.890269 0.751236 0.715832 1.052061
O29   O     O_2   0.975839 0.773885 0.669345 -0.586941
O30   O     O_R   0.954988 0.725014 0.775464 -0.764786
H34   H     H_    0.075841 0.742289 0.782313 0.357784
C62   C     C_2   0.608487 0.702068 0.742916 1.018095
O31   O     O_2   0.472625 0.715214 0.752025 -0.631073
O32   O     O_R   0.656173 0.629521 0.764447 -0.771026
H35   H     H_    0.573336 0.599542 0.794131 0.346581
C63   C     C_2   0.833889 0.917914 0.312832 1.164530
O33   O     O_2   0.962422 0.928308 0.284220 -0.557156
O34   O     O_R   0.811829 0.971932 0.379180 -0.785534
H36   H     H_    0.910486 0.018132 0.398457 0.339409
C64   C     C_2   0.874788 0.937517 0.766576 1.137322
O35   O     O_2   0.011505 0.928584 0.781487 -0.645499
O36   O     O_R   0.851399 0.016930 0.747197 -0.779357
H37   H     H_    0.955004 0.060266 0.746338 0.341070
C65   C     C_2   0.748018 0.858826 0.856186 1.042998
O37   O     O_2   0.747970 0.925464 0.903743 -0.587090
O38   O     O_R   0.766637 0.779703 0.877047 -0.764373
H38   H     H_    0.779090 0.786446 0.931867 0.330191
C66   C     C_2   0.576313 0.901332 0.766353 1.190634
O39   O     O_2   0.557701 0.937558 0.715545 -0.636100
O40   O     O_R   0.455533 0.893779 0.816192 -0.755699
H39   H     H_    0.360593 0.921158 0.804487 0.360634
H40   H     H_    0.537336 0.749722 0.315199 0.005539
C67   C     C_2   0.485663 0.357445 0.299866 0.971293
O41   O     O_2   0.354959 0.346624 0.268190 -0.683700
O42   O     O_R   0.547833 0.437222 0.346340 -0.703939
H41   H     H_    0.463430 0.459038 0.379113 0.314106
C68   C     C_2   0.495770 0.244474 0.159523 1.113762
O43   O     O_2   0.406954 0.184475 0.117824 -0.595792
O44   O     O_R   0.521147 0.331127 0.146250 -0.793538
H42   H     H_    0.454961 0.336186 0.102218 0.330267
H43   H     H_    0.709178 0.835717 0.215404 0.232833
H44   H     H_    0.187656 0.324215 0.732981 0.177452
H45   H     H_    0.047763 0.313443 0.844009 0.225909
H46   H     H_    0.716952 0.272697 0.719328 0.037453
H47   H     H_    0.579699 0.234115 0.639967 0.111229
C69   C     C_2   0.403028 0.095953 0.688575 1.274549
O45   O     O_2   0.372819 0.077989 0.622741 -0.647086
O46   O     O_R   0.291276 0.064469 0.735389 -0.764662
H48   H     H_    0.193478 0.024712 0.707448 0.319881
H49   H     H_    0.269233 0.705461 0.289550 -0.048351
C70   C     C_2   0.809583 0.489810 0.643745 1.138711
O47   O     O_2   0.751329 0.548346 0.624732 -0.585202
O48   O     O_R   0.835700 0.415481 0.594386 -0.823040
H50   H     H_    0.831458 0.424818 0.543216 0.352077
C71   C     C_2   0.549244 0.391245 0.884272 1.096988
O49   O     O_2   0.489693 0.458209 0.896191 -0.652748
O50   O     O_R   0.451576 0.307435 0.877141 -0.786410
H51   H     H_    0.334614 0.311643 0.884146 0.328096
H52   H     H_    0.287624 0.638005 0.810817 0.199702
C72   C     C_2   0.292216 0.807499 0.229286 0.971899
O51   O     O_2   0.377411 0.778413 0.181647 -0.700547
O52   O     O_R   0.286887 0.898314 0.245576 -0.655021
H53   H     H_    0.360597 0.932767 0.214792 0.364307
C73   C     C_2   0.835842 0.913044 0.540706 1.127250
O53   O     O_2   0.930438 0.954318 0.505690 -0.608177
O54   O     O_R   0.885716 0.903252 0.608997 -0.738772
H54   H     H_    0.002133 0.931758 0.622182 0.319550
C74   C     C_2   0.427971 0.061173 0.408974 1.127286
O55   O     O_2   0.469911 0.021622 0.351565 -0.569559
O56   O     O_R   0.266483 0.064588 0.419026 -0.768334
H55   H     H_    0.195538 0.019280 0.380039 0.353459
C75   C     C_2   0.974149 0.712335 0.159550 1.199464
O57   O     O_2   0.885651 0.659221 0.112466 -0.666999
O58   O     O_R   0.989203 0.803663 0.161943 -0.739624
H56   H     H_    0.920941 0.817276 0.122129 0.315679

loop_
_geom_bond_atom_site_label_1
_geom_bond_atom_site_label_2
_geom_bond_distance
_ccdc_geom_bond_type
P1    Ba1   3.409193 S    
O4    P6    1.549210 D    
C25   C26   1.427210 A    
P2    O20   1.601456 S    
C40   C41   1.404210 A    
C43   H22   1.075649 S    
C23   C24   1.439008 A    
C42   C43   1.412191 A    
C1    C10   1.532307 S    
C22   C26   1.409843 A    
C60   O27   1.223432 D    
P1    C46   1.911091 S    
C44   C45   1.409101 A    
C14   H13   1.109864 S    
C7    C59   1.520465 S    
P2    Ba1   3.455092 S    
C59   O25   1.217249 D    
C70   O48   1.382910 S    
O5    C6    1.389485 S    
O50   H51   1.012512 S    
C51   C52   1.424672 A    
C6    H6    1.101733 S    
O54   H54   1.012126 S    
C69   O46   1.393125 S    
P8    O24   1.746577 S    
P8    O23   1.547615 D    
C4    H3    1.110234 S    
C17   C31   1.399216 A    
C63   O34   1.390776 S    
C17   C22   1.423682 A    
C53   H24   1.070893 S    
P3    O11   1.764988 S    
C47   C52   1.384153 A    
O16   P7    1.811502 S    
C59   O26   1.402845 S    
C8    C61   1.487574 S    
C49   C50   1.429707 A    
O7    Ba1   2.897131 S    
C45   H23   1.077999 S    
C9    C64   1.538170 S    
C72   O51   1.223223 D    
C73   O54   1.387123 S    
P1    O1    1.558377 D    
O6    P6    1.746454 S    
C15   O24   1.404145 S    
C53   C54   1.398450 A    
C55   C56   1.451727 A    
Ba1   O16   2.853908 S    
C18   C19   1.391823 A    
C67   O41   1.216210 D    
C33   C34   1.405652 A    
C61   O29   1.209000 D    
C24   C27   1.433895 A    
O12   Ba2   2.821826 S    
P4    O13   1.566596 S    
C20   C21   1.414407 A    
O6    C10   1.404937 S    
C25   C30   1.436955 A    
C53   C57   1.415804 A    
Ba2   O21   2.897241 S    
C7    H32   1.095052 S    
C10   H28   1.112639 S    
C47   H27   1.070291 S    
C58   H26   1.081824 S    
P2    C55   1.896155 S    
C12   H10   1.107627 S    
O56   H55   1.012071 S    
C7    C60   1.502930 S    
C67   O42   1.379354 S    
C33   C46   1.433686 A    
O14   P8    1.739631 S    
O14   Ba2   2.842237 S    
P4    C29   1.960885 S    
C47   C48   1.378731 A    
C68   O44   1.400230 S    
O3    Ba1   2.842909 S    
P5    O18   1.546478 D    
C11   C12   1.560265 S    
P8    C27   1.901524 S    
C24   C25   1.429212 A    
O36   H37   1.010824 S    
C17   C18   1.407881 A    
C18   C34   1.410209 A    
P5    O19   1.750131 S    
C4    C5    1.526280 S    
C63   O33   1.220317 D    
O17   Ba2   2.810468 S    
C64   O36   1.400392 S    
O32   H35   1.010164 S    
P6    C44   1.866410 S    
Ba1   Ba2   4.703701 S    
C21   C23   1.417633 A    
C28   C29   1.406502 A    
C2    C3    1.537252 S    
C35   H52   1.060799 S    
C12   C68   1.514436 S    
C27   C28   1.421099 A    
C56   C73   1.476856 S    
C32   C33   1.429999 A    
C31   C32   1.422439 A    
P7    O21   1.587143 D    
C73   O53   1.220446 D    
P1    O2    1.566759 S    
C74   O56   1.391606 S    
P2    O10   1.814310 S    
C50   C57   1.568740 S    
C8    C9    1.628662 S    
C9    C66   1.531312 S    
O42   H41   1.009445 S    
O2    Ba1   2.979969 S    
C50   C51   1.450283 A    
O19   C13   1.404357 S    
C13   H12   1.110204 S    
C42   C44   1.409385 A    
C3    H1    1.104084 S    
P3    C54   1.851398 S    
C65   O37   1.225486 D    
C36   C39   1.403100 A    
C41   C43   1.401939 A    
P2    O7    1.536247 D    
O40   H39   1.013535 S    
O58   H56   1.014047 S    
P3    O8    1.735238 S    
C61   O30   1.399139 S    
C75   O58   1.396136 S    
C12   H9    1.110664 S    
C66   O40   1.401529 S    
O48   H50   0.999599 S    
C13   C14   1.519782 S    
C49   H25   1.073904 S    
C28   C70   1.431299 S    
C5    H5    1.107104 S    
C15   H47   1.111328 S    
O10   C8    1.434421 S    
C40   H21   1.083561 S    
C10   H40   1.109599 S    
C20   H18   1.077706 S    
Ba1   O20   2.958896 S    
C19   H17   1.077484 S    
O46   H48   1.009999 S    
C39   H20   1.080697 S    
C5    H29   1.100727 S    
C26   C37   1.407863 A    
C56   C57   1.450632 A    
C2    H49   1.111112 S    
C11   H8    1.103432 S    
O2    Ba2   2.830521 S    
C32   C42   1.415107 A    
P4    Ba2   3.409854 S    
P5    C48   1.858521 S    
O38   H38   1.014020 S    
P4    O12   1.558801 D    
C51   C74   1.463944 S    
C1    H7    1.105771 S    
C23   C71   1.478384 S    
C65   O38   1.397197 S    
C75   O57   1.222601 D    
P3    O9    1.531044 D    
C60   O28   1.395442 S    
C54   C58   1.394894 A    
C2    C72   1.504063 S    
C9    C65   1.542953 S    
O30   H34   1.010447 S    
C14   H45   1.107018 S    
C34   H19   1.077635 S    
C71   O49   1.218503 D    
C48   C49   1.407393 A    
O8    Ba1   2.809907 S    
C6    C7    1.534143 S    
C1    C63   1.490134 S    
C16   C69   1.496878 S    
C64   O35   1.224091 D    
C15   H46   1.105863 S    
O13   Ba2   2.980963 S    
C74   O55   1.219782 D    
C4    H2    1.100875 S    
P5    O17   1.768841 S    
O28   H33   1.011767 S    
O52   H53   1.013681 S    
C21   C22   1.404273 A    
C30   C35   1.399471 A    
C70   O47   1.217119 D    
C68   O43   1.221703 D    
H15   C16   1.108001 S    
C38   C41   1.406316 A    
C11   C67   1.478822 S    
C37   C38   1.420363 A    
O26   H31   1.010276 S    
O3    P6    1.737677 S    
C11   O22   1.397432 S    
C39   C40   1.398781 A    
C72   O52   1.394020 S    
O1    Ba1   2.821109 S    
P4    O15   1.743005 S    
C16   H16   1.111732 S    
O16   Ba2   2.958037 S    
C19   C20   1.393954 A    
O44   H42   1.014085 S    
C14   H14   1.110198 S    
C1    H43   1.111319 S    
C29   C30   1.429754 A    
C31   C38   1.409916 A    
C15   C16   1.522903 S    
C8    C62   1.493329 S    
C35   C36   1.402449 A    
P7    C52   1.870167 S    
C45   C46   1.409070 A    
C69   O45   1.222489 D    
C62   O32   1.391688 S    
P1    O5    1.737981 S    
O34   H36   1.010638 S    
Ba2   O20   2.853470 S    
C5    H4    1.108947 S    
C62   O31   1.211749 D    
C3    C75   1.510420 S    
C4    O15   1.404194 S    
C66   O39   1.220934 D    
C6    H30   1.110975 S    
C13   H44   1.103147 S    
P7    O22   1.768631 S    
C36   C37   1.406491 A    
C3    H11   1.091943 S    
C55   C58   1.396768 A    
O11   C2    1.416710 S    
Ba1   O13   2.830010 S    
C71   O50   1.397021 S    
