data_mof_unit_2230.cif
_audit_creation_date              2012-12-11T16:20:16-0500
_audit_creation_method            fapswitch 2.2
_symmetry_space_group_name_H-M    P1
_symmetry_Int_Tables_number       1
_space_group_crystal_system       triclinic
_cell_length_a                    6.914976
_cell_length_b                    34.301821
_cell_length_c                    38.394885
_cell_angle_alpha                 99.572115
_cell_angle_beta                  89.740645
_cell_angle_gamma                 90.285061
_cell_volume                      8980.15141641

loop_
_atom_site_label
_atom_site_type_symbol
_atom_type_description
_atom_site_fract_x
_atom_site_fract_y
_atom_site_fract_z
_atom_type_partial_charge
O1    O     O_R   0.494320 0.461440 0.460990 -0.532647
O2    O     O_R   0.821450 0.462560 0.532500 -0.521872
O3    O     O_R   0.994330 0.538560 0.539010 -0.534768
C1    C     C_R   0.652688 0.454642 0.544451 0.741402
O4    O     O_R   0.823870 0.456770 0.460860 -0.524925
O5    O     O_R   0.996760 0.532730 0.466860 -0.532389
C2    C     C_R   0.655115 0.446495 0.447710 0.818573
O6    O     O_R   0.491880 0.467270 0.533140 -0.541384
O7    O     O_3   0.661650 0.524930 0.502050 -0.375556
V1    V     V_3+5 0.935500 0.495380 0.499620 1.553511
O8    O     O_R   0.326630 0.537440 0.467500 -0.525942
C3    C     C_R   0.158724 0.545343 0.455478 0.773690
O9    O     O_R   0.324210 0.543230 0.539140 -0.550169
C4    C     C_R   0.155374 0.553691 0.552213 0.744356
V2    V     V_3+5 0.435810 0.504620 0.500380 1.517772
O10   O     O_3   0.159790 0.475070 0.497950 -0.362024
C5    C     C_R   0.210632 0.821579 0.804008 0.657516
N1    N     N_R   0.052209 0.822578 0.825884 -0.565480
C6    C     C_R   0.907730 0.794858 0.818923 0.613416
C7    C     C_R   0.918379 0.764845 0.789131 -0.003591
C8    C     C_R   0.079906 0.763323 0.766394 -0.096211
C9    C     C_R   0.229128 0.791790 0.773745 -0.080066
C10   C     C_R   0.770981 0.736317 0.781639 -0.128276
C11   C     C_R   0.783521 0.706560 0.752113 -0.148118
C12   C     C_R   0.943536 0.704598 0.729215 -0.021875
C13   C     C_R   0.091517 0.733195 0.736261 -0.020519
C14   C     C_R   0.250566 0.731671 0.713171 -0.070371
C15   C     C_R   0.398913 0.759861 0.720591 -0.241884
C16   C     C_R   0.390975 0.789719 0.750642 0.400759
C17   C     C_R   0.959665 0.674529 0.699473 0.605136
N2    N     N_R   0.115034 0.673526 0.676927 -0.570160
C18   C     C_R   0.257734 0.701845 0.683052 0.600191
O11   O     O_2   0.348206 0.849729 0.811288 -0.465100
O12   O     O_2   0.754498 0.796066 0.840960 -0.515142
H1    H     H_    0.644830 0.736916 0.798544 0.167547
H2    H     H_    0.666811 0.685193 0.747234 0.170852
O13   O     O_2   0.821773 0.646296 0.693393 -0.487341
O14   O     O_2   0.406189 0.701249 0.660043 -0.508811
H3    H     H_    0.522936 0.758618 0.703103 0.169685
C19   C     C_R   0.980291 0.639510 0.620404 -0.086246
H4    H     H_    0.859265 0.659721 0.623913 0.174263
C20   C     C_R   0.988351 0.610488 0.590134 -0.197763
H5    H     H_    0.872377 0.608650 0.571053 0.141571
C21   C     C_R   0.146446 0.584704 0.584157 -0.129017
C22   C     C_R   0.294085 0.587918 0.609513 -0.156244
H6    H     H_    0.415215 0.567706 0.605700 0.160557
C23   C     C_R   0.283552 0.615648 0.640784 0.429164
C24   C     C_R   0.126566 0.642676 0.646092 0.242372
C25   C     C_R   0.177672 0.858207 0.882872 -0.072870
H7    H     H_    0.298305 0.837946 0.881021 0.163196
C26   C     C_R   0.164387 0.888727 0.911907 -0.209969
H8    H     H_    0.275162 0.891099 0.932021 0.157321
C27   C     C_R   0.009053 0.915501 0.915379 -0.156882
C28   C     C_R   0.867073 0.911407 0.888202 0.320346
C29   C     C_R   0.880929 0.880202 0.859570 -0.055164
H9    H     H_    0.772869 0.877392 0.838947 0.192343
C30   C     C_R   0.036183 0.853617 0.856418 0.262296
C31   C     C_R   0.890658 0.852814 0.174050 0.615188
O15   O     O_2   0.751578 0.880576 0.176337 -0.502519
N3    N     N_R   0.023199 0.849275 0.147004 -0.533209
C32   C     C_R   0.164511 0.820929 0.144087 0.680362
C33   C     C_R   0.858764 0.875944 0.099141 -0.169332
C34   C     C_R   0.853380 0.901101 0.074051 -0.277129
C35   C     C_R   0.162941 0.929658 0.094926 0.223011
C36   C     C_R   0.171483 0.902839 0.119554 0.317881
C37   C     C_R   0.017182 0.876367 0.121833 0.315622
C38   C     C_R   0.048446 0.799725 0.197808 -0.043943
C39   C     C_R   0.900776 0.828139 0.199911 -0.030659
C40   C     C_R   0.766480 0.831093 0.227677 -0.102078
C41   C     C_R   0.180528 0.795880 0.169535 -0.097979
C42   C     C_R   0.005395 0.927764 0.071229 -0.116755
H10   H     H_    0.645374 0.851205 0.229046 0.179955
C43   C     C_R   0.150131 0.571848 0.428387 -0.114403
C44   C     C_R   0.976523 0.760597 0.282495 -0.013251
C45   C     C_R   0.184858 0.715422 0.242705 0.023551
C46   C     C_R   0.083556 0.724936 0.275053 0.049082
C47   C     C_R   0.911915 0.773176 0.317785 0.236722
C48   C     C_R   0.931292 0.748296 0.342896 -0.120042
C49   C     C_R   0.014811 0.710772 0.334228 -0.064213
C50   C     C_R   0.089858 0.698692 0.300072 -0.086403
C51   C     C_R   0.171631 0.660597 0.291000 -0.115691
C52   C     C_R   0.167485 0.635051 0.316581 0.662138
N4    N     N_R   0.106054 0.648371 0.350601 -0.556205
C53   C     C_R   0.032614 0.685813 0.359649 0.598251
C54   C     C_R   0.963221 0.617250 0.399091 -0.034410
C55   C     C_R   0.979486 0.593028 0.424881 -0.191932
C56   C     C_R   0.306567 0.575999 0.405287 0.238051
C57   C     C_R   0.293203 0.602293 0.381085 -0.100336
C58   C     C_R   0.120927 0.622743 0.377159 0.295131
O16   O     O_2   0.979235 0.699283 0.393330 -0.520247
C59   C     C_R   0.942995 0.781990 0.254318 0.083439
C60   C     C_R   0.064043 0.775190 0.224033 0.063772
C61   C     C_R   0.200054 0.743979 0.219834 0.000992
C62   C     C_R   0.786498 0.808176 0.254258 -0.082560
H11   H     H_    0.856895 0.590669 0.442051 0.168322
H12   H     H_    0.826849 0.631766 0.396299 0.155263
H13   H     H_    0.882574 0.758873 0.369639 0.204533
H14   H     H_    0.672848 0.809892 0.273802 0.172331
O17   O     O_2   0.289154 0.816891 0.116589 -0.515357
C63   C     C_R   0.330448 0.768323 0.168090 -0.128397
H15   H     H_    0.729931 0.899501 0.056599 0.174690
H16   H     H_    0.740156 0.855534 0.100606 0.183408
H17   H     H_    0.441941 0.767025 0.148019 0.196523
C64   C     C_R   0.256231 0.676844 0.233285 -0.123984
C65   C     C_R   0.250771 0.649617 0.256584 0.315336
O18   O     O_2   0.220877 0.597013 0.307554 -0.448293
C66   C     C_R   0.344025 0.743106 0.193084 0.236709
H18   H     H_    0.308453 0.666636 0.206818 0.203082
H19   H     H_    0.416904 0.606007 0.364537 0.171325
C67   C     C_R   0.567636 0.311390 0.637718 0.582471
O19   O     O_2   0.554892 0.296391 0.603012 -0.514002
N5    N     N_R   0.594719 0.351240 0.648246 -0.552623
C68   C     C_R   0.610485 0.366855 0.683413 0.594805
C69   C     C_R   0.777719 0.399961 0.620297 -0.103589
C70   C     C_R   0.793961 0.425712 0.595674 0.226304
C71   C     C_R   0.475354 0.404824 0.573296 -0.193514
C72   C     C_R   0.459330 0.379763 0.598438 -0.051413
C73   C     C_R   0.610734 0.376980 0.622069 0.308995
C74   C     C_R   0.576022 0.301186 0.698991 -0.045341
C75   C     C_R   0.555739 0.285802 0.662847 -0.038673
C76   C     C_R   0.526794 0.245188 0.652481 -0.117148
C77   C     C_R   0.603952 0.342143 0.709271 -0.043361
C78   C     C_R   0.642244 0.428082 0.571372 -0.113734
H20   H     H_    0.356574 0.405923 0.555198 0.169780
H21   H     H_    0.328385 0.362574 0.599604 0.148667
H22   H     H_    0.512748 0.232443 0.624831 0.177756
C79   C     C_R   0.511981 0.073121 0.929652 -0.052092
C80   C     C_R   0.518672 0.209412 0.740011 0.034198
C81   C     C_R   0.600633 0.265737 0.786539 0.034125
C82   C     C_R   0.556857 0.224960 0.776010 0.066998
C83   C     C_R   0.465873 0.169026 0.731333 -0.169844
C84   C     C_R   0.457482 0.144586 0.756837 -0.120003
C85   C     C_R   0.501280 0.159254 0.792086 -0.037647
C86   C     C_R   0.551201 0.199425 0.801795 -0.044439
C87   C     C_R   0.595367 0.214000 0.837363 -0.037212
C88   C     C_R   0.589100 0.188287 0.862414 0.579419
N6    N     N_R   0.539019 0.149361 0.852444 -0.561215
C89   C     C_R   0.495324 0.134589 0.817996 0.580709
C90   C     C_R   0.351270 0.109833 0.888923 -0.079340
C91   C     C_R   0.342017 0.084892 0.914247 -0.183893
C92   C     C_R   0.691265 0.087125 0.919151 -0.190977
C93   C     C_R   0.700032 0.112271 0.893946 -0.077814
C94   C     C_R   0.530160 0.123686 0.878606 0.379081
O20   O     O_2   0.447525 0.096079 0.808760 -0.512077
C95   C     C_R   0.533369 0.234588 0.714043 0.033564
C96   C     C_R   0.568848 0.275672 0.724790 0.068152
C97   C     C_R   0.597666 0.291548 0.761020 0.034193
C98   C     C_R   0.515495 0.220104 0.677439 -0.169962
H23   H     H_    0.201620 0.074629 0.921553 0.126778
H24   H     H_    0.219083 0.118484 0.877322 0.118377
H25   H     H_    0.416225 0.113925 0.748689 0.175751
H26   H     H_    0.426196 0.155335 0.705038 0.128928
H27   H     H_    0.496729 0.189220 0.666943 0.129718
O21   O     O_2   0.631321 0.406257 0.693439 -0.502730
C99   C     C_R   0.624062 0.357644 0.745104 -0.116608
H28   H     H_    0.894996 0.398166 0.638561 0.163434
H29   H     H_    0.643040 0.389118 0.753836 0.177320
C100  C     C_R   0.647752 0.279179 0.822400 -0.170220
C101  C     C_R   0.645031 0.253829 0.847181 -0.120363
O22   O     O_2   0.630834 0.202204 0.896528 -0.513631
C102  C     C_R   0.621271 0.332986 0.770446 -0.170298
H30   H     H_    0.691498 0.309136 0.832230 0.128741
H31   H     H_    0.824889 0.078719 0.930428 0.128542
H32   H     H_    0.682183 0.265739 0.874258 0.175780
H33   H     H_    0.839110 0.122724 0.886169 0.117506
H34   H     H_    0.634404 0.347618 0.797400 0.128835
C103  C     C_R   0.402410 0.176189 0.201761 0.617037
N7    N     N_R   0.546229 0.173495 0.176701 -0.549269
C104  C     C_R   0.703590 0.198371 0.181331 0.608074
C105  C     C_R   0.719937 0.227339 0.211824 -0.013697
C106  C     C_R   0.571722 0.230837 0.237445 -0.010710
C107  C     C_R   0.413254 0.204691 0.232730 -0.120007
C108  C     C_R   0.882037 0.252437 0.217525 -0.136015
C109  C     C_R   0.896288 0.280655 0.248152 -0.116292
C110  C     C_R   0.747759 0.284777 0.273644 -0.012766
C111  C     C_R   0.585210 0.259766 0.268319 -0.047959
C112  C     C_R   0.445190 0.261507 0.295254 -0.149642
C113  C     C_R   0.283663 0.235295 0.290106 0.392646
C114  C     C_R   0.270699 0.207270 0.259177 -0.124734
C115  C     C_R   0.759033 0.313141 0.304681 0.664343
N8    N     N_R   0.605472 0.319207 0.328138 -0.525970
C116  C     C_R   0.480145 0.287641 0.327228 0.679655
O23   O     O_2   0.250472 0.151062 0.196991 -0.514833
O24   O     O_2   0.843303 0.195348 0.156389 -0.510448
H35   H     H_    0.999274 0.250155 0.198498 0.170800
H36   H     H_    0.023777 0.299350 0.251684 0.175074
O25   O     O_2   0.928091 0.332247 0.312143 -0.483896
O26   O     O_2   0.413451 0.277622 0.357504 -0.463082
H37   H     H_    0.146108 0.187738 0.255824 0.191626
C117  C     C_R   0.457898 0.359747 0.384183 0.343290
C118  C     C_R   0.491115 0.387595 0.414537 -0.258814
H38   H     H_    0.388541 0.389759 0.436209 0.179224
C119  C     C_R   0.641837 0.415113 0.416134 -0.216072
C120  C     C_R   0.749418 0.416791 0.385165 0.242814
C121  C     C_R   0.711624 0.389187 0.354224 0.313652
C122  C     C_R   0.593843 0.355158 0.355685 0.149360
C123  C     C_R   0.381712 0.145087 0.121103 -0.064339
H39   H     H_    0.275147 0.168406 0.126243 0.176000
C124  C     C_R   0.370635 0.117519 0.089756 0.324261
C125  C     C_R   0.509922 0.086688 0.082885 -0.165299
C126  C     C_R   0.661176 0.085978 0.107211 -0.204305
H40   H     H_    0.769740 0.063003 0.102806 0.157404
C127  C     C_R   0.672627 0.114256 0.137879 -0.066742
H41   H     H_    0.789984 0.112872 0.156209 0.165239
C128  C     C_R   0.532736 0.143942 0.145172 0.273119
O27   O     O_R   0.662230 0.032770 0.966890 -0.546420
O28   O     O_R   0.330090 0.043230 0.039150 -0.529850
O29   O     O_R   0.157350 0.967260 0.033130 -0.505466
C129  C     C_R   0.499009 0.054514 0.051662 0.730215
O30   O     O_R   0.332650 0.037450 0.967510 -0.548696
O31   O     O_R   0.159930 0.961430 0.960980 -0.535309
C130  C     C_R   0.501887 0.046085 0.956138 0.695698
O32   O     O_R   0.659640 0.038600 0.039040 -0.534354
O33   O     O_3   0.492510 0.975090 0.997960 -0.358755
V3    V     V_3+5 0.218600 0.004620 0.000380 1.486704
O34   O     O_R   0.830050 0.956730 0.960830 -0.538973
C131  C     C_R   0.998741 0.946796 0.947324 0.687773
O35   O     O_R   0.827490 0.962520 0.032470 -0.546830
C132  C     C_R   0.995938 0.954342 0.044235 0.773861
V4    V     V_3+5 0.718310 0.995320 0.999580 1.466080
O36   O     O_3   0.994270 0.024900 0.002040 -0.372655
O37   O     O_3   0.716542 0.937584 0.887792 -0.624921
H42   H     H_    0.754993 0.963616 0.901175 0.290328
O38   O     O_3   0.301164 0.958799 0.094412 -0.641342
H43   H     H_    0.357423 0.965931 0.118300 0.301310
O39   O     O_3   0.327429 0.901729 0.141694 -0.608410
H44   H     H_    0.445076 0.909764 0.129851 0.320000
Br1   Br    Br    0.838852 0.826660 0.336757 -0.465794
Br2   Br    Br    0.534825 0.543931 0.402404 -0.462289
Br3   Br    Br    0.363354 0.598979 0.238580 -0.304353
Br4   Br    Br    0.587062 0.715853 0.193343 -0.538170
Br5   Br    Br    0.021114 0.458659 0.598887 -0.534784
O40   O     O_3   0.540253 0.816808 0.757688 -0.598390
H45   H     H_    0.642720 0.810629 0.739478 0.294114
O41   O     O_3   0.131498 0.236933 0.313647 -0.603276
H46   H     H_    0.117492 0.264542 0.325836 0.356096
Br6   Br    Br    0.189725 0.344496 0.379203 -0.415778
Br7   Br    Br    0.931502 0.459289 0.383491 -0.344921
Br8   Br    Br    0.755375 0.406921 0.309493 -0.283987
O42   O     O_3   0.225338 0.122591 0.066449 -0.623184
H47   H     H_    0.270053 0.112228 0.042173 0.291666
O43   O     O_3   0.426891 0.614668 0.665515 -0.593531
H48   H     H_    0.385485 0.630182 0.688366 0.318293

loop_
_geom_bond_atom_site_label_1
_geom_bond_atom_site_label_2
_ccdc_geom_bond_type
C32   C41   A    
O31   V3    S    
C29   H9    S    
C117  C118  A    
C9    C16   A    
C66   Br4   S    
C99   H29   S    
C104  C105  A    
C123  C128  A    
C6    C7    A    
C53   O16   S    
C64   H18   S    
C68   O21   S    
C1    O6    A    
O38   H43   S    
C69   C70   A    
C103  C107  A    
C42   C132  S    
C87   C88   A    
O33   V4    S    
C82   C86   A    
C27   C28   A    
C99   C102  A    
C74   C96   A    
C127  C128  A    
C108  H35   S    
C13   C14   A    
C11   H2    S    
C44   C46   A    
N4    C53   A    
C56   C57   A    
C121  Br8   S    
C15   C16   A    
C71   C78   A    
C96   C97   A    
O4    V1    S    
C54   C55   A    
C113  O41   S    
C50   C51   A    
C54   H12   S    
C80   C95   A    
C28   O37   S    
C105  C106  A    
C62   H14   S    
C31   N3    A    
C112  C116  A    
N8    C116  A    
C25   C30   A    
C71   C72   A    
C35   O38   S    
N1    C6    A    
C77   C99   A    
C35   C42   A    
C123  C124  A    
N8    C122  S    
C109  C110  A    
C64   C65   A    
C8    C9    A    
C67   O19   S    
O8    V2    S    
C43   C56   A    
C68   C77   A    
C110  C111  A    
C52   O18   S    
C125  C126  A    
C25   C26   A    
C44   C47   A    
C79   C91   A    
C36   O39   S    
O41   H46   S    
C100  C101  A    
C111  C112  A    
C91   H23   S    
O1    V2    S    
C18   O14   S    
C2    C119  S    
O7    V1    S    
C102  H34   S    
N7    C128  S    
C34   H15   S    
O29   C132  A    
C19   C20   A    
C120  C121  A    
N6    C94   S    
N3    C37   S    
C85   C89   A    
C108  C109  A    
C3    C43   S    
C124  O42   S    
C126  C127  A    
C83   H26   S    
C32   O17   S    
C117  Br6   S    
C20   C21   A    
O31   C131  A    
V3    O36   S    
C69   H28   S    
C81   C100  A    
O32   V4    S    
C41   C63   A    
C51   C52   A    
C22   C23   A    
C27   C131  S    
N4    C58   S    
C51   C65   A    
C87   C101  A    
O39   H44   S    
C33   C37   A    
C38   C39   A    
O34   V4    S    
C81   C97   A    
C70   C78   A    
C11   C12   A    
C125  C129  S    
C40   C62   A    
C97   C102  A    
C67   C75   A    
C103  N7    A    
O4    C2    A    
C54   C58   A    
O33   V3    S    
C84   C85   A    
C121  C122  A    
C15   H3    S    
O27   V4    S    
C12   C13   A    
C47   C48   A    
C63   H17   S    
C129  O32   A    
C26   H8    S    
C17   O13   S    
N3    C32   A    
C26   C27   A    
C44   C59   A    
C40   H10   S    
O2    C1    A    
C45   C46   A    
C118  C119  A    
C104  O24   S    
C33   C34   A    
C115  O25   S    
N5    C73   S    
C85   C86   A    
N1    C30   S    
O35   V4    S    
C23   C24   A    
C114  H37   S    
C7    C10   A    
C101  H32   S    
O8    C3    A    
O34   C131  A    
C7    C8    A    
C48   H13   S    
O28   V3    S    
C5    N1    A    
C76   C98   A    
C90   C94   A    
C5    O11   S    
C116  O26   S    
C120  Br7   S    
C74   C75   A    
C106  C107  A    
C16   O40   S    
C70   Br5   S    
C86   C87   A    
O3    C4    A    
C112  C113  A    
C79   C92   A    
C57   H19   S    
C107  C114  A    
C31   C39   A    
N7    C104  A    
C34   C42   A    
C119  C120  A    
O6    V2    S    
O30   C130  A    
N2    C24   S    
O9    V2    S    
C45   C64   A    
C25   H7    S    
C22   H6    S    
C20   H5    S    
C83   C84   A    
O2    V1    S    
C80   C83   A    
C95   C96   A    
C59   C60   A    
C95   C98   A    
C38   C60   A    
C75   C76   A    
C45   C61   A    
C4    C21   S    
C81   C82   A    
N6    C89   A    
C74   C77   A    
C12   C17   A    
C19   C24   A    
C28   C29   A    
C19   H4    S    
C63   C66   A    
C103  O23   S    
C71   H20   S    
O42   H47   S    
O43   H48   S    
C14   C18   A    
O1    C2    A    
C39   C40   A    
N2    C18   A    
C21   C22   A    
C46   C50   A    
C88   N6    A    
C6    O12   S    
C80   C82   A    
O5    V1    S    
C23   O43   S    
C90   C91   A    
C92   H31   S    
C110  C115  A    
C117  C122  A    
O29   V3    S    
C106  C111  A    
C90   H24   S    
C10   H1    S    
C5    C9    A    
C126  H40   S    
C38   C41   A    
C65   Br3   S    
C29   C30   A    
C31   O15   S    
C76   H22   S    
O3    V1    S    
C56   Br2   S    
C72   C73   A    
C35   C36   A    
C93   H33   S    
O5    C3    A    
C48   C49   A    
C17   N2    A    
O35   C132  A    
C49   C53   A    
C89   O20   S    
V2    O10   S    
C8    C13   A    
C60   C61   A    
C69   C73   A    
V4    O36   S    
N5    C68   A    
C36   C37   A    
O7    V2    S    
C123  H39   S    
C118  H38   S    
C67   N5    A    
C43   C55   A    
C92   C93   A    
C55   H11   S    
C100  H30   S    
C10   C11   A    
C49   C50   A    
C88   O22   S    
O27   C130  A    
C79   C130  S    
C124  C125  A    
C57   C58   A    
C1    C78   S    
C47   Br1   S    
C52   N4    A    
C98   H27   S    
C14   C15   A    
O28   C129  A    
C84   H25   S    
C109  H36   S    
C93   C94   A    
V1    O10   S    
C127  H41   S    
C33   H16   S    
O9    C4    A    
C72   H21   S    
O37   H42   S    
C61   C66   A    
C115  N8    A    
O30   V3    S    
O40   H45   S    
C113  C114  A    
C59   C62   A    
C105  C108  A    
