data_mof_unit_1219.cif
_audit_creation_date              2012-12-10T17:03:44-0500
_audit_creation_method            fapswitch 2.2
_symmetry_space_group_name_H-M    P1
_symmetry_Int_Tables_number       1
_space_group_crystal_system       triclinic
_cell_length_a                    10.015482
_cell_length_b                    10.748136
_cell_length_c                    13.154971
_cell_angle_alpha                 89.896409
_cell_angle_beta                  70.974852
_cell_angle_gamma                 89.964167
_cell_volume                      1338.7472018

loop_
_atom_site_label
_atom_site_type_symbol
_atom_type_description
_atom_site_fract_x
_atom_site_fract_y
_atom_site_fract_z
_atom_type_partial_charge
C1    C     C_R   0.499131 0.737366 0.502293 0.944322
C2    C     C_R   0.375392 0.466174 0.819305 -0.117690
C3    C     C_2   0.611318 0.066959 0.502914 -0.159395
C4    C     C_R   0.422903 0.489085 0.703281 0.860932
C5    C     C_2   0.505855 0.131277 0.486939 -0.341172
C6    C     C_2   0.614054 0.933105 0.496582 -0.159341
C7    C     C_2   0.495010 0.868919 0.512006 -0.336893
C8    C     C_2   0.053899 0.418232 0.549167 -0.148550
C9    C     C_2   0.907562 0.412338 0.541209 -0.123911
C10   C     C_R   0.501156 0.262666 0.497515 0.911349
C11   C     C_R   0.576905 0.490464 0.296712 0.898272
C12   C     C_R   0.434324 0.436692 0.983443 0.097026
C13   C     C_R   0.793194 0.420877 0.008878 -0.204163
C14   C     C_R   0.619053 0.457126 0.183134 -0.172645
C15   C     C_R   0.238089 0.502048 0.880388 -0.197845
C16   C     C_R   0.199311 0.508070 0.991407 -0.191183
C17   C     C_R   0.297610 0.481279 0.042325 -0.134543
C18   C     C_3   0.392823 0.247094 0.220917 0.130623
C19   C     C_3   0.251761 0.199022 0.294882 -0.815485
C20   C     C_R   0.470583 0.422539 0.871147 0.082678
C21   C     C_R   0.541530 0.419284 0.030665 -0.043216
C22   C     C_R   0.683867 0.404392 0.965091 0.116713
C23   C     C_R   0.712898 0.371316 0.857933 -0.223495
C24   C     C_R   0.604385 0.371434 0.813705 -0.195911
C25   C     C_R   0.512766 0.419861 0.141403 0.386221
C26   C     C_R   0.760532 0.455530 0.116622 -0.274298
H1    H     H_    0.844807 0.476735 0.148523 0.175901
H2    H     H_    0.902798 0.412758 0.958941 0.150961
H3    H     H_    0.163117 0.532901 0.842068 0.160109
H4    H     H_    0.266045 0.503334 0.126731 0.192597
H5    H     H_    0.095456 0.541802 0.037688 0.142815
H6    H     H_    0.628633 0.336076 0.732964 0.166780
H7    H     H_    0.698377 0.112589 0.520103 0.165589
H8    H     H_    0.475494 0.223714 0.257661 0.129867
H9    H     H_    0.417014 0.198974 0.141982 0.135014
H10   H     H_    0.167227 0.219602 0.259749 0.252371
H11   H     H_    0.257687 0.096853 0.305351 0.194957
H12   H     H_    0.422459 0.088750 0.463191 0.148780
H13   H     H_    0.225201 0.244270 0.374793 0.272745
H14   H     H_    0.715644 0.887338 0.480387 0.170214
H15   H     H_    0.391423 0.911717 0.534765 0.149115
H16   H     H_    0.082308 0.348620 0.598324 0.152315
H17   H     H_    0.125077 0.558860 0.446289 0.172156
H18   H     H_    0.843679 0.331821 0.575807 0.143821
H19   H     H_    0.909436 0.578676 0.472837 0.160322
H20   H     H_    0.818901 0.346006 0.808421 0.139311
N1    N     N_2   0.148270 0.498670 0.498870 -0.180643
N2    N     N_2   0.852610 0.498640 0.498840 -0.187718
O1    O     O_R   0.386950 0.680940 0.500020 -0.618727
O2    O     O_R   0.613110 0.680900 0.499980 -0.611410
O3    O     O_R   0.330780 0.500000 0.653640 -0.613026
O4    O     O_R   0.556930 0.499960 0.653610 -0.606560
O5    O     O_R   0.386890 0.319100 0.500020 -0.621675
O6    O     O_R   0.613050 0.319060 0.499980 -0.624483
O7    O     O_R   0.443070 0.500040 0.346390 -0.552953
O8    O     O_R   0.669220 0.500000 0.346360 -0.620033
O9    O     O_3   0.383636 0.376980 0.208635 -0.614626
Zn1   Zn    Zn3+2 0.349000 0.500030 0.500020 0.954076
Zn2   Zn    Zn3+2 0.651000 0.499970 0.499980 0.933641

loop_
_geom_bond_atom_site_label_1
_geom_bond_atom_site_label_2
_ccdc_geom_bond_type
C12   C17   A    
C2    C4    S    
O5    Zn1   S    
C24   H6    S    
C13   H2    S    
C6    C7    D    
C17   H4    S    
O4    Zn2   S    
O1    Zn1   S    
C18   H9    S    
C18   O9    S    
O8    Zn2   S    
C23   C24   A    
C3    C6    S    
C12   C20   A    
C8    N1    D    
C5    C10   S    
C23   H20   S    
C21   C22   A    
C14   C26   A    
N1    Zn1   S    
C2    C15   A    
C18   H8    S    
C26   H1    S    
C25   O9    S    
C4    O4    A    
O2    Zn2   S    
C19   H13   S    
C5    H12   S    
C8    H16   S    
C13   C22   A    
C15   H3    S    
O6    Zn2   S    
C7    H15   S    
C14   C25   A    
C10   O6    A    
C11   C14   S    
C6    H14   S    
C13   C26   A    
H19   N2    S    
C3    H7    S    
C4    O3    A    
C2    C20   A    
C15   C16   A    
C16   H5    S    
C9    N2    D    
C11   O7    A    
N2    Zn2   S    
C18   C19   S    
C1    O2    A    
O7    Zn1   S    
O3    Zn1   S    
C10   O5    A    
C21   C25   A    
C22   C23   A    
C16   C17   A    
C9    H18   S    
C19   H11   S    
C19   H10   S    
C1    C7    S    
H17   N1    S    
C12   C21   A    
C11   O8    A    
C20   C24   A    
C8    C9    S    
C3    C5    D    
C1    O1    A    
