data_mof_unit_4493.cif
_audit_creation_date              2012-12-10T20:55:43-0500
_audit_creation_method            fapswitch 2.2
_symmetry_space_group_name_H-M    P1
_symmetry_Int_Tables_number       1
_space_group_crystal_system       triclinic
_cell_length_a                    15.908254
_cell_length_b                    15.038542
_cell_length_c                    10.826703
_cell_angle_alpha                 90.090237
_cell_angle_beta                  89.986941
_cell_angle_gamma                 90.037535
_cell_volume                      2590.14352537

loop_
_atom_site_label
_atom_site_type_symbol
_atom_type_description
_atom_site_fract_x
_atom_site_fract_y
_atom_site_fract_z
_atom_type_partial_charge
C1    C     C_1   0.250758 0.500063 0.500030 -0.130286
C2    C     C_1   0.749221 0.500248 0.499162 -0.129862
C3    C     C_R   0.501257 0.499873 0.873451 -0.095990
C4    C     C_R   0.499777 0.499619 0.126485 -0.089342
C5    C     C_R   0.500134 0.905248 0.501381 -0.308744
C6    C     C_R   0.500075 0.094799 0.500791 -0.291582
C7    C     C_R   0.423047 0.952804 0.505928 0.323763
C8    C     C_R   0.576814 0.047346 0.512644 0.322741
C9    C     C_R   0.577219 0.952929 0.496885 0.310540
C10   C     C_R   0.423349 0.047122 0.489556 0.320487
C11   C     C_R   0.955950 0.583142 0.504439 0.274228
C12   C     C_R   0.043897 0.418431 0.506730 0.272157
C13   C     C_R   0.044246 0.582970 0.491949 0.274009
C14   C     C_R   0.955803 0.418447 0.492533 0.273265
C15   C     C_R   0.338910 0.499990 0.500078 0.901206
C16   C     C_R   0.661083 0.500044 0.499760 0.897115
C17   C     C_R   0.499813 0.499901 0.259223 0.913761
C18   C     C_R   0.500630 0.500037 0.740756 0.906158
C19   C     C_R   0.913059 0.500791 0.498343 -0.232268
C20   C     C_R   0.086900 0.500622 0.499648 -0.232282
C21   C     C_1   0.500067 0.807130 0.500686 0.473744
C22   C     C_1   0.500041 0.192890 0.500313 0.502815
C23   C     C_1   0.823955 0.500604 0.498688 0.227072
C24   C     C_1   0.176016 0.500349 0.499920 0.225897
C25   C     C_R   0.450144 0.659285 0.105782 -0.095919
C26   C     C_R   0.448810 0.341022 0.892316 -0.092567
C27   C     C_R   0.553334 0.658973 0.895053 -0.096822
C28   C     C_R   0.548736 0.339528 0.106590 -0.092014
C29   C     C_R   0.473884 0.741392 0.051247 -0.126919
C30   C     C_R   0.470636 0.258362 0.947087 -0.138760
C31   C     C_R   0.531234 0.741259 0.950904 -0.122953
C32   C     C_R   0.525137 0.257486 0.050853 -0.132445
C33   C     C_R   0.515632 0.579943 0.940195 0.023339
C34   C     C_R   0.512880 0.419076 0.060251 0.026390
C35   C     C_R   0.487143 0.580035 0.060242 0.030496
C36   C     C_R   0.486521 0.419533 0.939188 0.029911
N1    N     N_1   0.500000 0.270550 0.500000 -0.060147
N2    N     N_1   0.500000 0.729450 0.500000 -0.057599
O1    O     O_R   0.378020 0.573650 0.500040 -0.594891
O2    O     O_R   0.621980 0.426350 0.499960 -0.596599
O3    O     O_R   0.621980 0.573650 0.499960 -0.592546
O4    O     O_R   0.378020 0.426350 0.500040 -0.595215
O5    O     O_R   0.499990 0.573670 0.316780 -0.627307
O6    O     O_R   0.500010 0.426330 0.683220 -0.625653
O7    O     O_R   0.500010 0.573670 0.683220 -0.629831
O8    O     O_R   0.499990 0.426330 0.316780 -0.626960
Zn1   Zn    Zn3+2 0.500000 0.598370 0.500000 1.091266
Zn2   Zn    Zn3+2 0.500000 0.401630 0.500000 1.093901
S1    S     S_3+6 0.102173 0.684389 0.469039 0.143442
O9    O     O_2   0.052284 0.750552 0.395594 -0.130119
O10   O     O_2   0.122298 0.723711 0.593402 -0.232763
O11   O     O_3   0.192242 0.667412 0.391524 -0.537926
H1    H     H_    0.237185 0.692252 0.444633 0.417053
S2    S     S_3+6 0.898161 0.316886 0.469159 0.144621
O12   O     O_2   0.949167 0.249749 0.398825 -0.128991
O13   O     O_2   0.875569 0.279019 0.593324 -0.233984
O14   O     O_3   0.809683 0.333509 0.387759 -0.538070
H2    H     H_    0.763642 0.309486 0.439464 0.415577
S3    S     S_3+6 0.898339 0.684969 0.525357 0.143414
O15   O     O_2   0.948478 0.751983 0.597340 -0.130586
O16   O     O_2   0.878260 0.722703 0.400218 -0.233007
O17   O     O_3   0.808262 0.669242 0.603345 -0.535609
H3    H     H_    0.763414 0.693909 0.550078 0.418277
S4    S     S_3+6 0.101137 0.316993 0.531884 0.144513
O18   O     O_2   0.049936 0.251024 0.603868 -0.129525
O19   O     O_2   0.123209 0.277404 0.408402 -0.233549
O20   O     O_3   0.189919 0.334235 0.612423 -0.535944
H4    H     H_    0.235730 0.310058 0.560364 0.416229
C37   C     C_2   0.555597 0.171074 0.099546 1.035094
O21   O     O_2   0.542452 0.150952 0.207195 -0.570343
O22   O     O_R   0.596145 0.111279 0.020526 -0.742884
H5    H     H_    0.612327 0.053947 0.063544 0.374904
C38   C     C_2   0.568221 0.826099 0.906840 0.971085
O23   O     O_2   0.522911 0.883745 0.863356 -0.564804
O24   O     O_R   0.654920 0.839886 0.915489 -0.709339
H6    H     H_    0.672645 0.899996 0.882081 0.392310
C39   C     C_2   0.438011 0.173146 0.897197 1.049701
O25   O     O_2   0.452633 0.152171 0.790192 -0.562827
O26   O     O_R   0.393114 0.115657 0.974117 -0.750533
H7    H     H_    0.374571 0.059634 0.929596 0.386829
C40   C     C_2   0.443735 0.826715 0.103021 1.019752
O27   O     O_2   0.470157 0.852478 0.202884 -0.591991
O28   O     O_R   0.385152 0.877250 0.037608 -0.709134
H8    H     H_    0.368543 0.933381 0.083459 0.381939
S5    S     S_3+6 0.329161 0.106688 0.453133 0.133790
O29   O     O_2   0.289713 0.138254 0.571446 -0.186648
O30   O     O_2   0.348316 0.185987 0.373526 -0.290672
O31   O     O_3   0.260366 0.042627 0.375651 -0.435180
H9    H     H_    0.207715 0.077711 0.373150 0.418746
S6    S     S_3+6 0.672852 0.893464 0.469111 0.127015
O32   O     O_2   0.708082 0.863603 0.590933 -0.199345
O33   O     O_2   0.657180 0.813126 0.389547 -0.290973
O34   O     O_3   0.744007 0.957206 0.396055 -0.430015
H10   H     H_    0.796880 0.922484 0.398269 0.419826
S7    S     S_3+6 0.670877 0.107324 0.549082 0.134273
O35   O     O_2   0.710631 0.138131 0.430715 -0.187195
O36   O     O_2   0.651493 0.187138 0.627866 -0.290104
O37   O     O_3   0.739461 0.043894 0.627538 -0.439171
H11   H     H_    0.792103 0.079071 0.630047 0.418785
S8    S     S_3+6 0.327557 0.893284 0.534636 0.134585
O38   O     O_2   0.291958 0.862729 0.413230 -0.188221
O39   O     O_2   0.343593 0.813378 0.614492 -0.293310
O40   O     O_3   0.256618 0.957264 0.607864 -0.428541
H12   H     H_    0.203748 0.922445 0.606191 0.419515
C41   C     C_2   0.375024 0.652136 0.187623 0.982782
O41   O     O_2   0.355532 0.712463 0.257651 -0.552187
O42   O     O_R   0.326477 0.574546 0.183573 -0.784092
H13   H     H_    0.277147 0.575856 0.242465 0.376091
C42   C     C_2   0.373232 0.350265 0.811636 0.976195
O43   O     O_2   0.351959 0.290915 0.741158 -0.551250
O44   O     O_R   0.326228 0.428807 0.817392 -0.783423
H14   H     H_    0.276462 0.428848 0.759251 0.374414
C43   C     C_2   0.625526 0.651665 0.808324 1.011674
O45   O     O_2   0.638479 0.708787 0.730444 -0.563208
O46   O     O_R   0.677526 0.576845 0.814924 -0.778286
H15   H     H_    0.723873 0.577178 0.751033 0.373811
C44   C     C_2   0.624648 0.347031 0.187033 0.976712
O47   O     O_2   0.645429 0.286829 0.256123 -0.549307
O48   O     O_R   0.672685 0.424970 0.182442 -0.784746
H16   H     H_    0.722579 0.423979 0.240282 0.376086

loop_
_geom_bond_atom_site_label_1
_geom_bond_atom_site_label_2
_ccdc_geom_bond_type
C7    C10   A    
C10   S5    S    
O34   H10   S    
C38   O23   D    
S7    O35   D    
C40   O27   D    
S6    O32   D    
S7    O37   S    
C25   C41   S    
C39   O25   D    
C27   C33   A    
C29   C40   S    
C41   O42   S    
C11   C19   A    
C28   C44   S    
C44   O48   S    
C12   S4    S    
C31   C38   S    
C3    C33   A    
O46   H15   S    
C6    C22   S    
C3    C18   S    
C37   O22   S    
C30   C39   S    
C21   N2    T    
C20   C24   S    
C8    C9    A    
S1    O10   D    
O42   H13   S    
C1    C15   S    
C2    C16   S    
C13   C20   A    
S5    O30   D    
C4    C35   A    
C28   C34   A    
S3    O15   D    
C38   O24   S    
C8    S7    S    
C11   S3    S    
C40   O28   S    
C4    C34   A    
O7    Zn1   S    
C25   C29   A    
S2    O13   D    
S3    O16   D    
C7    S8    S    
C27   C31   A    
O20   H4    S    
S4    O20   S    
C28   C32   A    
C17   O8    A    
C5    C7    A    
C6    C8    A    
S5    O29   D    
C22   N1    T    
S8    O40   S    
S4    O19   D    
C19   C23   S    
O24   H6    S    
C17   O5    A    
C5    C9    A    
O17   H3    S    
C18   O6    A    
S6    O33   D    
O28   H8    S    
S1    O11   S    
C12   C20   A    
S8    O39   D    
O3    Zn1   S    
C39   O26   S    
O4    Zn2   S    
N1    Zn2   S    
C26   C42   S    
C15   O1    A    
N2    Zn1   S    
C16   O2    A    
C13   S1    S    
C4    C17   S    
C27   C43   S    
C26   C36   A    
C14   S2    S    
C25   C35   A    
C26   C30   A    
S1    O9    D    
C18   O7    A    
O40   H12   S    
O11   H1    S    
S6    O34   S    
O1    Zn1   S    
C43   O45   D    
S5    O31   S    
O2    Zn2   S    
S2    O12   D    
S3    O17   S    
O44   H14   S    
C14   C19   A    
C15   O4    A    
C12   C14   A    
C9    S6    S    
C6    C10   A    
O48   H16   S    
S7    O36   D    
C32   C37   S    
C41   O41   D    
S4    O18   D    
C42   O44   S    
O22   H5    S    
C29   C31   A    
C42   O43   D    
C30   C32   A    
C11   C13   A    
O14   H2    S    
C3    C36   A    
S8    O38   D    
C33   C35   A    
C34   C36   A    
C37   O21   D    
O26   H7    S    
O8    Zn2   S    
C5    C21   S    
O31   H9    S    
C1    C24   T    
O37   H11   S    
C2    C23   T    
C44   O47   D    
O5    Zn1   S    
C16   O3    A    
O6    Zn2   S    
C43   O46   S    
S2    O14   S    
