data_mof_unit_1533.cif
_audit_creation_date              2012-12-10T17:18:18-0500
_audit_creation_method            fapswitch 2.2
_symmetry_space_group_name_H-M    P1
_symmetry_Int_Tables_number       1
_space_group_crystal_system       triclinic
_cell_length_a                    10.188995
_cell_length_b                    10.810593
_cell_length_c                    14.942969
_cell_angle_alpha                 90.237301
_cell_angle_beta                  80.454052
_cell_angle_gamma                 95.001191
_cell_volume                      1616.89389745

loop_
_atom_site_label
_atom_site_type_symbol
_atom_type_description
_atom_site_fract_x
_atom_site_fract_y
_atom_site_fract_z
_atom_type_partial_charge
C1    C     C_R   0.555805 0.732488 0.491735 0.943372
C2    C     C_2   0.072160 0.487843 0.495550 -0.013520
C3    C     C_R   0.498513 0.496707 0.673001 0.903504
C4    C     C_R   0.501501 0.503328 0.326988 0.896188
C5    C     C_R   0.409845 0.425659 0.197398 -0.300201
C6    C     C_R   0.590969 0.573221 0.802518 -0.301015
C7    C     C_R   0.503538 0.505999 0.231308 -0.116246
C8    C     C_R   0.496564 0.493683 0.768657 -0.117540
C9    C     C_R   0.595637 0.587998 0.174530 0.133616
C10   C     C_R   0.404176 0.411896 0.825410 0.133552
C11   C     C_R   0.595517 0.584525 0.081023 0.091171
C12   C     C_R   0.444241 0.267538 0.503401 0.940230
C13   C     C_R   0.405101 0.414464 0.918846 0.090027
C14   C     C_R   0.501225 0.501330 0.046556 0.023961
C15   C     C_R   0.499753 0.497281 0.953301 0.024316
C16   C     C_R   0.407937 0.422471 0.105274 0.129199
C17   C     C_R   0.593102 0.576103 0.894595 0.129784
C18   C     C_R   0.687948 0.661811 0.021212 -0.200717
C19   C     C_R   0.312975 0.336866 0.978632 -0.200036
C20   C     C_3   0.626465 0.792803 0.236681 -0.788465
C21   C     C_3   0.369967 0.209630 0.759595 -0.788365
C22   C     C_3   0.065675 0.610619 0.684654 -0.766624
C23   C     C_R   0.686694 0.657413 0.928613 -0.224496
C24   C     C_3   0.935469 0.392810 0.314699 -0.768246
C25   C     C_R   0.314513 0.340982 0.071224 -0.224172
C26   C     C_2   0.587361 0.864224 0.478804 -0.382784
C27   C     C_2   0.412774 0.135737 0.497428 -0.381100
C28   C     C_2   0.487819 0.933821 0.472277 -0.158321
C29   C     C_2   0.512478 0.065860 0.469123 -0.144851
C30   C     C_2   0.927691 0.511711 0.504827 -0.011815
H1    H     H_    0.339301 0.364444 0.243150 0.154774
H2    H     H_    0.689748 0.904327 0.475434 0.151889
H3    H     H_    0.109275 0.414013 0.451709 0.155743
H4    H     H_    0.890368 0.585008 0.549123 0.155151
H5    H     H_    0.734253 0.644164 0.258444 0.251279
H6    H     H_    0.539696 0.776212 0.292287 0.240366
H7    H     H_    0.593544 0.835565 0.177591 0.251317
H8    H     H_    0.702731 0.858697 0.260628 0.240633
H9    H     H_    0.261277 0.360026 0.743854 0.251372
H10   H     H_    0.453502 0.227510 0.701911 0.238111
H11   H     H_    0.291548 0.144742 0.737104 0.237879
H12   H     H_    0.661707 0.634295 0.756783 0.154267
H13   H     H_    0.406958 0.164997 0.816331 0.251458
H14   H     H_    0.184261 0.722169 0.586595 0.248608
H15   H     H_    0.025093 0.690669 0.723329 0.219061
H16   H     H_    0.148784 0.579492 0.716039 0.255199
H17   H     H_    0.984790 0.533994 0.688929 0.237615
H18   H     H_    0.816175 0.279212 0.411080 0.244672
H19   H     H_    0.976110 0.313540 0.275063 0.219071
H20   H     H_    0.016485 0.469150 0.311582 0.238148
H21   H     H_    0.852750 0.425158 0.283502 0.255363
H22   H     H_    0.761889 0.725598 0.045473 0.179580
H23   H     H_    0.239023 0.273099 0.954364 0.179424
H24   H     H_    0.758770 0.717845 0.883561 0.146095
H25   H     H_    0.242572 0.280418 0.116266 0.146073
H26   H     H_    0.615196 0.105325 0.449645 0.178989
H27   H     H_    0.385137 0.894220 0.475723 0.184263
H28   H     H_    0.310363 0.095736 0.517096 0.150452
N1    N     N_2   0.842700 0.448880 0.462930 -0.045217
N2    N     N_2   0.157300 0.551120 0.537070 -0.046352
N3    N     N_2   0.683593 0.677449 0.210801 -0.327167
N4    N     N_2   0.314203 0.324332 0.789241 -0.326036
N5    N     N_2   0.113077 0.647699 0.591144 -0.257589
N6    N     N_2   0.887345 0.353554 0.407686 -0.256385
O1    O     O_R   0.431060 0.692470 0.507460 -0.623192
O2    O     O_R   0.568940 0.307530 0.492540 -0.622083
O3    O     O_R   0.651120 0.659650 0.483670 -0.621484
O4    O     O_R   0.348880 0.340350 0.516330 -0.620310
O5    O     O_R   0.389960 0.516440 0.644050 -0.625703
O6    O     O_R   0.610040 0.483560 0.355950 -0.628839
O7    O     O_R   0.610030 0.483620 0.620260 -0.619988
O8    O     O_R   0.389970 0.516380 0.379740 -0.622424
Zn1   Zn    Zn3+2 0.353060 0.521920 0.515880 0.937453
Zn2   Zn    Zn3+2 0.646940 0.478080 0.484120 0.938056

loop_
_geom_bond_atom_site_label_1
_geom_bond_atom_site_label_2
_ccdc_geom_bond_type
O6    Zn2   S    
O7    Zn2   S    
C1    O1    A    
C5    C7    A    
C11   C18   A    
C26   H2    S    
C16   C25   A    
C29   H26   S    
C27   C29   D    
C20   H8    S    
C3    O7    A    
C14   C15   A    
C4    O8    A    
H9    N4    S    
C2    C30   S    
C30   N1    D    
C19   H23   S    
C24   H21   S    
C4    O6    A    
C22   H17   S    
N1    N6    S    
C18   H22   S    
C24   N6    S    
O3    Zn2   S    
C10   N4    S    
C28   H27   S    
O5    Zn1   S    
C20   H7    S    
C12   O4    A    
N1    Zn2   S    
C9    C11   A    
C21   N4    S    
C17   C23   A    
C21   H10   S    
C12   O2    A    
N2    N5    S    
C21   H11   S    
C2    H3    S    
C8    C10   A    
C28   C29   S    
C1    O3    A    
C3    O5    A    
C3    C8    S    
C14   C16   A    
C13   C15   A    
H14   N5    S    
C24   H20   S    
C1    C26   S    
C19   C25   A    
C11   C14   A    
C9    N3    S    
H18   N6    S    
C13   C19   A    
C12   C27   S    
C18   C23   A    
O2    Zn2   S    
C25   H25   S    
N2    Zn1   S    
C24   H19   S    
C2    N2    D    
O1    Zn1   S    
C23   H24   S    
H5    N3    S    
C22   H15   S    
C6    H12   S    
C20   N3    S    
C7    C9    A    
C6    C17   A    
C30   H4    S    
C4    C7    S    
C5    C16   A    
C6    C8    A    
C22   H16   S    
O4    Zn1   S    
C15   C17   A    
C26   C28   D    
C10   C13   A    
C21   H13   S    
C22   N5    S    
O8    Zn1   S    
C5    H1    S    
C27   H28   S    
C20   H6    S    
