data_mof_unit_3372.cif
_audit_creation_date              2012-10-26T18:50:04-0400
_audit_creation_method            fapswitch 2.2
_symmetry_space_group_name_H-M    P1
_symmetry_Int_Tables_number       1
_space_group_crystal_system       triclinic
_cell_length_a                    10.918795
_cell_length_b                    12.987236
_cell_length_c                    11.667385
_cell_angle_alpha                 99.611736
_cell_angle_beta                  93.439791
_cell_angle_gamma                 92.994558
_cell_volume                      1625.06686807

loop_
_atom_site_label
_atom_site_type_symbol
_atom_type_description
_atom_site_fract_x
_atom_site_fract_y
_atom_site_fract_z
_atom_type_partial_charge
C1    C     C_R   0.502779 0.299336 0.478680 0.519139
C2    C     C_R   0.498302 0.860773 0.433858 -0.140521
C3    C     C_R   0.499301 0.031083 0.555747 0.043798
C4    C     C_R   0.500698 0.968917 0.444253 0.043798
C5    C     C_R   0.387445 0.393124 0.022390 -0.043629
C6    C     C_R   0.612555 0.606876 0.977610 -0.043630
C7    C     C_R   0.398443 0.405315 0.145020 0.069468
C8    C     C_R   0.601557 0.594684 0.854980 0.069467
C9    C     C_R   0.547069 0.546734 0.157404 0.042730
C10   C     C_R   0.452931 0.453266 0.842596 0.042729
C11   C     C_R   0.540564 0.539073 0.034260 0.010535
C12   C     C_R   0.497221 0.700665 0.521320 0.519138
C13   C     C_R   0.459436 0.460927 0.965739 0.010534
C14   C     C_R   0.262304 0.489785 0.499437 0.524729
C15   C     C_R   0.737696 0.510214 0.500563 0.524729
C16   C     C_R   0.092839 0.294287 0.488045 0.000028
C17   C     C_R   0.907161 0.705712 0.511947 0.000028
C18   C     C_R   0.009038 0.207505 0.481831 -0.095422
C19   C     C_R   0.990963 0.792496 0.518178 -0.095421
C20   C     C_R   0.884607 0.219175 0.480548 -0.139470
C21   C     C_R   0.115396 0.780828 0.519485 -0.139468
C22   C     C_R   0.841154 0.317475 0.485794 -0.089731
C23   C     C_R   0.495417 0.813976 0.533463 -0.013502
C24   C     C_R   0.158848 0.682527 0.514240 -0.089729
C25   C     C_R   0.921119 0.408565 0.493170 0.004578
C26   C     C_R   0.078881 0.591435 0.506841 0.004578
C27   C     C_R   0.050069 0.398375 0.494078 0.011486
C28   C     C_R   0.949930 0.601624 0.505922 0.011485
C29   C     C_R   0.871808 0.508239 0.499314 -0.014697
C30   C     C_R   0.128192 0.491760 0.500688 -0.014696
C31   C     C_3   0.299567 0.307923 0.954892 -0.434456
C32   C     C_3   0.700433 0.692075 0.045108 -0.434458
C33   C     C_3   0.224728 0.269161 0.487130 -0.382897
C34   C     C_R   0.504583 0.186024 0.466537 -0.013501
C35   C     C_3   0.775271 0.730837 0.512841 -0.382893
C36   C     C_R   0.504783 0.015853 0.344927 -0.143457
C37   C     C_R   0.495216 0.984147 0.655073 -0.143457
C38   C     C_R   0.506554 0.124096 0.356005 -0.144019
C39   C     C_R   0.493446 0.875903 0.643995 -0.144025
C40   C     C_R   0.501697 0.139227 0.566141 -0.140526
Cu1   Cu    Cu3+1 0.509250 0.507730 0.615930 0.912545
Cu2   Cu    Cu3+1 0.490750 0.492270 0.384070 0.912550
H1    H     H_    0.179011 0.848607 0.524813 0.118051
H2    H     H_    0.509032 0.159193 0.278172 0.133334
H3    H     H_    0.506176 0.968973 0.259008 0.103441
H4    H     H_    0.493824 0.031027 0.740992 0.103441
H5    H     H_    0.391566 0.394955 0.787523 0.120207
H6    H     H_    0.608435 0.605045 0.212477 0.120203
H7    H     H_    0.655744 0.645923 0.810604 0.123768
H8    H     H_    0.344255 0.354076 0.189396 0.123764
H9    H     H_    0.251504 0.262546 0.013415 0.125483
H10   H     H_    0.228799 0.342828 0.903563 0.138753
H11   H     H_    0.350635 0.252658 0.895148 0.123075
H12   H     H_    0.820994 0.151399 0.475238 0.118052
H13   H     H_    0.748496 0.737452 0.986585 0.125484
H14   H     H_    0.649367 0.747340 0.104852 0.123074
H15   H     H_    0.771200 0.657169 0.096436 0.138753
H16   H     H_    0.263100 0.292124 0.408759 0.153316
H17   H     H_    0.274158 0.308263 0.569795 0.153642
H18   H     H_    0.237419 0.184156 0.481488 0.113254
H19   H     H_    0.725850 0.691730 0.430172 0.153641
H20   H     H_    0.736889 0.707876 0.591210 0.153318
H21   H     H_    0.762579 0.815842 0.518479 0.113252
H22   H     H_    0.039937 0.129060 0.477437 0.107507
H23   H     H_    0.960064 0.870941 0.522569 0.107506
H24   H     H_    0.742923 0.320254 0.483783 0.144913
H25   H     H_    0.257081 0.679751 0.516274 0.144911
H26   H     H_    0.500213 0.813336 0.348228 0.121044
H27   H     H_    0.499786 0.186664 0.651771 0.121044
H28   H     H_    0.490968 0.840807 0.721828 0.133334
N1    N     N_R   0.523180 0.519350 0.790130 -0.241125
N2    N     N_R   0.476820 0.480650 0.209870 -0.241125
O1    O     O_R   0.506570 0.354460 0.582000 -0.516379
O2    O     O_R   0.493430 0.645540 0.418000 -0.516372
O3    O     O_R   0.490940 0.341410 0.386200 -0.515585
O4    O     O_R   0.509060 0.658590 0.613800 -0.515589
O5    O     O_R   0.327470 0.506520 0.597900 -0.502845
O6    O     O_R   0.672530 0.493480 0.402100 -0.502841
O7    O     O_R   0.311840 0.493460 0.402100 -0.501081
O8    O     O_R   0.688160 0.506540 0.597900 -0.501087

loop_
_geom_bond_atom_site_label_1
_geom_bond_atom_site_label_2
_ccdc_geom_bond_type
C6    C32   S    
C4    C36   A    
C33   H16   S    
C12   O2    A    
Cu1   Cu2   S    
C9    N2    A    
C31   H10   S    
Cu1   O8    S    
C12   C23   S    
Cu2   O3    S    
C34   C40   A    
C28   C29   A    
C19   C21   A    
C24   C26   A    
C2    H26   S    
Cu1   O5    S    
C15   O6    A    
C14   O5    A    
C22   H24   S    
C24   H25   S    
C21   H1    S    
C22   C25   A    
C32   H13   S    
C5    C13   A    
Cu1   N1    S    
C10   N1    A    
C16   C27   A    
Cu2   O7    S    
C33   H17   S    
C27   C30   A    
C32   H15   S    
C14   C30   S    
C1    C34   S    
C15   C29   S    
C25   C29   A    
Cu2   O2    S    
C40   H27   S    
C1    O3    A    
C20   H12   S    
C6    C11   A    
C5    C7    A    
C6    C8    A    
C2    C4    A    
C38   H2    S    
C16   C33   S    
C15   O8    A    
Cu2   N2    S    
C36   H3    S    
C35   H19   S    
C14   O7    A    
C31   H11   S    
C9    C11   A    
C20   C22   A    
C3    C40   A    
C26   C30   A    
C33   H18   S    
C12   O4    A    
C3    C4    A    
C7    N2    A    
C8    N1    A    
C34   C38   A    
C17   C28   A    
C7    H8    S    
C31   H9    S    
C10   C13   A    
Cu2   O6    S    
C25   C27   A    
C26   C28   A    
C1    O1    A    
C36   C38   A    
C37   C39   A    
Cu1   O4    S    
C11   C13   A    
C18   H22   S    
C23   C39   A    
C17   C19   A    
C39   H28   S    
C19   H23   S    
C35   H20   S    
C18   C20   A    
Cu1   O1    S    
C3    C37   A    
C9    H6    S    
C16   C18   A    
C21   C24   A    
C2    C23   A    
C35   H21   S    
C17   C35   S    
C37   H4    S    
C10   H5    S    
C8    H7    S    
C32   H14   S    
C5    C31   S    
