data_mof_unit_197.cif
_audit_creation_date              2012-12-10T18:47:47-0500
_audit_creation_method            fapswitch 2.2
_symmetry_space_group_name_H-M    P1
_symmetry_Int_Tables_number       1
_space_group_crystal_system       triclinic
_cell_length_a                    9.867608
_cell_length_b                    10.720873
_cell_length_c                    15.528711
_cell_angle_alpha                 90.238135
_cell_angle_beta                  67.44084
_cell_angle_gamma                 90.098854
_cell_volume                      1517.0609263

loop_
_atom_site_label
_atom_site_type_symbol
_atom_type_description
_atom_site_fract_x
_atom_site_fract_y
_atom_site_fract_z
_atom_type_partial_charge
C1    C     C_R   0.500044 0.740062 0.500118 0.866707
C2    C     C_R   0.370129 0.935982 0.512695 -0.199793
C3    C     C_R   0.500038 0.127452 0.499697 -0.010501
C4    C     C_R   0.500057 0.872559 0.500123 -0.011731
C5    C     C_R   0.961858 0.420901 0.443216 -0.196236
C6    C     C_R   0.038196 0.579206 0.556685 -0.192723
C7    C     C_R   0.105992 0.420529 0.443070 0.191232
C8    C     C_R   0.894082 0.579609 0.556803 0.193026
C9    C     C_R   0.408002 0.498884 0.676075 0.873490
C10   C     C_R   0.591948 0.498792 0.324106 0.871210
C11   C     C_R   0.349608 0.495025 0.777719 -0.058810
C12   C     C_R   0.499990 0.259940 0.499824 0.866128
C13   C     C_R   0.649025 0.481878 0.223557 -0.055637
C14   C     C_R   0.160971 0.538982 0.928543 -0.176341
C15   C     C_R   0.812464 0.379183 0.083982 -0.177894
C16   C     C_R   0.205078 0.528780 0.832119 -0.220225
C17   C     C_R   0.777538 0.414653 0.176406 -0.210182
C18   C     C_R   0.445518 0.462413 0.820206 -0.251810
C19   C     C_R   0.557851 0.514985 0.178144 -0.244758
C20   C     C_R   0.403831 0.469517 0.916696 0.064269
C21   C     C_R   0.579566 0.466098 0.090392 0.064649
C22   C     C_R   0.261053 0.514577 0.971242 0.164703
C23   C     C_R   0.327464 0.521608 0.105498 -0.283110
C24   C     C_R   0.712945 0.402075 0.040634 0.157768
C25   C     C_R   0.505264 0.442153 0.958586 0.045215
C26   C     C_R   0.470983 0.478374 0.052064 0.049757
C27   C     C_R   0.639353 0.379112 0.909999 -0.280885
C28   C     C_R   0.223271 0.538530 0.066307 0.057596
C29   C     C_R   0.741855 0.358912 0.950157 0.061733
C30   C     C_R   0.629973 0.936269 0.487336 -0.194317
C31   C     C_R   0.370142 0.063743 0.512436 -0.193375
C32   C     C_R   0.629988 0.064033 0.487072 -0.200411
H1    H     H_    0.290162 0.539492 0.179334 0.146789
H2    H     H_    0.930871 0.343286 0.836803 0.189919
H3    H     H_    0.466859 0.575780 0.214885 0.148687
H4    H     H_    0.556576 0.439468 0.775674 0.159063
H5    H     H_    0.847301 0.385270 0.211956 0.146103
H6    H     H_    0.128687 0.552729 0.799993 0.153119
H7    H     H_    0.050281 0.570352 0.968851 0.173646
H8    H     H_    0.913502 0.328300 0.048551 0.171844
H9    H     H_    0.731360 0.887856 0.477090 0.155352
H10   H     H_    0.268752 0.112153 0.522683 0.155057
H11   H     H_    0.173521 0.245821 0.399364 0.152978
H12   H     H_    0.665541 0.338858 0.841754 0.147278
H13   H     H_    0.225615 0.354787 0.314500 0.161467
H14   H     H_    0.826815 0.754479 0.600079 0.152423
H15   H     H_    0.774539 0.645889 0.685195 0.161166
H16   H     H_    0.731429 0.112677 0.476652 0.152361
H17   H     H_    0.268686 0.887344 0.523112 0.152518
H18   H     H_    0.934083 0.357830 0.397876 0.131869
H19   H     H_    0.066025 0.642393 0.601929 0.133540
H20   H     H_    0.037391 0.530706 0.182030 0.185262
H21   H     H_    0.095835 0.675911 0.145552 0.191296
H22   H     H_    0.848622 0.206099 0.880175 0.189329
N1    N     N_R   0.142780 0.500030 0.500020 -0.077727
N2    N     N_R   0.857220 0.499970 0.499980 -0.077316
N3    N     N_3   0.081346 0.586771 0.122870 -0.468970
N4    N     N_3   0.875602 0.293998 0.898364 -0.474490
N5    N     N_3   0.213691 0.336663 0.383150 -0.394403
N6    N     N_3   0.786506 0.663730 0.616505 -0.396433
O1    O     O_R   0.385370 0.683250 0.500010 -0.629255
O2    O     O_R   0.614630 0.316750 0.499990 -0.629941
O3    O     O_R   0.614700 0.683220 0.500000 -0.603092
O4    O     O_R   0.385300 0.316780 0.500000 -0.603729
O5    O     O_R   0.319830 0.500020 0.632250 -0.619788
O6    O     O_R   0.680170 0.499980 0.367750 -0.621232
O7    O     O_R   0.549160 0.499990 0.632240 -0.596688
O8    O     O_R   0.450840 0.500010 0.367760 -0.592633
Zn1   Zn    Zn3+2 0.346870 0.500020 0.500000 0.953960
Zn2   Zn    Zn3+2 0.653130 0.499980 0.500000 0.951927

loop_
_geom_bond_atom_site_label_1
_geom_bond_atom_site_label_2
_ccdc_geom_bond_type
C32   H16   S    
C2    C4    A    
C21   C26   A    
C9    O7    A    
C11   C18   A    
C23   C28   A    
C2    H17   S    
C13   C17   A    
C6    H19   S    
C27   C29   A    
C12   O2    A    
C11   C16   A    
C2    C31   A    
C5    N2    A    
C18   C20   A    
O3    Zn2   S    
H11   N5    S    
C6    N1    A    
C1    C4    S    
H14   N6    S    
C10   O8    A    
C14   C22   A    
C9    O5    A    
C6    C8    A    
H15   N6    S    
C5    C7    A    
C30   H9    S    
C22   C28   A    
O4    Zn1   S    
C8    N6    S    
C3    C31   A    
C9    C11   S    
C8    N2    A    
N1    Zn1   S    
O6    Zn2   S    
O5    Zn1   S    
C7    N1    A    
C1    O3    A    
C7    N5    S    
C15   C24   A    
C31   H10   S    
C20   C22   A    
N2    Zn2   S    
C10   O6    A    
H22   N4    S    
C3    C32   A    
C12   O4    A    
C14   C16   A    
C15   H8    S    
C21   C24   A    
C25   C27   A    
C20   C25   A    
C17   H5    S    
C30   C32   A    
C5    H18   S    
C16   H6    S    
C29   N4    S    
O2    Zn2   S    
H2    N4    S    
H20   N3    S    
C23   C26   A    
O1    Zn1   S    
C15   C17   A    
H21   N3    S    
C24   C29   A    
H13   N5    S    
C13   C19   A    
C19   H3    S    
C3    C12   S    
O7    Zn2   S    
C19   C21   A    
C25   C26   A    
C28   N3    S    
C18   H4    S    
C27   H12   S    
C4    C30   A    
C14   H7    S    
O8    Zn1   S    
C23   H1    S    
C10   C13   S    
C1    O1    A    
