data_mof_unit_1406.cif
_audit_creation_date              2012-10-26T21:01:01-0400
_audit_creation_method            fapswitch 2.2
_symmetry_space_group_name_H-M    P1
_symmetry_Int_Tables_number       1
_space_group_crystal_system       triclinic
_cell_length_a                    10.898146
_cell_length_b                    10.834942
_cell_length_c                    9.569863
_cell_angle_alpha                 90.48386
_cell_angle_beta                  88.94138
_cell_angle_gamma                 90.648626
_cell_volume                      1129.7132809

loop_
_atom_site_label
_atom_site_type_symbol
_atom_type_description
_atom_site_fract_x
_atom_site_fract_y
_atom_site_fract_z
_atom_type_partial_charge
C1    C     C_R   0.496724 0.262450 0.499502 0.544169
C2    C     C_R   0.440526 0.410255 0.074819 -0.023614
C3    C     C_R   0.440927 0.409969 0.926089 -0.018450
C4    C     C_R   0.265265 0.495604 0.501338 0.553463
C5    C     C_R   0.547447 0.598066 0.925819 0.127693
C6    C     C_3   0.674120 0.649225 0.912332 -0.254906
C7    C     C_3   0.680103 0.645635 0.070998 -0.004195
C8    C     C_R   0.497891 0.737741 0.500264 0.547188
C9    C     C_R   0.734630 0.499826 0.499229 0.556287
C10   C     C_2   0.933395 0.449604 0.398488 -0.156864
C11   C     C_2   0.866864 0.504529 0.499410 -0.109076
C12   C     C_R   0.483041 0.129397 0.498664 0.008179
C13   C     C_2   0.067736 0.458309 0.393378 -0.169473
C14   C     C_2   0.132967 0.483629 0.507432 -0.119193
C15   C     C_R   0.477046 0.065060 0.624259 0.019076
C16   C     C_3   0.895953 0.602853 0.104934 -0.313087
C17   C     C_R   0.472192 0.063195 0.372447 -0.165253
C18   C     C_R   0.473251 0.934430 0.373009 -0.163752
C19   C     C_R   0.485364 0.870965 0.499761 0.007175
C20   C     C_R   0.478843 0.937919 0.624821 0.024561
C21   C     C_3   0.561246 0.936113 0.747593 -0.274988
C22   C     C_3   0.557439 0.075828 0.748334 -0.266818
C23   C     C_R   0.550355 0.596603 0.072661 0.161586
Cu1   Cu    Cu3+1 0.499990 0.499980 0.640670 0.931382
Cu2   Cu    Cu3+1 0.500010 0.500020 0.359330 0.949739
H1    H     H_    0.888114 0.400568 0.314049 0.150814
H2    H     H_    0.090112 0.490001 0.610317 0.100303
H3    H     H_    0.469389 0.110234 0.273147 0.125694
H4    H     H_    0.470804 0.885457 0.273930 0.129387
H5    H     H_    0.515615 0.894422 0.841002 0.132771
H6    H     H_    0.653713 0.900302 0.719478 0.128872
H7    H     H_    0.507986 0.114682 0.841023 0.127338
H8    H     H_    0.758817 0.469342 0.077599 0.255207
H9    H     H_    0.960571 0.526747 0.123567 0.130052
H10   H     H_    0.911612 0.677275 0.183308 0.164560
H11   H     H_    0.916388 0.638770 0.998538 0.128672
H12   H     H_    0.647773 0.120035 0.723646 0.142060
H13   H     H_    0.394044 0.336418 0.130611 0.108751
H14   H     H_    0.394878 0.335795 0.870976 0.114640
H15   H     H_    0.737728 0.585120 0.856992 0.160873
H16   H     H_    0.676878 0.744371 0.872239 0.088349
H17   H     H_    0.688474 0.737929 0.122175 0.127564
H18   H     H_    0.908324 0.554749 0.585151 0.087200
H19   H     H_    0.113552 0.441514 0.293347 0.139601
N1    N     N_R   0.500780 0.500930 0.147930 -0.226630
N2    N     N_R   0.500780 0.500890 0.852020 -0.231610
N3    N     N_2   0.770486 0.557838 0.116441 -0.474592
O1    O     O_R   0.500000 0.319640 0.618810 -0.507183
O2    O     O_R   0.500010 0.319680 0.381230 -0.517404
O3    O     O_R   0.321940 0.499980 0.618760 -0.501238
O4    O     O_R   0.321950 0.500020 0.381180 -0.500022
O5    O     O_R   0.499990 0.680320 0.618770 -0.496039
O6    O     O_R   0.500000 0.680360 0.381190 -0.507654
O7    O     O_R   0.678050 0.499980 0.618820 -0.514431
O8    O     O_R   0.678060 0.500020 0.381240 -0.456739

loop_
_geom_bond_atom_site_label_1
_geom_bond_atom_site_label_2
_ccdc_geom_bond_type
C12   C17   A    
Cu1   O5    S    
Cu2   O4    S    
C1    O1    A    
C11   H18   S    
C6    C7    S    
C9    O8    A    
C14   H2    S    
C9    C11   S    
C21   H5    S    
C8    O5    A    
C3    N2    A    
C19   C20   A    
C5    C23   A    
C12   C15   A    
Cu1   N2    S    
C10   H1    S    
C2    C3    A    
C8    O6    A    
C3    H14   S    
C16   H10   S    
C18   H4    S    
C21   C22   S    
C16   H11   S    
Cu1   O3    S    
C21   H6    S    
C5    C6    S    
C1    C12   S    
C22   H7    S    
C23   N1    A    
C7    C23   S    
C16   N3    S    
Cu2   O6    S    
C17   C18   A    
C6    H15   S    
C15   C22   S    
C2    N1    A    
C4    C14   S    
C15   C20   A    
H8    N3    S    
Cu2   O2    S    
C8    C19   S    
C10   C11   D    
C4    O4    A    
Cu1   O7    S    
Cu1   O1    S    
Cu2   N1    S    
Cu1   Cu2   S    
C18   C19   A    
C5    N2    A    
C7    H17   S    
C2    H13   S    
C9    O7    A    
C16   H9    S    
C20   C21   S    
C13   C14   D    
C22   H12   S    
C1    O2    A    
C6    H16   S    
C13   H19   S    
Cu2   O8    S    
C17   H3    S    
C4    O3    A    
C10   C13   S    
C7    N3    S    
