data_mof_unit_69.cif
_audit_creation_date              2012-12-11T16:35:22-0500
_audit_creation_method            fapswitch 2.2
_symmetry_space_group_name_H-M    P1
_symmetry_Int_Tables_number       1
_space_group_crystal_system       triclinic
_cell_length_a                    6.934298
_cell_length_b                    17.66511
_cell_length_c                    19.512676
_cell_angle_alpha                 109.091914
_cell_angle_beta                  90.359494
_cell_angle_gamma                 90.571026
_cell_volume                      2258.50758786

loop_
_atom_site_label
_atom_site_type_symbol
_atom_type_description
_atom_site_fract_x
_atom_site_fract_y
_atom_site_fract_z
_atom_type_partial_charge
O1    O     O_R   0.505700 0.440210 0.561730 -0.522212
O2    O     O_R   0.169350 0.406300 0.412660 -0.539161
O3    O     O_R   0.005650 0.559790 0.438270 -0.542130
C1    C     C_R   0.338011 0.383015 0.384948 0.690067
O4    O     O_R   0.175560 0.430650 0.559600 -0.557193
O5    O     O_R   0.011900 0.584320 0.586250 -0.534930
C2    C     C_R   0.344885 0.414698 0.580291 0.721986
O6    O     O_R   0.499450 0.415680 0.413750 -0.531858
O7    O     O_3   0.341370 0.550390 0.508570 -0.369070
V1    V     V_3+5 0.063940 0.490650 0.498410 1.406142
O8    O     O_R   0.682570 0.593700 0.587340 -0.539869
C3    C     C_R   0.852520 0.616653 0.614955 0.697511
O9    O     O_R   0.676370 0.569350 0.440400 -0.544855
C4    C     C_R   0.845267 0.584360 0.418829 0.679916
V2    V     V_3+5 0.564750 0.509350 0.501590 1.434627
O10   O     O_3   0.837190 0.449610 0.491430 -0.364205
C5    C     C_R   0.036658 0.679088 0.283307 -0.148464
H1    H     H_    0.167491 0.676253 0.252661 0.103449
C6    C     C_R   0.025522 0.634022 0.330323 -0.163983
H2    H     H_    0.148811 0.598800 0.334999 0.117128
C7    C     C_R   0.856706 0.633248 0.369698 -0.049856
C8    C     C_R   0.699586 0.679151 0.361170 -0.168311
H3    H     H_    0.567788 0.680337 0.390982 0.121796
C9    C     C_R   0.711621 0.725184 0.314881 -0.143258
H4    H     H_    0.589134 0.761226 0.311256 0.100941
C10   C     C_R   0.880210 0.725689 0.274988 0.090474
C11   C     C_R   0.728425 0.786467 0.187242 -0.146410
H5    H     H_    0.590627 0.759824 0.192733 0.101351
C12   C     C_R   0.739841 0.832221 0.140791 -0.167245
H6    H     H_    0.610091 0.840295 0.112902 0.123466
C13   C     C_R   0.916446 0.866166 0.129757 -0.055758
C14   C     C_R   0.081236 0.853545 0.166748 -0.161741
H7    H     H_    0.219236 0.879445 0.160119 0.118651
C15   C     C_R   0.069360 0.808706 0.214028 -0.143812
H8    H     H_    0.198608 0.802263 0.242905 0.099140
C16   C     C_R   0.892797 0.774224 0.224902 0.089124
H9    H     H_    0.078093 0.632675 0.927227 0.115208
C17   C     C_R   0.804736 0.907440 0.750527 -0.138777
C18   C     C_R   0.747012 0.920757 0.686952 -0.120068
C19   C     C_R   0.729124 0.856946 0.622614 -0.118222
C20   C     C_R   0.768501 0.779306 0.621370 -0.134632
C21   C     C_R   0.825503 0.763762 0.685221 0.068005
C22   C     C_R   0.844324 0.829167 0.751142 0.068132
C23   C     C_R   0.866461 0.684852 0.683985 -0.184000
C24   C     C_R   0.924790 0.671326 0.748810 0.071931
C25   C     C_R   0.944723 0.736762 0.814611 0.067337
C26   C     C_R   0.904799 0.815667 0.815744 -0.184172
C27   C     C_R   0.960003 0.592932 0.749841 -0.139624
C28   C     C_R   0.015384 0.579526 0.813654 -0.124154
C29   C     C_R   0.035915 0.643446 0.877737 -0.115233
C30   C     C_R   0.000419 0.721221 0.878606 -0.135412
H10   H     H_    0.819030 0.959280 0.798890 0.101828
H11   H     H_    0.717062 0.981020 0.687576 0.118108
H12   H     H_    0.685319 0.867667 0.573268 0.115367
H13   H     H_    0.754407 0.731885 0.569777 0.100315
H14   H     H_    0.942773 0.541167 0.701643 0.090685
H15   H     H_    0.041161 0.519179 0.813581 0.111456
H16   H     H_    0.015645 0.768701 0.930107 0.102020
H17   H     H_    0.062119 0.450976 0.180188 0.119448
C31   C     C_R   0.508389 0.232940 0.382593 -0.115002
C32   C     C_R   0.602434 0.163881 0.383361 -0.105430
C33   C     C_R   0.637233 0.102790 0.318801 -0.141914
C34   C     C_R   0.577756 0.110159 0.252990 -0.142889
C35   C     C_R   0.483589 0.179913 0.250345 0.071197
C36   C     C_R   0.448662 0.242880 0.316645 0.055071
C37   C     C_R   0.420526 0.186775 0.183386 -0.187416
C38   C     C_R   0.323354 0.257182 0.183094 0.071994
C39   C     C_R   0.288837 0.320233 0.249425 0.071517
C40   C     C_R   0.352046 0.313409 0.316406 -0.187055
C41   C     C_R   0.262301 0.266894 0.117125 -0.125929
C42   C     C_R   0.168208 0.335976 0.116459 -0.120914
C43   C     C_R   0.134352 0.397225 0.181038 -0.123948
C44   C     C_R   0.194519 0.389941 0.246811 -0.146278
H18   H     H_    0.480456 0.277896 0.434278 0.144329
H19   H     H_    0.647196 0.157427 0.434382 0.150703
H20   H     H_    0.709371 0.049043 0.319708 0.122558
H21   H     H_    0.606082 0.060372 0.204495 0.113200
H22   H     H_    0.288588 0.221790 0.065252 0.100966
H23   H     H_    0.122521 0.342223 0.065444 0.114358
H24   H     H_    0.166423 0.439701 0.295335 0.107601
C45   C     C_R   0.511225 0.261686 0.667314 -0.222553
H25   H     H_    0.617665 0.215055 0.657951 0.117822
C46   C     C_R   0.503352 0.307648 0.620333 0.438968
C47   C     C_R   0.356427 0.364682 0.628466 -0.126151
C48   C     C_R   0.223903 0.375832 0.684872 -0.260056
H26   H     H_    0.112466 0.420089 0.692923 0.123221
C49   C     C_R   0.235643 0.331368 0.732391 -0.151383
H27   H     H_    0.132899 0.342926 0.776061 0.115318
C50   C     C_R   0.379828 0.273764 0.724384 0.033317
C51   C     C_R   0.224470 0.198720 0.800036 -0.145416
H28   H     H_    0.083419 0.211416 0.782655 0.098044
C52   C     C_R   0.236189 0.153393 0.846860 -0.164443
H29   H     H_    0.103423 0.133318 0.864680 0.118815
C53   C     C_R   0.416270 0.133819 0.869898 -0.051833
C54   C     C_R   0.584378 0.160945 0.844708 -0.169963
H30   H     H_    0.725500 0.147081 0.861115 0.116270
C55   C     C_R   0.572568 0.206319 0.797818 -0.147211
H31   H     H_    0.704917 0.226969 0.780238 0.098132
C56   C     C_R   0.392409 0.225802 0.774768 0.116238
O11   O     O_R   0.273230 0.084330 0.086440 -0.534639
O12   O     O_R   0.596660 0.069390 0.940470 -0.545215
O13   O     O_R   0.760270 0.915710 0.913690 -0.534635
C57   C     C_R   0.427480 0.084562 0.918966 0.682697
O14   O     O_R   0.603330 0.093680 0.087390 -0.537076
O15   O     O_R   0.766990 0.940160 0.061660 -0.542568
C58   C     C_R   0.434652 0.117161 0.114975 0.695112
O16   O     O_R   0.266510 0.059870 0.938470 -0.542029
O17   O     O_3   0.431050 0.949630 0.991510 -0.366792
V3    V     V_3+5 0.708490 0.009340 0.001580 1.411140
O18   O     O_R   0.096270 0.930570 0.059390 -0.543864
C59   C     C_R   0.927442 0.915426 0.080917 0.681993
O19   O     O_R   0.089600 0.906290 0.912460 -0.537947
C60   C     C_R   0.919534 0.883727 0.884723 0.699910
V4    V     V_3+5 0.207670 0.990600 0.998190 1.414534
O20   O     O_3   0.935250 0.050360 0.008480 -0.368239
O21   O     O_3   0.624731 0.290622 0.561387 -0.577879
C61   C     C_3   0.814399 0.314353 0.585866 -0.204670
H32   H     H_    0.821644 0.378902 0.619240 0.133689
H33   H     H_    0.907038 0.306076 0.537896 0.171520
H34   H     H_    0.874303 0.276674 0.616494 0.124114

loop_
_geom_bond_atom_site_label_1
_geom_bond_atom_site_label_2
_ccdc_geom_bond_type
C49   H27   S    
C41   H22   S    
C20   C21   A    
C54   H30   S    
C1    O6    A    
O19   V4    S    
C55   H31   S    
C18   H11   S    
C48   H26   S    
C32   H19   S    
C12   H6    S    
C50   C56   S    
C5    C10   A    
C4    C7    S    
C6    C7    A    
C9    C10   A    
C61   H33   S    
O5    C3    A    
O14   V3    S    
C11   C12   A    
O12   V3    S    
V2    O10   S    
C28   H15   S    
O17   V3    S    
C27   H14   S    
C15   H8    S    
O17   V4    S    
O18   C59   A    
C20   H13   S    
C55   C56   A    
O8    V2    S    
C46   C47   A    
C39   C40   A    
C41   C42   A    
O1    V2    S    
O7    V1    S    
O18   V4    S    
H17   C43   S    
C45   C50   A    
C2    C47   S    
O15   C59   A    
O12   C57   A    
O9    C4    A    
O19   C60   A    
C33   H20   S    
C32   C33   A    
C21   C23   A    
C37   C58   S    
C42   H23   S    
C1    C40   S    
C45   C46   A    
C29   C30   A    
C48   C49   A    
C38   C39   A    
O11   V4    S    
C9    H4    S    
C61   H34   S    
C18   C19   A    
O4    C2    A    
C39   C44   A    
C24   C25   A    
C25   C30   A    
C45   H25   S    
C31   C32   A    
C35   C37   A    
O2    C1    A    
O16   V4    S    
O5    V1    S    
C33   C34   A    
C51   C52   A    
C13   C14   A    
C52   C53   A    
C5    H1    S    
C30   H16   S    
C47   C48   A    
O3    C4    A    
C10   C16   S    
C19   C20   A    
C31   C36   A    
O6    V2    S    
C19   H12   S    
C49   C50   A    
C8    C9    A    
C21   C22   A    
O2    V1    S    
C51   C56   A    
C23   C24   A    
C34   H21   S    
C24   C27   A    
C26   C60   S    
O15   V3    S    
C25   C26   A    
C27   C28   A    
O1    C2    A    
C46   O21   S    
C43   C44   A    
C53   C57   S    
O8    C3    A    
C54   C55   A    
V4    O20   S    
O14   C58   A    
C11   C16   A    
O11   C58   A    
C38   C41   A    
C35   C36   A    
C6    H2    S    
O9    V2    S    
O7    V2    S    
O4    V1    S    
C12   C13   A    
O3    V1    S    
V1    O10   S    
C61   H32   S    
C14   H7    S    
H9    C29   S    
C51   H28   S    
C17   C18   A    
C36   C40   A    
C31   H18   S    
C52   H29   S    
C5    C6    A    
C44   H24   S    
O21   C61   S    
C37   C38   A    
C15   C16   A    
C53   C54   A    
V3    O20   S    
C34   C35   A    
C17   C22   A    
C17   H10   S    
C3    C23   S    
C28   C29   A    
C11   H5    S    
O13   C60   A    
C13   C59   S    
C8    H3    S    
O13   V3    S    
C57   O16   A    
C42   C43   A    
C7    C8    A    
C22   C26   A    
C14   C15   A    
