data_mof_unit_2771.cif
_audit_creation_date              2012-12-11T15:23:29-0500
_audit_creation_method            fapswitch 2.2
_symmetry_space_group_name_H-M    P1
_symmetry_Int_Tables_number       1
_space_group_crystal_system       triclinic
_cell_length_a                    6.976951
_cell_length_b                    17.355442
_cell_length_c                    19.419553
_cell_angle_alpha                 109.427926
_cell_angle_beta                  90.06357
_cell_angle_gamma                 90.517125
_cell_volume                      2217.47324043

loop_
_atom_site_label
_atom_site_type_symbol
_atom_type_description
_atom_site_fract_x
_atom_site_fract_y
_atom_site_fract_z
_atom_type_partial_charge
O1    O     O_R   0.505810 0.439670 0.562310 -0.516055
O2    O     O_R   0.169070 0.404920 0.411210 -0.532919
O3    O     O_R   0.005550 0.560330 0.437690 -0.535599
C1    C     C_R   0.339190 0.380543 0.384408 0.741541
O4    O     O_R   0.175650 0.430000 0.560110 -0.537650
O5    O     O_R   0.012170 0.585580 0.587650 -0.530948
C2    C     C_R   0.344631 0.413077 0.580108 0.749333
O6    O     O_R   0.499180 0.414420 0.412350 -0.551279
O7    O     O_3   0.341430 0.551020 0.508860 -0.373798
V1    V     V_3+5 0.063930 0.490540 0.498360 1.469098
O8    O     O_R   0.682850 0.595080 0.588790 -0.542288
C3    C     C_R   0.852470 0.618197 0.616933 0.715160
O9    O     O_R   0.676280 0.570000 0.439890 -0.543599
C4    C     C_R   0.845212 0.584861 0.418144 0.703725
V2    V     V_3+5 0.564760 0.509460 0.501640 1.454480
O10   O     O_3   0.837130 0.448980 0.491140 -0.364718
C5    C     C_R   0.067817 0.865856 0.178238 -0.164511
C6    C     C_R   0.914652 0.865215 0.130851 -0.076374
C7    C     C_R   0.750214 0.817767 0.131348 -0.196243
C8    C     C_R   0.739363 0.770643 0.177740 0.107449
C9    C     C_R   0.892516 0.772700 0.225942 0.048169
C10   C     C_R   0.056515 0.820898 0.226423 0.034198
C11   C     C_R   0.578275 0.721234 0.176595 -0.203930
C12   C     C_R   0.567843 0.674855 0.223225 -0.130926
C13   C     C_R   0.717505 0.677585 0.272356 0.144092
C14   C     C_R   0.881625 0.726365 0.273520 -0.019354
C15   C     C_R   0.034083 0.729072 0.322349 -0.001711
C16   C     C_R   0.195409 0.779578 0.324408 0.409407
C17   C     C_R   0.206737 0.823548 0.275107 -0.269670
C18   C     C_R   0.705254 0.632587 0.320425 -0.168179
C19   C     C_R   0.856611 0.634127 0.368716 -0.100631
C20   C     C_R   0.020732 0.681975 0.368915 -0.175631
H1    H     H_    0.194383 0.902769 0.178701 0.140874
H2    H     H_    0.631784 0.816513 0.094778 0.124313
H3    H     H_    0.459705 0.718692 0.139788 0.134907
H4    H     H_    0.441437 0.637461 0.221417 0.145202
H5    H     H_    0.579091 0.595256 0.319408 0.138669
H6    H     H_    0.136730 0.683427 0.406489 0.163876
H7    H     H_    0.334009 0.859543 0.274601 0.160128
C21   C     C_3   0.806678 0.817309 0.742703 -0.142000
C22   C     C_3   0.975242 0.769164 0.696633 -0.178122
H8    H     H_    0.048836 0.784569 0.652182 0.109276
H9    H     H_    0.742021 0.873114 0.737024 0.102427
C23   C     C_3   0.867367 0.688468 0.687783 -0.042125
C24   C     C_3   0.698698 0.735883 0.733135 -0.136505
C25   C     C_3   0.795672 0.731354 0.803609 -0.140720
C26   C     C_3   0.963876 0.683746 0.757538 0.184560
C27   C     C_3   0.072417 0.764681 0.767075 -0.130263
C28   C     C_3   0.903690 0.811831 0.812285 -0.036200
H10   H     H_    0.544691 0.723816 0.718869 0.127730
H11   H     H_    0.722327 0.715808 0.848039 0.131740
H12   H     H_    0.226439 0.776577 0.781391 0.121687
C29   C     C_3   0.558061 0.275736 0.283304 -0.242752
C30   C     C_3   0.471728 0.188080 0.262391 0.157305
H13   H     H_    0.698977 0.295584 0.310316 0.156269
C31   C     C_3   0.412816 0.191498 0.186812 -0.153664
C32   C     C_3   0.493821 0.278913 0.208120 0.430057
C33   C     C_3   0.299933 0.315107 0.239259 0.085249
C34   C     C_3   0.217292 0.227557 0.218910 0.133202
C35   C     C_3   0.275454 0.223690 0.294672 -0.202714
C36   C     C_3   0.359791 0.310784 0.314074 -0.171375
H14   H     H_    0.183308 0.201002 0.330536 0.160124
C37   C     C_R   0.568318 0.134542 0.821897 -0.165850
C38   C     C_R   0.417179 0.135513 0.869874 -0.112190
C39   C     C_R   0.254057 0.182587 0.869613 -0.188658
C40   C     C_R   0.241082 0.228788 0.822321 -0.007317
C41   C     C_R   0.392925 0.226251 0.773440 -0.002951
C42   C     C_R   0.556091 0.178572 0.773133 0.156759
C43   C     C_R   0.079203 0.277111 0.822704 0.387681
C44   C     C_R   0.067383 0.319541 0.772396 -0.237259
C45   C     C_R   0.216780 0.316951 0.723588 0.033459
C46   C     C_R   0.380844 0.270501 0.724114 -0.014109
C47   C     C_R   0.531392 0.266996 0.674534 0.031733
C48   C     C_R   0.693496 0.219799 0.675747 -0.183693
C49   C     C_R   0.704582 0.175463 0.723840 -0.157283
C50   C     C_R   0.204120 0.360478 0.674497 -0.199863
C51   C     C_R   0.354914 0.359958 0.626459 -0.189217
C52   C     C_R   0.515716 0.309431 0.623922 0.394458
H15   H     H_    0.693927 0.098001 0.821364 0.120908
H16   H     H_    0.138069 0.183740 0.907003 0.175457
H17   H     H_    0.938713 0.353309 0.770465 0.157251
H18   H     H_    0.077783 0.396461 0.674840 0.184315
H19   H     H_    0.813056 0.216933 0.639543 0.171917
H20   H     H_    0.830871 0.139242 0.722941 0.123656
O11   O     O_R   0.271890 0.085690 0.087580 -0.529619
O12   O     O_R   0.595690 0.070020 0.939870 -0.540647
O13   O     O_R   0.758900 0.914390 0.912370 -0.545914
C53   C     C_R   0.426961 0.085638 0.918749 0.701196
O14   O     O_R   0.602020 0.095100 0.088770 -0.505681
O15   O     O_R   0.765280 0.939660 0.062330 -0.532729
C54   C     C_R   0.432051 0.120245 0.115814 0.800923
O16   O     O_R   0.265520 0.060430 0.937620 -0.544491
O17   O     O_3   0.429560 0.949050 0.991100 -0.381587
V3    V     V_3+5 0.707160 0.009450 0.001650 1.502354
O18   O     O_R   0.094540 0.929890 0.060190 -0.544471
C55   C     C_R   0.925538 0.914804 0.081676 0.739242
O19   O     O_R   0.088200 0.904800 0.911290 -0.546299
C56   C     C_R   0.918607 0.881908 0.883075 0.670534
V4    V     V_3+5 0.206300 0.990390 0.998440 1.460057
O20   O     O_3   0.934030 0.050940 0.008900 -0.349473
I1    I     I_    0.093038 0.580083 0.773504 -0.492111
I2    I     I_    0.601925 0.084118 0.278136 -0.482837
O21   O     O_3   0.597727 0.308799 0.159994 -0.538124
C57   C     C_3   0.686615 0.383806 0.199895 0.169911
H21   H     H_    0.818005 0.371266 0.225689 0.166787
H22   H     H_    0.597299 0.423697 0.244754 0.114435
C58   C     C_3   0.733888 0.430982 0.148605 -0.657157
H23   H     H_    0.600255 0.442951 0.122927 0.225869
H24   H     H_    0.802283 0.490466 0.179562 0.197944
H25   H     H_    0.833649 0.395278 0.105533 0.240672
I3    I     I_    0.194495 0.423824 0.223393 -0.517646
I4    I     I_    0.947153 0.192313 0.171824 -0.321075
O22   O     O_3   0.922153 0.273739 0.865184 -0.557575
C59   C     C_3   0.892402 0.350818 0.918690 0.086069
H26   H     H_    0.900038 0.402121 0.896343 0.129103
H27   H     H_    0.000847 0.361542 0.963037 0.136330
C60   C     C_3   0.693446 0.351539 0.950784 -0.663959
H28   H     H_    0.681842 0.304078 0.977414 0.241383
H29   H     H_    0.665761 0.412452 0.991662 0.175533
H30   H     H_    0.583503 0.339237 0.906963 0.226706
O23   O     O_3   0.660026 0.302257 0.573101 -0.560101
C61   C     C_3   0.598988 0.249334 0.503608 0.135253
H31   H     H_    0.684124 0.264496 0.461453 0.160794
H32   H     H_    0.445708 0.257172 0.491289 0.076855
C62   C     C_3   0.635232 0.160038 0.495308 -0.767511
H33   H     H_    0.595537 0.120351 0.439529 0.230286
H34   H     H_    0.789119 0.151045 0.504791 0.224762
H35   H     H_    0.546086 0.141062 0.534257 0.209238
O24   O     O_3   0.348379 0.779438 0.370163 -0.558956
C63   C     C_3   0.394581 0.859427 0.416958 0.083470
H36   H     H_    0.380103 0.860566 0.474235 0.129120
H37   H     H_    0.299694 0.908498 0.411376 0.111568
C64   C     C_3   0.602027 0.879865 0.405042 -0.694355
H38   H     H_    0.622665 0.878585 0.348011 0.231465
H39   H     H_    0.639673 0.941855 0.442776 0.181132
H40   H     H_    0.699165 0.834835 0.415904 0.222332

loop_
_geom_bond_atom_site_label_1
_geom_bond_atom_site_label_2
_ccdc_geom_bond_type
C9    C14   A    
O17   V3    S    
C26   I1    S    
C10   C17   A    
C6    C55   S    
C22   H8    S    
O2    C1    A    
O18   C55   A    
C48   H19   S    
C1    O6    A    
C57   H22   S    
C59   H26   S    
O11   C54   A    
C37   H15   S    
C51   C52   A    
C42   C49   A    
C25   C28   S    
C43   O22   S    
C14   C15   A    
C12   H4    S    
C62   H33   S    
C16   O24   S    
C9    C10   A    
C16   C17   A    
C41   C46   A    
C60   H29   S    
O5    C3    A    
C18   C19   A    
O12   C53   A    
C49   H20   S    
C40   C43   A    
V2    O10   S    
O13   V3    S    
O19   C56   A    
C31   C32   S    
C35   H14   S    
C6    C7    A    
C47   C48   A    
O14   V3    S    
C44   H17   S    
C52   O23   S    
O12   V3    S    
C28   C56   S    
O22   C59   S    
O8    V2    S    
C31   C54   S    
C53   O16   A    
C5    C6    A    
C62   H35   S    
C47   C52   A    
C44   C45   A    
O1    V2    S    
C20   H6    S    
O14   C54   A    
O7    V1    S    
C4    C19   S    
C23   C26   S    
C2    C51   S    
O13   C56   A    
C33   C36   S    
C40   C41   A    
C34   C35   S    
C39   H16   S    
O9    C4    A    
C58   H24   S    
C5    H1    S    
O4    V1    S    
C57   H21   S    
O19   V4    S    
O15   V3    S    
C29   H13   S    
C21   C24   S    
C32   O21   S    
C30   C31   S    
C48   C49   A    
C33   I3    S    
C12   C13   A    
C60   H30   S    
C50   H18   S    
O4    C2    A    
C29   C32   S    
C30   C35   S    
C13   C14   A    
C29   C30   S    
C1    C36   S    
C41   C42   A    
C18   H5    S    
C35   C36   S    
C63   H37   S    
O11   V4    S    
C64   H40   S    
C26   C27   S    
C8    C11   A    
V3    O20   S    
C58   H23   S    
C17   H7    S    
C34   I4    S    
C50   C51   A    
O23   C61   S    
O3    C4    A    
C21   C22   S    
O6    V2    S    
C11   H3    S    
O9    V2    S    
C64   H38   S    
C58   H25   S    
C63   C64   S    
C29   C36   S    
O2    V1    S    
O21   C57   S    
C23   C24   S    
C64   H39   S    
O24   C63   S    
C13   C18   A    
O17   V4    S    
C25   C26   S    
C27   C28   S    
C15   C20   A    
O1    C2    A    
C30   I2    S    
C19   C20   A    
C46   C47   A    
C7    H2    S    
O5    V1    S    
C59   H27   S    
O8    C3    A    
O15   C55   A    
C37   C42   A    
C5    C10   A    
C31   C34   S    
C38   C39   A    
C21   H9    S    
C7    C8    A    
C63   H36   S    
C33   C34   S    
C45   C46   A    
C3    C23   S    
O3    V1    S    
V1    O10   S    
V4    O20   S    
C32   C33   S    
C45   C50   A    
C24   H10   S    
C61   C62   S    
C25   H11   S    
C22   C23   S    
C22   C27   S    
O18   V4    S    
O7    V2    S    
C43   C44   A    
C59   C60   S    
C11   C12   A    
C37   C38   A    
C24   C25   S    
C27   H12   S    
C8    C9    A    
C39   C40   A    
C15   C16   A    
C62   H34   S    
C61   H31   S    
C60   H28   S    
C61   H32   S    
C38   C53   S    
C57   C58   S    
C21   C28   S    
O16   V4    S    
