data_mof_unit_4173.cif
_audit_creation_date              2012-12-11T14:56:05-0500
_audit_creation_method            fapswitch 2.2
_symmetry_space_group_name_H-M    P1
_symmetry_Int_Tables_number       1
_space_group_crystal_system       triclinic
_cell_length_a                    27.982849
_cell_length_b                    17.27954
_cell_length_c                    18.01556
_cell_angle_alpha                 90.118893
_cell_angle_beta                  138.032524
_cell_angle_gamma                 89.937199
_cell_volume                      5825.15897764

loop_
_atom_site_label
_atom_site_type_symbol
_atom_type_description
_atom_site_fract_x
_atom_site_fract_y
_atom_site_fract_z
_atom_type_partial_charge
C1    C     C_R   0.687932 0.898504 0.801762 -0.117873
C2    C     C_3   0.306337 0.709420 0.003530 -0.244799
C3    C     C_3   0.716732 0.744039 0.962978 0.273924
C4    C     C_3   0.216766 0.759100 0.962584 0.273334
C5    C     C_3   0.783042 0.241400 0.037107 0.273518
C6    C     C_3   0.825877 0.705752 0.000860 0.281909
C7    C     C_3   0.174123 0.294245 0.999136 0.281867
C8    C     C_3   0.294673 0.739348 0.069654 -0.213087
C9    C     C_3   0.705004 0.260936 0.930294 -0.213363
C10   C     C_3   0.746111 0.688042 0.892051 -0.218610
C11   C     C_3   0.253889 0.311955 0.107946 -0.218663
C12   C     C_3   0.751934 0.189195 0.107099 -0.217686
C13   C     C_3   0.264813 0.338936 0.039337 -0.236739
C14   C     C_3   0.248448 0.810536 0.893090 -0.217502
C15   C     C_3   0.204776 0.237409 0.930720 -0.214129
C16   C     C_3   0.795226 0.762581 0.069281 -0.214129
C17   C     C_3   0.315536 0.820975 0.067872 0.072936
C18   C     C_3   0.684525 0.179070 0.932156 0.072929
C19   C     C_3   0.727817 0.770566 0.895841 0.066948
C20   C     C_3   0.272182 0.229430 0.104159 0.066992
C21   C     C_3   0.771876 0.270563 0.103363 0.066606
C22   C     C_3   0.228118 0.729410 0.896750 0.066643
C23   C     C_3   0.185977 0.320375 0.932734 0.072935
C24   C     C_3   0.735190 0.661056 0.960661 -0.236727
C25   C     C_3   0.814025 0.679617 0.067264 0.072908
C26   C     C_3   0.237255 0.840739 0.960423 -0.236232
C27   C     C_3   0.762940 0.159527 0.039347 -0.236323
C28   C     C_3   0.806580 0.789356 0.001792 -0.244439
C29   C     C_3   0.193419 0.210639 0.998209 -0.244398
C30   C     C_R   0.716239 0.755227 0.622175 0.112604
C31   C     C_R   0.283772 0.244765 0.377912 0.112677
C32   C     C_R   0.386489 0.850625 0.641128 0.120821
C33   C     C_R   0.312067 0.101495 0.198240 -0.117984
C34   C     C_R   0.613512 0.149376 0.358873 0.120779
C35   C     C_R   0.113387 0.350246 0.358627 0.120080
C36   C     C_R   0.886543 0.649833 0.641260 0.119941
C37   C     C_R   0.783927 0.255170 0.378423 0.112131
C38   C     C_R   0.216074 0.744833 0.621582 0.112002
C39   C     C_R   0.261318 0.374300 0.398305 -0.189163
C40   C     C_R   0.738695 0.625701 0.601766 -0.189004
C41   C     C_R   0.606467 0.251923 0.259455 -0.184265
C42   C     C_R   0.393535 0.748079 0.740550 -0.184174
C43   C     C_R   0.893611 0.752459 0.741025 -0.184128
C44   C     C_R   0.333378 0.923659 0.183013 -0.095271
C45   C     C_R   0.106339 0.247605 0.258898 -0.184324
C46   C     C_R   0.238298 0.874288 0.600997 -0.189785
C47   C     C_R   0.761702 0.125713 0.399004 -0.189586
C48   C     C_R   0.305282 0.322389 0.411975 -0.177006
C49   C     C_R   0.694736 0.677600 0.588129 -0.176942
C50   C     C_R   0.578690 0.214730 0.289177 -0.128035
C51   C     C_R   0.421311 0.785272 0.710827 -0.128062
C52   C     C_R   0.921235 0.715406 0.710862 -0.127663
C53   C     C_R   0.078671 0.284698 0.288973 -0.127679
C54   C     C_R   0.194463 0.822369 0.587497 -0.178286
C55   C     C_R   0.666652 0.076366 0.816994 -0.095293
C56   C     C_R   0.805537 0.177632 0.412505 -0.178075
C57   C     C_R   0.212689 0.224448 0.310005 -0.241967
C58   C     C_R   0.787315 0.775552 0.690066 -0.241884
C59   C     C_R   0.666509 0.112607 0.378095 -0.243617
C60   C     C_R   0.333491 0.887394 0.621906 -0.243637
C61   C     C_R   0.833804 0.612822 0.622415 -0.243228
C62   C     C_R   0.166163 0.387228 0.377538 -0.243270
C63   C     C_R   0.287141 0.724646 0.689251 -0.241419
C64   C     C_R   0.712861 0.275357 0.310754 -0.241456
C65   C     C_R   0.169932 0.274672 0.301486 0.185063
C66   C     C_R   0.167966 0.422889 0.817411 -0.095697
C67   C     C_R   0.830057 0.725352 0.698528 0.184976
C68   C     C_R   0.697307 0.151929 0.354405 0.185461
C69   C     C_R   0.302694 0.848073 0.645597 0.185403
C70   C     C_R   0.803039 0.652075 0.646330 0.185850
C71   C     C_R   0.196953 0.347947 0.353685 0.185863
C72   C     C_R   0.329822 0.774926 0.697769 0.185151
C73   C     C_R   0.670179 0.225077 0.302235 0.185238
C74   C     C_R   0.325315 0.104653 0.404540 -0.142362
C75   C     C_R   0.674689 0.895343 0.595484 -0.142350
C76   C     C_R   0.639847 0.071121 0.507809 -0.110139
C77   C     C_R   0.832040 0.577102 0.182590 -0.095599
C78   C     C_R   0.360153 0.928878 0.492190 -0.110119
C79   C     C_R   0.860088 0.571337 0.492077 -0.109293
C80   C     C_R   0.139882 0.428691 0.507875 -0.109335
C81   C     C_R   0.174670 0.604709 0.595435 -0.143476
C82   C     C_R   0.825332 0.395293 0.404573 -0.143474
C83   C     C_R   0.442428 0.834383 0.578750 -0.118332
C84   C     C_R   0.557572 0.165617 0.421251 -0.118294
C85   C     C_R   0.591509 0.803112 0.504770 -0.119573
C86   C     C_R   0.408495 0.196883 0.495256 -0.119733
C87   C     C_R   0.908558 0.303167 0.495359 -0.121383
C88   C     C_R   0.812174 0.398708 0.197621 -0.117775
C89   C     C_R   0.091443 0.696834 0.504645 -0.121389
C90   C     C_R   0.057587 0.334161 0.421222 -0.117121
C91   C     C_R   0.942383 0.665870 0.578727 -0.117185
C92   C     C_R   0.582106 0.168115 0.726652 -0.128463
C93   C     C_R   0.417931 0.831922 0.273361 -0.128535
C94   C     C_R   0.394870 0.193732 0.286837 -0.119867
C95   C     C_R   0.605128 0.806268 0.713164 -0.119903
C96   C     C_R   0.105136 0.693636 0.713853 -0.120093
C97   C     C_R   0.894856 0.306349 0.286193 -0.120034
C98   C     C_R   0.916864 0.668409 0.272641 -0.127886
C99   C     C_R   0.187811 0.601266 0.802445 -0.118080
C100  C     C_R   0.083138 0.331586 0.727358 -0.127868
C101  C     C_R   0.675882 0.822873 0.805312 0.092027
C102  C     C_R   0.324117 0.177126 0.194691 0.092028
C103  C     C_R   0.359743 0.864034 0.170425 0.103465
C104  C     C_R   0.640316 0.136023 0.829593 0.103573
C105  C     C_R   0.142043 0.363152 0.830314 0.102561
C106  C     C_R   0.857962 0.636839 0.169686 0.102626
C107  C     C_R   0.824200 0.323129 0.193619 0.092918
C108  C     C_R   0.175778 0.676831 0.806499 0.093088
C109  C     C_R   0.337308 0.183846 0.427272 0.072584
C110  C     C_3   0.693531 0.290337 0.996853 -0.244758
C111  C     C_R   0.662699 0.816147 0.572779 0.072626
C112  C     C_R   0.603628 0.128496 0.425901 0.065498
C113  C     C_R   0.396372 0.871504 0.574099 0.065502
C114  C     C_R   0.896318 0.628862 0.574042 0.065458
C115  C     C_R   0.103630 0.371190 0.425874 0.065435
C116  C     C_R   0.162622 0.683848 0.572555 0.072498
C117  C     C_R   0.837380 0.316154 0.427453 0.072448
C118  C     C_3   0.672586 0.207869 0.997702 0.281571
C119  C     C_3   0.327666 0.791642 0.002755 0.281382
C120  C     C_3   0.283270 0.255952 0.037024 0.273925
H1    H     H_    0.739245 0.926429 0.854399 0.088798
H2    H     H_    0.083446 0.192826 0.215136 0.138636
H3    H     H_    0.217888 0.931302 0.564155 0.129694
H4    H     H_    0.782112 0.068699 0.435845 0.129687
H5    H     H_    0.281646 0.431405 0.435169 0.129370
H6    H     H_    0.718370 0.568594 0.564906 0.129385
H7    H     H_    0.583472 0.306574 0.215660 0.138477
H8    H     H_    0.416531 0.693430 0.784347 0.138519
H9    H     H_    0.273740 0.076855 0.340946 0.091754
H10   H     H_    0.726262 0.923144 0.659083 0.091728
H11   H     H_    0.679182 0.031256 0.532013 0.100807
H12   H     H_    0.260755 0.073568 0.145602 0.088890
H13   H     H_    0.320816 0.968741 0.467986 0.100790
H14   H     H_    0.820715 0.531515 0.467765 0.100535
H15   H     H_    0.179246 0.468521 0.532174 0.100538
H16   H     H_    0.226272 0.577053 0.659017 0.092071
H17   H     H_    0.773729 0.422949 0.340992 0.092041
H18   H     H_    0.478923 0.788003 0.633019 0.108771
H19   H     H_    0.521078 0.211998 0.366982 0.108771
H20   H     H_    0.566043 0.747904 0.484602 0.080774
H21   H     H_    0.433962 0.252093 0.515431 0.080779
H22   H     H_    0.934072 0.247974 0.515622 0.080754
H23   H     H_    0.285607 0.957026 0.118190 0.099133
H24   H     H_    0.065928 0.752026 0.484382 0.080763
H25   H     H_    0.021058 0.287719 0.366857 0.109667
H26   H     H_    0.978905 0.712322 0.633073 0.109828
H27   H     H_    0.552269 0.219014 0.708312 0.114747
H28   H     H_    0.447770 0.781027 0.291699 0.115000
H29   H     H_    0.419333 0.250460 0.314231 0.098018
H30   H     H_    0.580665 0.749540 0.685769 0.098010
H31   H     H_    0.081093 0.750551 0.686182 0.099088
H32   H     H_    0.918912 0.249440 0.313867 0.098855
H33   H     H_    0.947143 0.718782 0.290943 0.114233
H34   H     H_    0.714412 0.042983 0.881802 0.098995
H35   H     H_    0.052858 0.281214 0.709054 0.114238
H36   H     H_    0.313522 0.710123 0.142673 0.150917
H37   H     H_    0.685870 0.290393 0.857184 0.150762
H38   H     H_    0.724935 0.659443 0.816917 0.150602
H39   H     H_    0.275065 0.340557 0.183078 0.150588
H40   H     H_    0.772269 0.161749 0.182087 0.151225
H41   H     H_    0.228397 0.837751 0.818199 0.151369
H42   H     H_    0.184709 0.206887 0.857372 0.150391
H43   H     H_    0.815292 0.793102 0.142630 0.150410
H44   H     H_    0.665514 0.344490 0.980364 0.143201
H45   H     H_    0.216034 0.456036 0.881994 0.097766
H46   H     H_    0.334234 0.655058 0.020326 0.143200
H47   H     H_    0.294467 0.391765 0.056967 0.142705
H48   H     H_    0.705538 0.608224 0.943033 0.142733
H49   H     H_    0.208574 0.894863 0.941879 0.143331
H50   H     H_    0.791784 0.105629 0.057657 0.143214
H51   H     H_    0.835324 0.842480 0.017499 0.143540
H52   H     H_    0.164675 0.157518 0.982503 0.143581
H53   H     H_    0.806248 0.833715 0.722404 0.116299
H54   H     H_    0.193751 0.166287 0.277663 0.116318
H55   H     H_    0.308917 0.940323 0.574222 0.120582
H56   H     H_    0.783979 0.543942 0.118011 0.097815
H57   H     H_    0.691082 0.059678 0.425778 0.120596
H58   H     H_    0.190637 0.440298 0.425186 0.120491
H59   H     H_    0.809339 0.559744 0.574785 0.120508
H60   H     H_    0.693855 0.333448 0.278462 0.116711
H61   H     H_    0.306147 0.666556 0.721545 0.116789
H62   H     H_    0.641813 0.658022 0.541664 0.116089
H63   H     H_    0.358213 0.341958 0.458466 0.116075
H64   H     H_    0.465458 0.757833 0.733729 0.145634
H65   H     H_    0.534543 0.242170 0.266275 0.145642
H66   H     H_    0.034749 0.257031 0.266435 0.146410
H67   H     H_    0.760861 0.426524 0.145157 0.088427
H68   H     H_    0.965097 0.743127 0.733289 0.146633
H69   H     H_    0.858447 0.158135 0.458828 0.116429
H70   H     H_    0.141552 0.841866 0.541172 0.116490
H71   H     H_    0.239129 0.573461 0.854908 0.088526
H72   H     H_    0.916492 0.807248 0.784764 0.138749
I1    I     I_    0.584176 0.179010 0.964941 -0.387267
I2    I     I_    0.416441 0.819708 0.036134 -0.387734
I3    I     I_    0.366907 0.225322 0.058272 -0.454234
I4    I     I_    0.633096 0.774661 0.941734 -0.453986
I5    I     I_    0.131921 0.733281 0.940011 -0.457956
I6    I     I_    0.867594 0.268030 0.059237 -0.457032
I7    I     I_    0.913277 0.673139 0.032522 -0.385704
I8    I     I_    0.086722 0.326863 0.967467 -0.385838
N1    N     N_R   0.625380 0.928280 0.709340 -0.038373
N2    N     N_R   0.613900 0.929750 0.547530 -0.038196
N3    N     N_R   0.613900 0.070250 0.547530 -0.043574
N4    N     N_R   0.386100 0.929750 0.452470 -0.043566
N5    N     N_R   0.886100 0.570250 0.452470 -0.043370
N6    N     N_R   0.113900 0.429750 0.547530 -0.043366
N7    N     N_R   0.113900 0.570250 0.547530 -0.038462
N8    N     N_R   0.886100 0.429750 0.452470 -0.038470
N9    N     N_R   0.437800 0.869550 0.507970 -0.046287
N10   N     N_R   0.562200 0.130450 0.492030 -0.046279
N11   N     N_R   0.562200 0.869550 0.492030 -0.038447
N12   N     N_R   0.374620 0.071720 0.290660 -0.038375
N13   N     N_R   0.437800 0.130450 0.507970 -0.038433
N14   N     N_R   0.937800 0.369550 0.507970 -0.038457
N15   N     N_R   0.062200 0.630450 0.492030 -0.038450
N16   N     N_R   0.062200 0.369550 0.492030 -0.046197
N17   N     N_R   0.937800 0.630450 0.507970 -0.046192
N18   N     N_R   0.573690 0.128980 0.653840 -0.049096
N19   N     N_R   0.426310 0.871020 0.346160 -0.049138
N20   N     N_R   0.426310 0.128980 0.346160 -0.039472
N21   N     N_R   0.573690 0.871020 0.653840 -0.039467
N22   N     N_R   0.073690 0.628980 0.653840 -0.039912
N23   N     N_R   0.374620 0.928280 0.290660 -0.047219
N24   N     N_R   0.926310 0.371020 0.346160 -0.039875
N25   N     N_R   0.926310 0.628980 0.346160 -0.048707
N26   N     N_R   0.073690 0.371020 0.653840 -0.048710
N27   N     N_R   0.625380 0.071720 0.709340 -0.047222
N28   N     N_R   0.125380 0.428280 0.709340 -0.046714
N29   N     N_R   0.874620 0.571720 0.290660 -0.046738
N30   N     N_R   0.874620 0.428280 0.290660 -0.038585
N31   N     N_R   0.125380 0.571720 0.709340 -0.038598
N32   N     N_R   0.386100 0.070250 0.452470 -0.038186
Ni1   Ni    Ni4+2 0.616560 0.000000 0.627280 0.226313
Ni2   Ni    Ni4+2 0.383440 0.000000 0.372720 0.226357
Ni3   Ni    Ni4+2 0.116560 0.500000 0.627280 0.226146
Ni4   Ni    Ni4+2 0.883440 0.500000 0.372720 0.226144
Ni5   Ni    Ni4+2 0.497990 0.870580 0.500000 0.215840
Ni6   Ni    Ni4+2 0.502010 0.129420 0.500000 0.215878
Ni7   Ni    Ni4+2 0.997990 0.370580 0.500000 0.215801
Ni8   Ni    Ni4+2 0.002010 0.629420 0.500000 0.215825

loop_
_geom_bond_atom_site_label_1
_geom_bond_atom_site_label_2
_ccdc_geom_bond_type
C61   C70   A    
C16   C28   S    
C55   H34   S    
C80   N6    A    
C39   H5    S    
C3    C16   S    
C35   C53   A    
C34   C112  S    
C83   C113  A    
C15   H42   S    
C88   N30   A    
N1    N21   A    
N2    N11   A    
C4    C8    S    
C36   C114  S    
C93   C103  A    
C74   C109  A    
C82   N8    A    
C21   C110  S    
C76   N3    A    
C11   H39   S    
C22   C108  S    
C94   H29   S    
C7    C11   S    
C99   C108  A    
N5    N17   A    
C100  C105  A    
C95   N21   A    
C80   H15   S    
C40   C70   A    
C82   H17   S    
C7    C29   S    
C17   C26   S    
N10   Ni6   S    
C77   C106  A    
C24   H48   S    
N9    Ni5   S    
C87   C117  A    
C90   H25   S    
C6    I7    S    
C64   H60   S    
C33   N12   A    
C84   N10   A    
C43   C52   A    
C13   H47   S    
C6    C25   S    
C20   C102  S    
C40   C49   A    
C23   C105  S    
C16   C25   S    
C4    C22   S    
C15   C120  S    
C13   C23   S    
C93   H28   S    
C14   C22   S    
C55   N27   A    
C7    I8    S    
C118  I1    S    
C41   H7    S    
C46   C69   A    
N4    Ni2   S    
C5    C27   S    
C37   C56   A    
N1    Ni1   S    
C75   N2    A    
C88   H67   S    
C6    C28   S    
C84   H19   S    
N28   Ni3   S    
C10   H38   S    
N4    N9    A    
C2    C22   S    
C64   C73   A    
N11   Ni5   S    
N3    N10   A    
C35   C115  S    
C32   C113  S    
C2    H46   S    
C36   C52   A    
C75   H10   S    
C42   H8    S    
C42   C51   A    
C89   N15   A    
C98   N25   A    
C15   C23   S    
C96   C108  A    
C89   C116  A    
C45   C53   A    
C29   H52   S    
C92   H27   S    
C110  C118  S    
C3    C24   S    
C85   N11   A    
N32   Ni2   S    
N24   Ni7   S    
C44   C103  A    
C25   C106  S    
C15   C29   S    
C20   C29   S    
C16   H43   S    
C4    C26   S    
N27   Ni1   S    
C11   C20   S    
C34   C50   A    
C120  I3    S    
C12   C27   S    
N7    Ni3   S    
C33   C102  A    
C59   H57   S    
C86   C109  A    
C24   C25   S    
C26   H49   S    
C74   N32   A    
C51   H64   S    
N18   Ni6   S    
C19   C101  S    
C44   N23   A    
C88   C107  A    
C110  H44   S    
C18   C104  S    
N12   N20   A    
C10   C24   S    
C68   C73   A    
C65   C71   A    
C96   H31   S    
C41   C73   A    
C55   C104  A    
C12   H40   S    
C92   N18   A    
N21   Ni5   S    
N6    Ni3   S    
C97   C107  A    
C91   N17   A    
C69   C72   A    
C85   H20   S    
C53   H66   S    
C77   N29   A    
C32   C51   A    
C5    C9    S    
N8    Ni4   S    
N23   Ni2   S    
N24   N30   A    
C59   C68   A    
C38   C116  S    
C9    C18   S    
C28   H51   S    
N12   Ni2   S    
C38   C54   A    
C80   C115  A    
C9    H37   S    
C10   C19   S    
C76   C112  A    
C40   H6    S    
C3    C19   S    
C46   C54   A    
N7    N15   A    
C31   C109  S    
C37   C117  S    
C63   H61   S    
C95   H30   S    
C84   C112  A    
C90   N16   A    
C14   C26   S    
C100  N26   A    
C19   C28   S    
N17   Ni8   S    
C83   N9    A    
N13   N32   A    
C12   C118  S    
C100  H35   S    
C4    I5    S    
C21   C107  S    
C30   C49   A    
N22   N31   A    
N13   Ni6   S    
C77   H56   S    
C96   N22   A    
C31   C48   A    
C45   C65   A    
C34   C59   A    
C46   H3    S    
C74   H9    S    
C58   H53   S    
C94   N20   A    
C32   C60   A    
C66   C105  A    
C36   C61   A    
C1    C101  A    
C41   C50   A    
C20   C120  S    
C37   C64   A    
C47   C68   A    
C33   H12   S    
C81   H16   S    
C38   C63   A    
N6    N16   A    
C9    C110  S    
N25   Ni8   S    
C79   H14   S    
C18   C118  S    
C56   H69   S    
N8    N14   A    
N26   Ni7   S    
C54   H70   S    
C66   H45   S    
N16   Ni7   S    
C75   C111  A    
N5    Ni4   S    
C2    C8    S    
C18   C27   S    
C3    I4    S    
C57   C65   A    
C85   C111  A    
C43   H72   S    
C48   H63   S    
C99   N31   A    
C2    C119  S    
C97   N24   A    
C61   H59   S    
C5    I6    S    
N15   Ni8   S    
C45   H2    S    
N20   Ni6   S    
C89   H24   S    
C1    N1    A    
C27   H50   S    
C8    C17   S    
C98   C106  A    
C91   C114  A    
C81   N7    A    
C30   C111  S    
C93   N19   A    
C67   C70   A    
N30   Ni4   S    
C119  I2    S    
N29   Ni4   S    
C90   C115  A    
C62   H58   S    
C17   C103  S    
C86   N13   A    
C79   N5    A    
N2    Ni1   S    
C99   H71   S    
C11   C13   S    
C31   C57   A    
C47   H4    S    
C49   H62   S    
C60   C69   A    
C14   H41   S    
C44   H23   S    
C7    C23   S    
N19   Ni5   S    
C30   C58   A    
C81   C116  A    
N22   Ni8   S    
C76   H11   S    
C87   N14   A    
C62   C71   A    
N14   Ni7   S    
C35   C62   A    
C91   H26   S    
C87   H22   S    
C8    H36   S    
C78   H13   S    
C1    H1    S    
C98   H33   S    
C6    C10   S    
C17   C119  S    
N19   N23   A    
C57   H54   S    
C12   C21   S    
N3    Ni1   S    
C58   C67   A    
C78   N4    A    
C5    C21   S    
C63   C72   A    
C94   C102  A    
C43   C67   A    
C14   C119  S    
C92   C104  A    
C79   C114  A    
C66   N28   A    
C60   H55   S    
C39   C71   A    
C47   C56   A    
C97   H32   S    
N31   Ni3   S    
N18   N27   A    
C52   H68   S    
C82   C117  A    
C42   C72   A    
C13   C120  S    
C50   H65   S    
N25   N29   A    
C78   C113  A    
C83   H18   S    
N26   N28   A    
C95   C101  A    
C86   H21   S    
C39   C48   A    
