data_mof_unit_1661.cif
_audit_creation_date              2012-10-26T19:41:30-0400
_audit_creation_method            fapswitch 2.2
_symmetry_space_group_name_H-M    P1
_symmetry_Int_Tables_number       1
_space_group_crystal_system       triclinic
_cell_length_a                    17.330827
_cell_length_b                    11.081639
_cell_length_c                    9.978949
_cell_angle_alpha                 110.663806
_cell_angle_beta                  94.848026
_cell_angle_gamma                 93.946149
_cell_volume                      1776.7585826

loop_
_atom_site_label
_atom_site_type_symbol
_atom_type_description
_atom_site_fract_x
_atom_site_fract_y
_atom_site_fract_z
_atom_type_partial_charge
C1    C     C_R   0.495496 0.255064 0.442355 0.572858
C2    C     C_R   0.647826 0.496882 0.481124 0.540010
C3    C     C_R   0.269709 0.521652 0.530432 -0.025879
C4    C     C_R   0.731306 0.495233 0.470084 -0.011100
C5    C     C_R   0.219983 0.508253 0.406668 -0.152221
C6    C     C_R   0.782410 0.503008 0.589699 -0.127993
C7    C     C_R   0.142258 0.527050 0.415796 -0.161717
C8    C     C_R   0.861527 0.502323 0.580257 -0.160467
C9    C     C_R   0.111658 0.554536 0.547976 0.049918
C10   C     C_R   0.891200 0.496624 0.451905 0.061808
C11   C     C_R   0.161336 0.570039 0.673428 0.277951
C12   C     C_R   0.507770 0.744476 0.557644 0.538394
C13   C     C_R   0.840988 0.489297 0.329958 0.289410
C14   C     C_R   0.240575 0.556463 0.664154 -0.101921
C15   C     C_R   0.760224 0.485673 0.340002 -0.126569
C16   C     C_2   0.027838 0.563724 0.555051 -0.134864
C17   C     C_2   0.975049 0.494087 0.443176 -0.117896
C18   C     C_3   0.124877 0.495521 0.846358 -0.016218
C19   C     C_3   0.110101 0.538426 0.003646 -0.368535
C20   C     C_3   0.829094 0.531353 0.114708 -0.006374
C21   C     C_3   0.880369 0.561847 0.012039 -0.366401
C22   C     C_3   0.356933 0.876135 0.451172 -0.011827
C23   C     C_2   0.485762 0.117002 0.416384 -0.042980
C24   C     C_3   0.292712 0.796941 0.332975 -0.350462
C25   C     C_3   0.557955 0.183592 0.758861 -0.008958
C26   C     C_3   0.630861 0.204784 0.864159 -0.380846
C27   C     C_2   0.405527 0.449546 0.857805 0.256721
C28   C     C_2   0.547071 0.644370 0.178581 0.299658
C29   C     C_2   0.614568 0.581278 0.913934 0.421398
C30   C     C_2   0.430006 0.319662 0.055699 0.382396
C31   C     C_2   0.523167 0.881451 0.586332 -0.085074
C32   C     C_2   0.514425 0.071260 0.516871 0.252362
C33   C     C_2   0.487467 0.937106 0.501992 0.241536
C34   C     C_2   0.499892 0.523103 0.083967 0.016432
C35   C     C_2   0.485092 0.505822 0.926010 0.062164
C36   C     C_R   0.352351 0.506467 0.519267 0.554838
Cu1   Cu    Cu3+1 0.513640 0.521550 0.643210 1.064961
Cu2   Cu    Cu3+1 0.486360 0.478450 0.356790 1.013292
H1    H     H_    0.241108 0.484817 0.302286 0.152711
H2    H     H_    0.446508 0.055831 0.322549 0.132283
H3    H     H_    0.178003 0.443013 0.835284 0.134103
H4    H     H_    0.074233 0.427819 0.778851 0.137983
H5    H     H_    0.058599 0.593790 0.020421 0.162392
H6    H     H_    0.099237 0.452215 0.034317 0.106778
H7    H     H_    0.161605 0.601029 0.073765 0.150891
H8    H     H_    0.805928 0.623130 0.178597 0.137992
H9    H     H_    0.780470 0.458042 0.048978 0.126360
H10   H     H_    0.905646 0.473356 0.946819 0.154212
H11   H     H_    0.845241 0.597800 0.938464 0.117286
H12   H     H_    0.761275 0.507854 0.690355 0.159504
H13   H     H_    0.928072 0.638208 0.074396 0.156184
H14   H     H_    0.343511 0.978875 0.492715 0.132137
H15   H     H_    0.357301 0.836884 0.539785 0.129448
H16   H     H_    0.305664 0.694525 0.287392 0.171404
H17   H     H_    0.236080 0.799980 0.377870 0.103818
H18   H     H_    0.288397 0.837051 0.245451 0.168789
H19   H     H_    0.513661 0.116346 0.778977 0.102792
H20   H     H_    0.534551 0.277868 0.784029 0.186435
H21   H     H_    0.615869 0.242620 0.976587 0.099376
H22   H     H_    0.656715 0.112135 0.845388 0.173190
H23   H     H_    0.719597 0.475416 0.247317 0.098097
H24   H     H_    0.674418 0.276436 0.850090 0.152281
H25   H     H_    0.356203 0.492022 0.909428 0.088123
H26   H     H_    0.592329 0.643514 0.259531 0.124184
H27   H     H_    0.640333 0.530891 0.979445 -0.008456
H28   H     H_    0.447408 0.267142 0.951296 0.069586
H29   H     H_    0.278822 0.573462 0.761755 0.132814
H30   H     H_    0.993039 0.432106 0.342298 0.163806
H31   H     H_    0.009046 0.624362 0.655966 0.165250
H32   H     H_    0.899418 0.504046 0.673083 0.111399
H33   H     H_    0.106490 0.520518 0.318762 0.119005
H34   H     H_    0.568971 0.933700 0.672086 0.101374
N1    N     N_2   0.465840 0.446060 0.141630 -0.279645
N2    N     N_2   0.534160 0.553940 0.858370 -0.223062
O1    O     O_R   0.507280 0.332200 0.576490 -0.455380
O2    O     O_3   0.873618 0.480523 0.203867 -0.570124
O3    O     O_3   0.428767 0.866394 0.393236 -0.526942
O4    O     O_3   0.578057 0.140603 0.616058 -0.557825
O5    O     O_2   0.394289 0.348506 0.753342 -0.531021
O6    O     O_2   0.536828 0.747156 0.163874 -0.468642
O7    O     O_2   0.655605 0.662655 0.888488 -0.482270
O8    O     O_2   0.379413 0.267620 0.100995 -0.474268
O9    O     O_R   0.492720 0.667800 0.423510 -0.467283
O10   O     O_R   0.484240 0.295800 0.334620 -0.471368
O11   O     O_R   0.515760 0.704200 0.665380 -0.483110
O12   O     O_R   0.399260 0.520290 0.634950 -0.483503
O13   O     O_R   0.600740 0.479710 0.365050 -0.560314
O14   O     O_R   0.376220 0.483890 0.393080 -0.476513
O15   O     O_R   0.623780 0.516110 0.606920 -0.471962
O16   O     O_3   0.133616 0.605568 0.806458 -0.568104

loop_
_geom_bond_atom_site_label_1
_geom_bond_atom_site_label_2
_ccdc_geom_bond_type
Cu1   N2    S    
C35   N2    D    
Cu2   O9    S    
C21   H11   S    
C36   O14   A    
C24   H17   S    
C12   O11   A    
Cu1   O11   S    
C9    C16   S    
C18   C19   S    
C27   O5    D    
C18   H4    S    
C7    H33   S    
C11   C14   A    
C10   C17   S    
C24   H16   S    
C23   H2    S    
C20   O2    S    
C34   C35   S    
C16   C17   D    
C14   H29   S    
C31   C33   D    
C26   H21   S    
C21   H10   S    
Cu1   O1    S    
C28   C34   S    
C25   H19   S    
C19   H5    S    
C22   H15   S    
C25   O4    S    
C18   O16   S    
Cu1   O12   S    
C4    C6    A    
C18   H3    S    
C5    C7    A    
C30   N1    S    
C6    C8    A    
C29   N2    S    
C36   O12   A    
C25   C26   S    
C12   O9    A    
Cu2   O14   S    
C1    O10   A    
C1    O1    A    
C30   O8    D    
C2    O15   A    
C2    C4    S    
C29   O7    D    
Cu1   Cu2   S    
C13   O2    S    
C15   H23   S    
C2    O13   A    
C6    H12   S    
C9    C11   A    
C30   H28   S    
C3    C14   A    
C27   H25   S    
C29   H27   S    
C28   H26   S    
C31   H34   S    
C1    C23   S    
C13   C15   A    
C12   C31   S    
C22   C24   S    
C25   H20   S    
C21   H13   S    
C19   H6    S    
C22   H14   S    
C7    C9    A    
C17   H30   S    
Cu2   O10   S    
C16   H31   S    
C22   O3    S    
C3    C5    A    
C10   C13   A    
C19   H7    S    
C24   H18   S    
C8    H32   S    
Cu1   O15   S    
Cu2   O13   S    
C27   C35   S    
C23   C32   D    
C4    C15   A    
C5    H1    S    
C26   H24   S    
C32   C33   S    
C11   O16   S    
C33   O3    S    
C3    C36   S    
C28   O6    D    
C20   H9    S    
C34   N1    D    
C32   O4    S    
C20   C21   S    
C8    C10   A    
C26   H22   S    
C20   H8    S    
Cu2   N1    S    
