data_mof_unit_3078.cif
_audit_creation_date              2012-10-26T20:03:41-0400
_audit_creation_method            fapswitch 2.2
_symmetry_space_group_name_H-M    P1
_symmetry_Int_Tables_number       1
_space_group_crystal_system       triclinic
_cell_length_a                    12.455797
_cell_length_b                    13.200102
_cell_length_c                    15.823504
_cell_angle_alpha                 76.130246
_cell_angle_beta                  101.435518
_cell_angle_gamma                 116.858607
_cell_volume                      2241.14668199

loop_
_atom_site_label
_atom_site_type_symbol
_atom_type_description
_atom_site_fract_x
_atom_site_fract_y
_atom_site_fract_z
_atom_type_partial_charge
C1    C     C_R   0.855098 0.286551 0.506173 0.568814
C2    C     C_R   0.227572 0.836473 0.482489 -0.001078
C3    C     C_R   0.814180 0.081823 0.559410 -0.116025
C4    C     C_R   0.000383 0.500059 0.659841 0.565530
C5    C     C_R   0.733445 0.969385 0.586945 -0.128077
C6    C     C_R   0.609694 0.936165 0.567172 -0.112048
C7    C     C_R   0.563709 0.012762 0.512146 0.004078
C8    C     C_R   0.647430 0.124832 0.477893 0.009296
C9    C     C_R   0.437554 0.981268 0.489075 -0.006241
C10   C     C_R   0.396980 0.064893 0.439576 0.065974
C11   C     C_R   0.480870 0.171860 0.400988 0.099701
C12   C     C_3   0.001502 0.499428 0.917270 0.048163
C13   C     C_R   0.603605 0.194296 0.411637 0.102540
C14   C     C_R   0.350567 0.867562 0.509845 -0.129053
C15   C     C_R   0.187889 0.921715 0.442188 -0.144120
C16   C     C_R   0.144768 0.713556 0.490204 0.532090
C17   C     C_R   0.772343 0.162652 0.509938 0.006328
C18   C     C_R   0.326187 0.303092 0.618394 -0.120448
C19   C     C_R   0.765206 0.654006 0.387521 0.050751
C20   C     C_R   0.671362 0.688219 0.362127 -0.151882
C21   C     C_R   0.564073 0.627368 0.401521 -0.131113
C22   C     C_R   0.548005 0.529923 0.467075 -0.030639
C23   C     C_3   0.102868 0.591727 0.025414 -0.130550
C24   C     C_R   0.646981 0.496443 0.492244 0.208756
C25   C     C_R   0.438473 0.466438 0.510337 -0.020305
C26   C     C_R   0.424380 0.363846 0.569416 -0.002269
C27   C     C_R   0.513231 0.325974 0.586907 -0.150973
C28   C     C_R   0.001686 0.502853 0.339961 0.561455
C29   C     C_R   0.626577 0.395385 0.559351 0.126463
C30   C     C_R   0.341847 0.499530 0.499665 0.035194
C31   C     C_R   0.240332 0.343804 0.610647 0.240895
C32   C     C_3   0.001089 0.403319 0.048837 0.123402
C33   C     C_3   0.901495 0.411522 0.975091 -0.096681
C34   C     C_3   0.002438 0.503541 0.082870 0.030431
C35   C     C_1   0.000843 0.499578 0.749763 -0.006891
C36   C     C_1   0.002529 0.504603 0.249984 0.021363
C37   C     C_3   0.101123 0.490757 0.989917 -0.105904
C38   C     C_3   0.002890 0.597621 0.952661 0.114722
C39   C     C_3   0.902502 0.512212 0.010473 -0.082726
C40   C     C_1   0.001120 0.499288 0.825502 -0.023624
C41   C     C_1   0.002711 0.504794 0.174350 -0.007197
C42   C     C_R   0.271948 0.035373 0.421303 -0.100542
Cu1   Cu    Cu3+1 0.098270 0.475420 0.519690 0.993037
Cu2   Cu    Cu3+1 0.901730 0.524580 0.480310 0.987774
H1    H     H_    0.819757 0.337269 0.953713 0.131960
H2    H     H_    0.494255 0.657491 0.378807 0.111052
H3    H     H_    0.681884 0.762588 0.311440 0.123467
H4    H     H_    0.822279 0.523029 0.019302 0.133619
H5    H     H_    0.184230 0.666700 0.046198 0.117539
H6    H     H_    0.181703 0.480865 0.980625 0.138789
H7    H     H_    0.092743 0.899690 0.422174 0.134179
H8    H     H_    0.238589 0.098233 0.385732 0.171517
H9    H     H_    0.721959 0.382649 0.676710 0.214160
H10   H     H_    0.695414 0.280042 0.619587 0.215178
H11   H     H_    0.008148 0.756287 0.940304 0.235427
H12   H     H_    0.376910 0.799587 0.542324 0.127708
H13   H     H_    0.083063 0.745668 0.868090 0.233622
H14   H     H_    0.491581 0.333862 0.362678 0.254016
H15   H     H_    0.451311 0.257625 0.279998 0.267205
H16   H     H_    0.909162 0.106708 0.581053 0.164286
H17   H     H_    0.553119 0.850222 0.596907 0.108674
H18   H     H_    0.766770 0.908934 0.627814 0.134532
H19   H     H_    0.501129 0.248092 0.634617 0.109344
H20   H     H_    0.319127 0.226679 0.666170 0.119794
H21   H     H_    0.341157 0.573515 0.452830 0.118796
H22   H     H_    0.847867 0.702159 0.356208 0.129945
I1    I     I_    0.703348 0.294638 0.302714 -0.359288
I2    I     I_    0.108954 0.253696 0.701200 -0.366475
I3    I     I_    0.999786 0.246827 0.127448 -0.357237
N1    N     N_R   0.246280 0.438200 0.549540 -0.228480
N2    N     N_R   0.754330 0.561180 0.450980 -0.219234
N3    N     N_3   0.718540 0.368050 0.613813 -0.532456
N4    N     N_3   0.003068 0.703668 0.898339 -0.612540
N5    N     N_3   0.439461 0.252826 0.344598 -0.629529
O1    O     O_R   0.972510 0.318130 0.524770 -0.477223
O2    O     O_R   0.806530 0.359650 0.491510 -0.460888
O3    O     O_R   0.082970 0.479240 0.637550 -0.466077
O4    O     O_R   0.916990 0.520750 0.604290 -0.466216
O5    O     O_R   0.193470 0.640350 0.508490 -0.520123
O6    O     O_R   0.027490 0.681870 0.475230 -0.517153
O7    O     O_R   0.083010 0.479250 0.395710 -0.496071
O8    O     O_R   0.917030 0.520760 0.362450 -0.484191

loop_
_geom_bond_atom_site_label_1
_geom_bond_atom_site_label_2
_ccdc_geom_bond_type
C14   H12   S    
C8    C13   A    
C10   C42   A    
C33   H1    S    
C19   N2    A    
C19   C20   A    
C18   C26   A    
Cu1   Cu2   S    
C7    C8    A    
C26   C27   A    
C33   C39   S    
C19   H22   S    
C6    H17   S    
Cu2   O8    S    
C38   C39   S    
C23   H5    S    
C27   C29   A    
Cu1   O5    S    
Cu2   N2    S    
H13   N4    S    
C12   C37   S    
Cu2   O2    S    
C24   C29   A    
C31   N1    A    
C22   C25   A    
C15   H7    S    
C2    C16   S    
C9    C10   A    
C29   N3    S    
C3    H16   S    
C4    C35   S    
C21   C22   A    
C36   C41   T    
C34   C41   S    
C30   N1    A    
Cu1   O1    S    
C31   I2    S    
C28   O8    A    
C34   C39   S    
C1    O1    A    
Cu2   O6    S    
C25   C26   A    
C23   C37   S    
C16   O6    A    
C32   C34   S    
C12   C40   S    
C9    C14   A    
C4    O4    A    
C23   C34   S    
C32   C37   S    
C2    C15   A    
H15   N5    S    
C6    C7    A    
C27   H19   S    
Cu1   N1    S    
Cu1   O7    S    
C22   C24   A    
H14   N5    S    
C21   H2    S    
C13   I1    S    
C25   C30   A    
C7    C9    A    
C28   O7    A    
C1    O2    A    
C15   C42   A    
C3    C5    A    
C11   N5    S    
C32   I3    S    
Cu1   O3    S    
C23   C38   S    
C1    C17   S    
C8    C17   A    
C16   O5    A    
C32   C33   S    
Cu2   O4    S    
C35   C40   T    
C4    O3    A    
C37   H6    S    
C11   C13   A    
C18   H20   S    
C5    C6    A    
C5    H18   S    
C3    C17   A    
C12   C38   S    
C2    C14   A    
C30   H21   S    
C10   C11   A    
H11   N4    S    
H10   N3    S    
C20   C21   A    
C28   C36   S    
C18   C31   A    
C12   C33   S    
H9    N3    S    
C20   H3    S    
C24   N2    A    
C42   H8    S    
C39   H4    S    
C38   N4    S    
