data_mof_unit_2074.cif
_audit_creation_date              2012-12-10T18:31:58-0500
_audit_creation_method            fapswitch 2.2
_symmetry_space_group_name_H-M    P1
_symmetry_Int_Tables_number       1
_space_group_crystal_system       triclinic
_cell_length_a                    10.626484
_cell_length_b                    14.976137
_cell_length_c                    15.608289
_cell_angle_alpha                 81.417338
_cell_angle_beta                  90.749896
_cell_angle_gamma                 104.812107
_cell_volume                      2373.70862104

loop_
_atom_site_label
_atom_site_type_symbol
_atom_type_description
_atom_site_fract_x
_atom_site_fract_y
_atom_site_fract_z
_atom_type_partial_charge
C1    C     C_R   0.478760 0.441208 0.661834 0.879084
C2    C     C_R   0.471250 0.439392 0.900931 0.055475
C3    C     C_R   0.440136 0.342032 0.934153 0.061993
C4    C     C_R   0.742412 0.501921 0.496181 0.872011
C5    C     C_R   0.507169 0.507850 0.956581 0.085724
C6    C     C_R   0.488042 0.480197 0.046671 0.056116
C7    C     C_R   0.443267 0.384019 0.079209 -0.286643
C8    C     C_R   0.419552 0.315496 0.024908 -0.019220
C9    C     C_R   0.570341 0.602476 0.924840 -0.231437
C10   C     C_R   0.616289 0.666982 0.980323 -0.255328
C11   C     C_R   0.592944 0.641372 0.068839 0.179962
C12   C     C_3   0.121538 0.499235 0.494407 0.160785
C13   C     C_R   0.520565 0.549548 0.101829 0.110539
C14   C     C_R   0.642484 0.705927 0.125221 -0.223174
C15   C     C_R   0.618770 0.680091 0.214181 -0.147376
C16   C     C_R   0.518942 0.558385 0.338285 0.892254
C17   C     C_R   0.484712 0.529880 0.189428 -0.266267
C18   C     C_R   0.683747 0.849627 0.636840 -0.143467
C19   C     C_R   0.674768 0.765112 0.604557 0.070354
C20   C     C_R   0.495110 0.786456 0.519227 -0.076736
C21   C     C_R   0.510623 0.877481 0.540113 -0.040226
C22   C     C_R   0.592046 0.901243 0.610683 0.049183
C23   C     C_3   0.042556 0.419136 0.447594 -0.403200
C24   C     C_R   0.447058 0.944821 0.496223 0.030809
C25   C     C_R   0.462597 0.031030 0.529438 0.050135
C26   C     C_R   0.518255 0.041006 0.610352 -0.275277
C27   C     C_R   0.580779 0.976935 0.651932 0.000429
C28   C     C_R   0.258205 0.499825 0.497368 0.831535
C29   C     C_R   0.373478 0.933753 0.419160 -0.033164
C30   C     C_R   0.309224 0.001297 0.384712 -0.260977
C31   C     C_R   0.340037 0.088853 0.410388 0.154482
C32   C     C_R   0.421496 0.105876 0.481119 0.006805
C33   C     C_R   0.297977 0.161617 0.361741 -0.314776
C34   C     C_3   0.106777 0.593580 0.444672 -0.416828
C35   C     C_R   0.342480 0.251479 0.381554 0.015057
C36   C     C_R   0.464729 0.198990 0.497666 -0.071556
C37   C     C_3   0.923535 0.484385 0.586976 -0.460968
C38   C     C_3   0.068204 0.486164 0.588296 -0.406081
C39   C     C_3   0.899066 0.419801 0.446957 -0.355620
C40   C     C_3   0.963087 0.595396 0.444001 -0.033001
C41   C     C_3   0.879163 0.501339 0.492739 0.133766
C42   C     C_R   0.361338 0.218626 0.066508 0.152390
C43   C     C_R   0.435179 0.170445 0.122001 -0.129636
C44   C     C_R   0.380329 0.078314 0.160251 -0.120917
C45   C     C_R   0.461901 0.404428 0.754188 -0.098885
C46   C     C_R   0.250952 0.034473 0.144935 -0.111190
C47   C     C_R   0.175568 0.083210 0.092212 -0.130847
C48   C     C_R   0.230231 0.175259 0.053323 -0.128652
C49   C     C_R   0.620254 0.986197 0.742412 0.142512
C50   C     C_R   0.711277 0.066731 0.761002 -0.131438
C51   C     C_R   0.749189 0.074383 0.846292 -0.089646
C52   C     C_R   0.694705 0.002711 0.913670 -0.078996
C53   C     C_R   0.601698 0.923458 0.895942 -0.131168
C54   C     C_R   0.564490 0.915036 0.810635 -0.136192
C55   C     C_R   0.800271 0.890360 0.686198 0.140268
C56   C     C_R   0.537704 0.592489 0.246014 -0.042709
C57   C     C_R   0.818612 0.849420 0.770875 -0.104580
C58   C     C_R   0.929015 0.887486 0.815980 -0.121303
C59   C     C_R   0.022186 0.966410 0.776780 -0.101269
C60   C     C_R   0.004968 0.007405 0.692425 -0.140097
C61   C     C_R   0.894437 0.969647 0.647196 -0.158449
C62   C     C_R   0.780389 0.717904 0.625006 0.198685
C63   C     C_R   0.770548 0.653155 0.700888 -0.151172
C64   C     C_R   0.882394 0.635634 0.740564 -0.191806
C65   C     C_R   0.005205 0.680180 0.702663 -0.117849
C66   C     C_R   0.015761 0.740762 0.624310 -0.147229
C67   C     C_R   0.433530 0.277386 0.874141 0.154094
C68   C     C_R   0.904015 0.760001 0.585856 -0.173890
C69   C     C_R   0.386109 0.871037 0.357226 0.100894
C70   C     C_R   0.502865 0.890748 0.308816 -0.150218
C71   C     C_R   0.506247 0.852480 0.232914 -0.149638
C72   C     C_R   0.394938 0.791050 0.206859 -0.091374
C73   C     C_R   0.279760 0.768296 0.256469 -0.143644
C74   C     C_R   0.274497 0.809219 0.330719 -0.195793
C75   C     C_R   0.446533 0.310030 0.785234 -0.226796
C76   C     C_R   0.467050 0.466865 0.811993 -0.276013
H1    H     H_    0.865404 0.415772 0.621025 0.171539
H2    H     H_    0.906190 0.538313 0.622473 0.208345
H3    H     H_    0.430677 0.359246 0.147896 0.151581
H4    H     H_    0.593326 0.627921 0.857560 0.133030
H5    H     H_    0.701899 0.775225 0.100730 0.131654
H6    H     H_    0.531689 0.218589 0.548292 0.121952
H7    H     H_    0.309886 0.308196 0.344823 0.126727
H8    H     H_    0.249629 0.990625 0.328392 0.153596
H9    H     H_    0.418221 0.756504 0.478642 0.159613
H10   H     H_    0.122436 0.544222 0.622129 0.179875
H11   H     H_    0.510187 0.097720 0.643730 0.151444
H12   H     H_    0.147010 0.603372 0.377589 0.186177
H13   H     H_    0.234271 0.149642 0.307513 0.154579
H14   H     H_    0.080929 0.419660 0.625383 0.166018
H15   H     H_    0.841418 0.351117 0.481214 0.177514
H16   H     H_    0.051642 0.350146 0.481276 0.183047
H17   H     H_    0.952742 0.653422 0.477314 0.164172
H18   H     H_    0.163019 0.652961 0.476108 0.166675
H19   H     H_    0.535618 0.203600 0.134100 0.133710
H20   H     H_    0.438294 0.041020 0.201672 0.149591
H21   H     H_    0.208925 0.962926 0.174275 0.140119
H22   H     H_    0.075088 0.049481 0.081010 0.125550
H23   H     H_    0.865199 0.426377 0.379162 0.204374
H24   H     H_    0.171378 0.212259 0.012053 0.127390
H25   H     H_    0.754436 0.122576 0.709301 0.116851
H26   H     H_    0.820620 0.135965 0.860183 0.124943
H27   H     H_    0.723826 0.008886 0.979683 0.117039
H28   H     H_    0.558573 0.868524 0.948310 0.127932
H29   H     H_    0.492966 0.853010 0.797608 0.125341
H30   H     H_    0.746644 0.788787 0.802030 0.110515
H31   H     H_    0.942156 0.855882 0.881376 0.128350
H32   H     H_    0.107663 0.995835 0.811770 0.153167
H33   H     H_    0.077272 0.068450 0.662081 0.137110
H34   H     H_    0.080259 0.427883 0.379803 0.175234
H35   H     H_    0.882230 0.001825 0.581788 0.125868
H36   H     H_    0.677424 0.621958 0.732646 0.132333
H37   H     H_    0.873845 0.588087 0.800901 0.150106
H38   H     H_    0.091806 0.666636 0.733260 0.131036
H39   H     H_    0.110715 0.774893 0.594614 0.136992
H40   H     H_    0.914531 0.812409 0.528681 0.127906
H41   H     H_    0.588360 0.941180 0.326224 0.127161
H42   H     H_    0.594714 0.871960 0.193407 0.123231
H43   H     H_    0.397556 0.761749 0.147785 0.139016
H44   H     H_    0.193412 0.721704 0.235473 0.166459
H45   H     H_    0.415720 0.465386 0.215370 0.144599
H46   H     H_    0.182344 0.796500 0.365195 0.150760
H47   H     H_    0.663814 0.727971 0.257941 0.176295
H48   H     H_    0.670323 0.737169 0.953822 0.139314
H49   H     H_    0.445644 0.261426 0.740162 0.175631
H50   H     H_    0.466490 0.537775 0.786597 0.157445
I1    I     I_    0.428373 0.132614 0.902885 -0.456854
I2    I     I_    0.903375 0.629528 0.313167 -0.513637
N1    N     N_R   0.573860 0.731700 0.552730 -0.121773
N2    N     N_R   0.426060 0.268290 0.447230 -0.098020
O1    O     O_R   0.462770 0.383110 0.605620 -0.618630
O2    O     O_R   0.510160 0.531900 0.639510 -0.625278
O3    O     O_R   0.661510 0.425600 0.483070 -0.624440
O4    O     O_R   0.708900 0.574390 0.516960 -0.610475
O5    O     O_R   0.489840 0.468100 0.360490 -0.623163
O6    O     O_R   0.537230 0.616890 0.394380 -0.602890
O7    O     O_R   0.291100 0.425610 0.483040 -0.630480
O8    O     O_R   0.338490 0.574400 0.516930 -0.633485
Zn1   Zn    Zn3+2 0.468350 0.400660 0.477370 0.933596
Zn2   Zn    Zn3+2 0.531650 0.599340 0.522630 0.944002

loop_
_geom_bond_atom_site_label_1
_geom_bond_atom_site_label_2
_ccdc_geom_bond_type
C19   N1    A    
C66   C68   A    
C52   H27   S    
C76   H50   S    
C73   C74   A    
C20   N1    A    
O6    Zn2   S    
C1    O2    A    
C7    C8    A    
C39   C41   S    
C53   C54   A    
C51   H26   S    
O5    Zn1   S    
O7    Zn1   S    
C12   C23   S    
C26   C27   A    
C29   C30   A    
C47   H22   S    
C15   H47   S    
C12   C28   S    
C45   C76   A    
C34   C40   S    
C32   C36   A    
C4    O4    A    
C37   C38   S    
C8    C42   S    
C18   C19   A    
C36   N2    A    
O4    Zn2   S    
C30   C31   A    
C11   C14   A    
C4    C41   S    
C53   H28   S    
C49   C54   A    
C40   I2    S    
C58   H31   S    
C65   H38   S    
C63   H36   S    
C49   C50   A    
C24   C29   A    
C60   H33   S    
C31   C32   A    
C36   H6    S    
C26   H11   S    
C43   H19   S    
C31   C33   A    
C70   C71   A    
C9    C10   A    
C40   H17   S    
C54   H29   S    
C25   C32   A    
C57   H30   S    
C59   C60   A    
C73   H44   S    
C21   C22   A    
C30   H8    S    
N2    Zn1   S    
C39   H15   S    
C44   C46   A    
C29   C69   S    
C70   H41   S    
C48   H24   S    
C66   H39   S    
C51   C52   A    
C28   O8    A    
C24   C25   A    
C3    C8    A    
C35   H7    S    
C42   C48   A    
C25   C26   A    
C37   H1    S    
C60   C61   A    
C75   H49   S    
C9    H4    S    
C43   C44   A    
C16   C56   S    
C5    C9    A    
C62   C63   A    
C44   H20   S    
C33   H13   S    
C39   H23   S    
C47   C48   A    
C35   N2    A    
C20   H9    S    
C14   C15   A    
C50   C51   A    
C69   C74   A    
C34   H12   S    
C17   C56   A    
O8    Zn2   S    
C18   C55   S    
C68   H40   S    
C17   H45   S    
C40   C41   S    
C74   H46   S    
C46   H21   S    
C38   H10   S    
O3    Zn1   S    
C22   C27   A    
C55   C57   A    
C67   I1    S    
C2    C5    A    
C67   C75   A    
C42   C43   A    
C12   C34   S    
C16   O6    A    
C12   C38   S    
C2    C76   A    
C52   C53   A    
C7    H3    S    
C23   H34   S    
C46   C47   A    
C64   H37   S    
C71   H42   S    
C18   C22   A    
C3    C67   A    
C28   O7    A    
C34   H18   S    
C72   C73   A    
C1    O1    A    
C6    C7    A    
C62   C68   A    
O2    Zn2   S    
C37   H2    S    
C38   H14   S    
C10   H48   S    
C59   H32   S    
C13   C17   A    
C45   C75   A    
C15   C56   A    
C2    C3    A    
C58   C59   A    
C71   C72   A    
C64   C65   A    
C6    C13   A    
C11   C13   A    
C1    C45   S    
C57   C58   A    
C5    C6    A    
N1    Zn2   S    
C23   C39   S    
C55   C61   A    
C72   H43   S    
C33   C35   A    
C37   C41   S    
C69   C70   A    
O1    Zn1   S    
C10   C11   A    
C63   C64   A    
C20   C21   A    
C50   H25   S    
C65   C66   A    
C21   C24   A    
C23   H16   S    
C19   C62   S    
C14   H5    S    
C16   O5    A    
C27   C49   S    
C4    O3    A    
C61   H35   S    
