data_mof_unit_4899.cif
_audit_creation_date              2013-03-05T16:12:53-0500
_audit_creation_method            fapswitch 2.2
_symmetry_space_group_name_H-M    P1
_symmetry_Int_Tables_number       1
_space_group_crystal_system       triclinic
_cell_length_a                    10.756894
_cell_length_b                    9.823811
_cell_length_c                    27.722682
_cell_angle_alpha                 89.933877
_cell_angle_beta                  90.362141
_cell_angle_gamma                 89.847873
_cell_volume                      2929.48735264

loop_
_atom_site_label
_atom_site_type_symbol
_atom_site_description
_atom_site_fract_x
_atom_site_fract_y
_atom_site_fract_z
_atom_type_partial_charge
O1    O     O_R   0.316770 0.614620 0.500000 -0.590968
O2    O     O_R   0.683230 0.385380 0.500000 -0.591335
O3    O     O_R   0.683230 0.614620 0.500000 -0.595493
O4    O     O_R   0.316770 0.385380 0.500000 -0.580085
C1    C     C_R   0.260327 0.500039 0.499827 0.950500
C2    C     C_R   0.740460 0.499884 0.499002 0.975291
O5    O     O_R   0.500030 0.614650 0.428760 -0.640788
O6    O     O_R   0.499970 0.385350 0.571240 -0.634699
O7    O     O_R   0.499970 0.614650 0.571240 -0.634446
O8    O     O_R   0.500030 0.385350 0.428760 -0.632640
C3    C     C_R   0.499447 0.500052 0.405992 0.842449
C4    C     C_R   0.498481 0.499984 0.593970 0.843472
Zn1   Zn    Zn3+2 0.500000 0.653120 0.500000 0.953641
Zn2   Zn    Zn3+2 0.500000 0.346880 0.500000 0.964618
C5    C     C_R   0.375236 0.520350 0.177869 0.501856
C6    C     C_R   0.589061 0.498986 0.821977 0.503570
O9    O     O_2   0.269657 0.539441 0.203080 -0.559439
O10   O     O_2   0.696353 0.495382 0.796980 -0.558196
N1    N     N_R   0.485152 0.499246 0.201631 -0.358019
N2    N     N_R   0.477883 0.502655 0.798003 -0.357495
C7    C     C_R   0.593906 0.478696 0.177576 0.503843
C8    C     C_R   0.367317 0.507967 0.821810 0.501849
C9    C     C_R   0.501634 0.376647 0.277967 -0.110825
C10   C     C_R   0.456023 0.621158 0.721073 -0.113495
C11   C     C_R   0.506214 0.376829 0.328031 -0.239536
C12   C     C_R   0.463043 0.621072 0.671073 -0.245250
C13   C     C_R   0.481144 0.622832 0.327997 -0.225866
C14   C     C_R   0.511454 0.379194 0.672408 -0.220946
C15   C     C_R   0.476435 0.622255 0.277918 -0.105555
C16   C     C_R   0.504998 0.379802 0.722419 -0.107912
C17   C     C_R   0.486858 0.499273 0.252975 0.328767
C18   C     C_R   0.477902 0.500822 0.746681 0.328613
C19   C     C_R   0.482887 0.500823 0.101668 -0.051991
C20   C     C_R   0.479256 0.504078 0.897947 -0.052537
C21   C     C_R   0.371955 0.521390 0.127408 -0.020035
C22   C     C_R   0.591897 0.499392 0.872377 -0.020862
C23   C     C_R   0.260727 0.543251 0.102423 -0.137709
C24   C     C_R   0.704648 0.496199 0.897446 -0.137964
C25   C     C_R   0.594893 0.479182 0.127159 -0.021226
C26   C     C_R   0.365866 0.508872 0.872284 -0.019389
C27   C     C_R   0.496065 0.500002 0.353360 -0.031944
C28   C     C_R   0.491556 0.500160 0.646481 -0.030963
H1    H     H_    0.472749 0.719035 0.346761 0.154420
H2    H     H_    0.533300 0.284771 0.654148 0.153385
H3    H     H_    0.465459 0.717144 0.258410 0.137188
H4    H     H_    0.522141 0.286829 0.742436 0.136530
H5    H     H_    0.174575 0.561343 0.121457 0.190656
H6    H     H_    0.792494 0.495297 0.878524 0.189499
C29   C     C_R   0.365875 0.512998 0.974310 0.046592
C30   C     C_R   0.595359 0.485934 0.025262 0.046505
C31   C     C_R   0.595117 0.494157 0.974267 0.046908
C32   C     C_R   0.367434 0.518995 0.025393 0.046207
C33   C     C_R   0.480065 0.503805 0.949050 0.070111
C34   C     C_R   0.481872 0.501932 0.050564 0.070413
C35   C     C_R   0.253637 0.514717 0.947382 -0.215246
C36   C     C_R   0.705496 0.460767 0.052030 -0.216249
C37   C     C_R   0.253939 0.513026 0.897365 -0.138155
C38   C     C_R   0.705048 0.457932 0.101991 -0.137493
O11   O     O_2   0.259497 0.511589 0.796646 -0.563176
O12   O     O_2   0.700705 0.458897 0.202491 -0.555239
C39   C     C_R   0.258265 0.542422 0.052411 -0.216027
C40   C     C_R   0.706527 0.494134 0.947407 -0.215521
H7    H     H_    0.445926 0.715228 0.651743 0.153951
H8    H     H_    0.517654 0.280819 0.346813 0.161145
H9    H     H_    0.435248 0.714759 0.740014 0.137829
H10   H     H_    0.509726 0.281541 0.258511 0.139609
H11   H     H_    0.165536 0.514625 0.878407 0.189344
H12   H     H_    0.791924 0.438755 0.120835 0.190703
H13   H     H_    0.163183 0.514376 0.963775 0.138072
H14   H     H_    0.793815 0.439713 0.035540 0.140150
H15   H     H_    0.169171 0.563427 0.036097 0.140001
H16   H     H_    0.797492 0.495397 0.963818 0.138161
C41   C     C_R   0.065349 0.385780 0.482019 0.333544
C42   C     C_R   0.939016 0.622484 0.506054 0.369515
C43   C     C_R   0.939113 0.377939 0.488715 0.375432
C44   C     C_R   0.063491 0.613789 0.517169 0.370118
C45   C     C_R   0.873613 0.499981 0.497643 -0.468817
C46   C     C_R   0.128599 0.499553 0.500205 -0.460467
C47   C     C_R   0.552903 0.071662 0.537210 -0.103642
C48   C     C_R   0.445813 0.928322 0.463043 -0.074075
C49   C     C_R   0.446194 0.072299 0.462972 -0.040333
C50   C     C_R   0.553722 0.927721 0.537046 -0.071722
H17   H     H_    0.595562 0.125943 0.566897 0.118125
H18   H     H_    0.402278 0.874044 0.433543 0.124928
H19   H     H_    0.403503 0.127167 0.433352 0.126644
H20   H     H_    0.597245 0.872984 0.566543 0.140653
N3    N     N_R   0.500000 0.857200 0.500000 -0.081775
N4    N     N_R   0.500000 0.142800 0.500000 -0.074880
O13   O     O_3   0.125662 0.277543 0.460333 -0.602518
C51   C     C_3   0.148605 0.309800 0.411385 0.133499
H21   H     H_    0.245139 0.348427 0.408007 0.150350
H22   H     H_    0.083733 0.388263 0.396137 0.115855
C52   C     C_3   0.134521 0.180875 0.381261 -0.357971
H23   H     H_    0.193667 0.098422 0.396614 0.218346
H24   H     H_    0.035993 0.147905 0.382603 0.250636
C53   C     C_3   0.170666 0.204994 0.328825 -0.928328
H25   H     H_    0.111909 0.286404 0.312612 0.286136
H26   H     H_    0.157035 0.109863 0.307886 0.268479
H27   H     H_    0.269890 0.234806 0.326557 0.264913
O14   O     O_3   0.884030 0.750295 0.505356 -0.603416
C54   C     C_3   0.862196 0.790655 0.456731 0.154090
H28   H     H_    0.797831 0.879291 0.457304 0.161976
H29   H     H_    0.814486 0.709991 0.435368 0.135301
C55   C     C_3   0.981746 0.833333 0.430683 -0.381069
H30   H     H_    0.023658 0.922497 0.448977 0.245436
H31   H     H_    0.050558 0.748935 0.431111 0.219247
C56   C     C_3   0.954330 0.869281 0.378110 -0.958883
H32   H     H_    0.914307 0.780161 0.358949 0.273924
H33   H     H_    0.041878 0.898363 0.359837 0.272075
H34   H     H_    0.887692 0.955669 0.375926 0.272111
O15   O     O_3   0.881443 0.254086 0.480681 -0.592051
C57   C     C_3   0.868682 0.183810 0.525151 0.120317
H35   H     H_    0.803111 0.098749 0.518657 0.168501
H36   H     H_    0.826835 0.249230 0.553632 0.121148
C58   C     C_3   0.991762 0.123018 0.543744 -0.326878
H37   H     H_    0.037092 0.063596 0.514773 0.268312
H38   H     H_    0.055666 0.205559 0.555263 0.217348
C59   C     C_3   0.969955 0.030578 0.587015 -0.927112
H39   H     H_    0.927283 0.089016 0.616959 0.251057
H40   H     H_    0.060199 0.988253 0.599710 0.277816
H41   H     H_    0.907465 0.945449 0.576804 0.293458
O16   O     O_3   0.120362 0.724158 0.539292 -0.587537
C60   C     C_3   0.161407 0.688027 0.586430 0.144804
H42   H     H_    0.218967 0.773499 0.600180 0.158832
H43   H     H_    0.222921 0.596951 0.586514 0.118534
C61   C     C_3   0.053200 0.664964 0.621470 -0.441828
H44   H     H_    0.989899 0.754136 0.621016 0.249255
H45   H     H_    0.999174 0.573877 0.610326 0.211542
C62   C     C_3   0.101112 0.642472 0.672827 -0.848415
H46   H     H_    0.163316 0.552046 0.674291 0.274565
H47   H     H_    0.021451 0.625000 0.697325 0.285048
H48   H     H_    0.153113 0.733265 0.685575 0.258708

loop_
_geom_bond_atom_site_label_1
_geom_bond_atom_site_label_2
_geom_bond_distance
_ccdc_geom_bond_type
C16   C18   1.397584 A    
C61   H44   1.108117 S    
C13   C15   1.388936 A    
C41   C43   1.374048 A    
O15   C57   1.419885 S    
C48   H18   1.081647 S    
O3    C2    1.283281 A    
N1    C17   1.423404 S    
C57   H36   1.114972 S    
C60   H42   1.110959 S    
O5    C3    1.291303 A    
C19   C25   1.408461 A    
C42   C44   1.374486 A    
O1    C1    1.280344 A    
C9    H10   1.082939 S    
N1    C7    1.364899 A    
C10   C12   1.388661 A    
C48   N3    1.366111 A    
C32   C39   1.415306 A    
C60   H43   1.111388 S    
C50   N3    1.365626 A    
C53   H27   1.109683 S    
C5    C21   1.399153 A    
O7    Zn1   2.010369 S    
C59   H39   1.110812 S    
C55   H30   1.108117 S    
C4    C28   1.458101 S    
C58   H38   1.110309 S    
C42   C45   1.414458 A    
C53   H26   1.110287 S    
O6    Zn2   2.011225 S    
C56   H32   1.110941 S    
C23   H5    1.083671 S    
C24   H6    1.083701 S    
O3    Zn1   2.005960 S    
C6    N2    1.364890 A    
C62   H48   1.110960 S    
C39   H15   1.076506 S    
C52   H24   1.109896 S    
C56   H33   1.110065 S    
O2    C2    1.284088 A    
C31   C40   1.414925 A    
C37   H11   1.083672 S    
C55   H31   1.109990 S    
C47   N4    1.365702 A    
C32   C34   1.420631 A    
C54   H28   1.111207 S    
C7    O12   1.350267 S    
O8    Zn2   2.010374 S    
C11   C27   1.404057 A    
C8    O11   1.350042 S    
O4    C1    1.278171 A    
C60   C61   1.537845 S    
C42   O14   1.386567 S    
C61   C62   1.526727 S    
C29   C35   1.415505 A    
C41   C46   1.402621 A    
C14   H2    1.083212 S    
C30   C36   1.415042 A    
C15   H3    1.082959 S    
C31   C33   1.420431 A    
C11   H8    1.083182 S    
C9    C17   1.397201 A    
C5    N1    1.365064 A    
C12   H7    1.083215 S    
C10   C18   1.396907 A    
C13   C27   1.404198 A    
C51   H22   1.119127 S    
C7    C25   1.397805 A    
O6    C4    1.291206 A    
C58   C59   1.523445 S    
C8    C26   1.399507 A    
C53   H25   1.110863 S    
Zn1   N3    2.004843 S    
C30   C31   1.415903 A    
C40   H16   1.076597 S    
C52   H23   1.111341 S    
C30   C34   1.420238 A    
C55   C56   1.526035 S    
C43   C45   1.411906 A    
C35   H13   1.076511 S    
C10   H9    1.082909 S    
C38   H12   1.083693 S    
N2    C8    1.364740 A    
C54   C55   1.537812 S    
C36   H14   1.076573 S    
C35   C37   1.386745 A    
C56   H34   1.110779 S    
C20   C26   1.408806 A    
O1    Zn1   2.007932 S    
O13   C51   1.416454 S    
C12   C28   1.404412 A    
C51   C52   1.525241 S    
C62   H46   1.111259 S    
N2    C18   1.422920 S    
C19   C34   1.416723 A    
C5    O9    1.350063 S    
C61   H45   1.111307 S    
C26   C37   1.394678 A    
C14   C28   1.403343 A    
C21   C23   1.394717 A    
C16   H4    1.082953 S    
C6    O10   1.350343 S    
C29   C32   1.417446 A    
C44   C46   1.404383 A    
C48   C49   1.414416 A    
C2    C45   1.433050 S    
C47   C50   1.414064 A    
C23   C39   1.386603 A    
C52   C53   1.525566 S    
C43   O15   1.384820 S    
C44   O16   1.387897 S    
C22   C24   1.394292 A    
C1    C46   1.417110 S    
Zn2   N4    2.004843 S    
C15   C17   1.397341 A    
C50   H20   1.081596 S    
C6    C22   1.397399 A    
C47   H17   1.081583 S    
C25   C38   1.394236 A    
C51   H21   1.110983 S    
C29   C33   1.420474 A    
C14   C16   1.388629 A    
O14   C54   1.422606 S    
C19   C21   1.408473 A    
C20   C22   1.408329 A    
C36   C38   1.385343 A    
C3    C27   1.459333 S    
C57   H35   1.109082 S    
C9    C11   1.388472 A    
O4    Zn2   2.005960 S    
O2    Zn2   2.007932 S    
O7    C4    1.290283 A    
C59   H40   1.110088 S    
C49   N4    1.365522 A    
O8    C3    1.290892 A    
C41   O13   1.384085 S    
C13   H1    1.083145 S    
O5    Zn1   2.011231 S    
C20   C33   1.416683 A    
C54   H29   1.114217 S    
C24   C40   1.385197 A    
O16   C60   1.421076 S    
C59   H41   1.110169 S    
C57   C58   1.536775 S    
C49   H19   1.081017 S    
C58   H37   1.108187 S    
C62   H47   1.110344 S    
