data_mof_unit_876.cif
_audit_creation_date              2012-12-11T15:56:59-0500
_audit_creation_method            fapswitch 2.2
_symmetry_space_group_name_H-M    P1
_symmetry_Int_Tables_number       1
_space_group_crystal_system       triclinic
_cell_length_a                    17.424169
_cell_length_b                    24.253884
_cell_length_c                    15.020793
_cell_angle_alpha                 89.675213
_cell_angle_beta                  126.114468
_cell_angle_gamma                 90.145379
_cell_volume                      5127.96405353

loop_
_atom_site_label
_atom_site_type_symbol
_atom_type_description
_atom_site_fract_x
_atom_site_fract_y
_atom_site_fract_z
_atom_type_partial_charge
C1    C     C_R   0.307625 0.122970 0.907658 -0.004608
C2    C     C_R   0.551929 0.154547 0.910003 -0.260792
C3    C     C_R   0.810716 0.366490 0.003482 0.218470
C4    C     C_R   0.582930 0.000500 0.375509 0.096276
C5    C     C_R   0.084522 0.498441 0.376739 0.091702
C6    C     C_R   0.196356 0.000797 0.632820 0.188229
C7    C     C_R   0.698754 0.499970 0.630635 0.188143
C8    C     C_R   0.516766 0.046973 0.749568 -0.110615
C9    C     C_R   0.520457 0.954911 0.752117 -0.120084
C10   C     C_R   0.019214 0.545791 0.750940 -0.118606
C11   C     C_R   0.020090 0.453727 0.753485 -0.103566
C12   C     C_R   0.769608 0.953505 0.250422 -0.097663
C13   C     C_R   0.052586 0.345797 0.910502 -0.243421
C14   C     C_R   0.769788 0.046201 0.249357 -0.027366
C15   C     C_R   0.270225 0.453838 0.251366 -0.041856
C16   C     C_R   0.269894 0.546538 0.251736 -0.089643
C17   C     C_3   0.649265 0.141891 0.726538 0.239228
C18   C     C_3   0.605415 0.199182 0.692027 -0.734688
C19   C     C_3   0.627962 0.854834 0.679502 0.331523
C20   C     C_3   0.576568 0.803290 0.613209 -0.573075
C21   C     C_3   0.141973 0.642946 0.695218 0.323084
C22   C     C_3   0.093654 0.696640 0.635366 -0.587219
C23   C     C_3   0.103891 0.347786 0.671345 0.349315
C24   C     C_R   0.052325 0.654128 0.909329 -0.228949
C25   C     C_3   0.039550 0.299181 0.606461 -0.631083
C26   C     C_3   0.637840 0.148026 0.490420 0.247117
C27   C     C_3   0.579514 0.196069 0.414261 -0.677598
C28   C     C_3   0.733621 0.889828 0.536630 0.166916
C29   C     C_3   0.724306 0.833535 0.486954 -0.708642
C30   C     C_3   0.220949 0.616250 0.525903 0.176858
C31   C     C_3   0.204508 0.672804 0.472841 -0.712569
C32   C     C_3   0.184097 0.363825 0.508419 0.187961
C33   C     C_3   0.149900 0.308784 0.448807 -0.725765
C34   C     C_3   0.961453 0.052485 0.613145 0.309443
C35   C     C_R   0.549907 0.001721 0.724431 0.147103
C36   C     C_3   0.898749 0.064242 0.650121 -0.818573
C37   C     C_3   0.469946 0.466594 0.628237 0.305118
C38   C     C_3   0.410608 0.456682 0.670381 -0.778450
C39   C     C_R   0.050073 0.499325 0.725037 0.142497
C40   C     C_R   0.824973 0.999671 0.275590 0.117954
C41   C     C_R   0.325345 0.500375 0.277405 0.121204
C42   C     C_R   0.606639 0.188174 0.001460 0.120595
C43   C     C_R   0.611332 0.813434 0.000780 0.063017
C44   C     C_R   0.109535 0.687086 0.000586 0.069797
C45   C     C_R   0.307298 0.877852 0.907452 0.008962
C46   C     C_R   0.110290 0.312868 0.002394 0.095218
C47   C     C_3   0.027112 0.966119 0.520261 -0.376331
C48   C     C_3   0.040445 0.052648 0.480530 -0.406204
C49   C     C_3   0.540337 0.449455 0.488045 -0.397778
C50   C     C_3   0.531172 0.538777 0.514083 -0.386258
C51   C     C_3   0.963850 0.017237 0.472785 0.493569
C52   C     C_3   0.466178 0.488530 0.476618 0.497259
C53   C     C_3   0.926853 0.999392 0.356117 -0.292414
C54   C     C_3   0.427354 0.500638 0.356750 -0.293601
C55   C     C_3   0.992572 0.949062 0.403919 0.744845
C56   C     C_R   0.807426 0.622480 0.907133 0.009409
C57   C     C_3   0.004683 0.033496 0.364264 0.779175
C58   C     C_3   0.503014 0.462876 0.368461 0.772677
C59   C     C_3   0.494628 0.549976 0.394419 0.749929
C60   C     C_3   0.072131 0.982713 0.412301 -0.335503
C61   C     C_3   0.572190 0.512496 0.406631 -0.334072
C62   C     C_R   0.400559 0.878040 0.092168 -0.104716
C63   C     C_R   0.401018 0.121817 0.092427 -0.096889
C64   C     C_R   0.902169 0.377904 0.093922 -0.102202
C65   C     C_R   0.900834 0.622251 0.091991 -0.102604
C66   C     C_3   0.104630 0.001092 0.527650 -0.070520
C67   C     C_R   0.806792 0.378948 0.909450 0.024113
C68   C     C_3   0.606485 0.499942 0.525542 -0.069110
C69   C     C_3   0.251408 0.823146 0.105325 0.565630
C70   C     C_3   0.260737 0.179811 0.111752 0.548647
C71   C     C_3   0.746741 0.326223 0.107411 0.544730
C72   C     C_3   0.749996 0.676221 0.103140 0.569349
C73   C     C_3   0.698128 0.273640 0.111344 -0.476820
C74   C     C_3   0.683918 0.721653 0.094227 -0.507208
C75   C     C_3   0.185067 0.777780 0.096649 -0.507824
C76   C     C_3   0.194396 0.224407 0.104440 -0.496441
C77   C     C_3   0.797821 0.267471 0.011271 0.588444
C78   C     C_R   0.641596 0.153983 0.091613 0.649783
C79   C     C_3   0.797530 0.734450 0.001568 0.604704
C80   C     C_3   0.295249 0.766183 0.999807 0.601170
C81   C     C_3   0.290800 0.234675 0.990568 0.609181
C82   C     C_3   0.145453 0.825109 0.897838 0.368986
C83   C     C_3   0.145384 0.173030 0.905219 0.356822
C84   C     C_3   0.647332 0.325386 0.900444 0.335102
C85   C     C_3   0.646505 0.676891 0.895617 0.370334
C86   C     C_3   0.251149 0.821693 0.000912 -0.329562
C87   C     C_3   0.252598 0.179023 0.002161 -0.314742
C88   C     C_3   0.751553 0.323189 0.006195 -0.342717
C89   C     C_R   0.645257 0.846658 0.091619 0.672416
C90   C     C_3   0.751687 0.678944 0.000089 -0.332791
C91   C     C_3   0.653928 0.239907 0.003627 -0.183865
C92   C     C_3   0.657408 0.762517 0.999734 -0.122042
C93   C     C_3   0.156054 0.738158 0.000224 -0.124751
C94   C     C_3   0.157448 0.262049 0.002338 -0.136711
C95   C     C_3   0.736675 0.219789 0.000828 -0.656590
C96   C     C_3   0.749463 0.782291 0.015754 -0.565651
C97   C     C_3   0.246935 0.718243 0.013847 -0.566583
C98   C     C_3   0.243550 0.282609 0.005819 -0.567349
C99   C     C_3   0.586788 0.280579 0.905671 1.231351
C100  C     C_R   0.144052 0.653402 0.091405 0.670972
C101  C     C_3   0.594453 0.729980 0.888925 1.205488
C102  C     C_3   0.092531 0.772226 0.890929 1.210355
C103  C     C_3   0.091414 0.225540 0.897705 1.219323
C104  C     C_3   0.626244 0.055349 0.645586 0.310756
C105  C     C_3   0.626637 0.949881 0.647567 0.290418
C106  C     C_3   0.130623 0.549061 0.650628 0.286052
C107  C     C_3   0.116855 0.441980 0.641907 0.274108
C108  C     C_R   0.560574 0.045317 0.307574 0.021723
C109  C     C_R   0.556674 0.954863 0.307916 -0.009447
C110  C     C_R   0.058839 0.544372 0.308557 -0.003884
C111  C     C_R   0.144557 0.346643 0.092526 0.662864
C112  C     C_R   0.058492 0.454000 0.307183 0.015299
C113  C     C_3   0.628165 0.057898 0.542887 0.267895
C114  C     C_3   0.652905 0.956358 0.565141 0.340185
C115  C     C_3   0.151456 0.545329 0.563200 0.329712
C116  C     C_3   0.137276 0.443574 0.553783 0.314413
C117  C     C_3   0.470958 0.002987 0.527815 -0.504583
C118  C     C_3   0.971111 0.502112 0.528545 -0.482624
C119  C     C_3   0.569677 0.002547 0.639751 -0.170144
C120  C     C_3   0.069224 0.498065 0.640068 -0.177034
C121  C     C_3   0.586884 0.002173 0.477370 -0.338118
C122  C     C_R   0.552929 0.846308 0.909456 -0.225976
C123  C     C_3   0.089417 0.497292 0.479817 -0.337367
C124  C     C_3   0.480945 0.994663 0.435101 1.385038
C125  C     C_3   0.982278 0.502075 0.435757 1.373001
C126  C     C_R   0.243064 0.954482 0.693789 -0.154918
C127  C     C_R   0.242725 0.046482 0.694900 -0.163285
C128  C     C_R   0.744135 0.454058 0.693728 -0.160323
C129  C     C_R   0.744308 0.545928 0.692874 -0.157558
C130  C     C_R   0.310930 0.135300 0.000606 0.137093
C131  C     C_R   0.309942 0.865508 0.000068 0.139540
C132  C     C_R   0.810259 0.635027 0.999633 0.139401
F1    F     F_    0.967881 0.895970 0.363390 -0.672257
F2    F     F_    0.107931 0.126560 0.920840 -0.672331
F3    F     F_    0.608477 0.377233 0.887635 -0.670659
F4    F     F_    0.601481 0.630491 0.898955 -0.665722
F5    F     F_    0.006706 0.785528 0.872189 -0.646214
F6    F     F_    0.009623 0.211425 0.888081 -0.641378
F7    F     F_    0.523669 0.304821 0.921559 -0.641941
F8    F     F_    0.507303 0.717106 0.867226 -0.650013
F9    F     F_    0.533103 0.255095 0.804736 -0.764080
F10   F     F_    0.578149 0.761155 0.801886 -0.772198
F11   F     F_    0.073437 0.742240 0.802055 -0.771593
F12   F     F_    0.990238 0.067502 0.281473 -0.663523
F13   F     F_    0.064834 0.253622 0.803310 -0.774923
F14   F     F_    0.811145 0.263468 0.929045 -0.689351
F15   F     F_    0.789521 0.741673 0.904615 -0.688133
F16   F     F_    0.285644 0.760047 0.901833 -0.697182
F17   F     F_    0.273302 0.239116 0.887858 -0.694983
F18   F     F_    0.421667 0.032103 0.351548 -0.670279
F19   F     F_    0.449565 0.941990 0.393039 -0.651815
F20   F     F_    0.942296 0.550502 0.375751 -0.664933
F21   F     F_    0.930360 0.458221 0.366557 -0.646534
F22   F     F_    0.681259 0.170723 0.196199 -0.735017
F23   F     F_    0.485732 0.424385 0.291104 -0.665427
F24   F     F_    0.690219 0.829608 0.197310 -0.729056
F25   F     F_    0.187074 0.669959 0.196712 -0.733104
F26   F     F_    0.185762 0.329954 0.197741 -0.736560
F27   F     F_    0.470066 0.601358 0.344560 -0.672662
F28   F     F_    0.341408 0.813414 0.201074 -0.679315
F29   F     F_    0.352316 0.192449 0.201416 -0.710651
F30   F     F_    0.834982 0.330215 0.207625 -0.677200
F31   F     F_    0.839514 0.684752 0.200181 -0.676711
F32   F     F_    0.102283 0.871564 0.903639 -0.661313
H1    H     H_    0.250397 0.130949 0.822469 0.110743
H2    H     H_    0.618331 0.522234 0.380289 0.187320
H3    H     H_    0.791174 0.887232 0.626726 0.139930
H4    H     H_    0.753696 0.920484 0.498178 0.124650
H5    H     H_    0.668195 0.834391 0.396677 0.255545
H6    H     H_    0.792762 0.822002 0.502145 0.237243
H7    H     H_    0.706036 0.801965 0.525442 0.244127
H8    H     H_    0.242048 0.587138 0.486747 0.118109
H9    H     H_    0.280636 0.619934 0.614944 0.132373
H10   H     H_    0.192235 0.703959 0.516957 0.239315
H11   H     H_    0.268287 0.685172 0.477697 0.235613
H12   H     H_    0.142447 0.672044 0.384888 0.256327
H13   H     H_    0.227367 0.864169 0.112824 0.157587
H14   H     H_    0.240776 0.355475 0.597000 0.115168
H15   H     H_    0.216052 0.387753 0.474395 0.114928
H16   H     H_    0.088908 0.314862 0.361230 0.256052
H17   H     H_    0.208505 0.288521 0.451878 0.232253
H18   H     H_    0.128107 0.281196 0.489315 0.233132
H19   H     H_    0.999344 0.091209 0.621014 0.104650
H20   H     H_    0.014221 0.020531 0.669491 0.116876
H21   H     H_    0.860623 0.026124 0.644133 0.231226
H22   H     H_    0.942946 0.078388 0.736991 0.279036
H23   H     H_    0.846735 0.097024 0.597505 0.236171
H24   H     H_    0.241727 0.138844 0.127209 0.167430
H25   H     H_    0.516317 0.502806 0.673077 0.117400
H26   H     H_    0.515013 0.429482 0.648378 0.127549
H27   H     H_    0.367848 0.418760 0.632955 0.230675
H28   H     H_    0.457607 0.451441 0.761321 0.277794
H29   H     H_    0.363310 0.492500 0.649214 0.221794
H30   H     H_    0.705144 0.363170 0.098860 0.171497
H31   H     H_    0.724655 0.635108 0.108762 0.156659
H32   H     H_    0.120723 0.796717 0.082781 0.211426
H33   H     H_    0.133722 0.204857 0.098521 0.219992
H34   H     H_    0.643224 0.284876 0.123792 0.231622
H35   H     H_    0.618500 0.702843 0.077977 0.210106
H36   H     H_    0.753087 0.248692 0.183735 0.281730
H37   H     H_    0.250429 0.870557 0.822094 0.108263
H38   H     H_    0.721059 0.742132 0.175127 0.300645
H39   H     H_    0.223158 0.756315 0.177036 0.300145
H40   H     H_    0.235410 0.247568 0.182540 0.295186
H41   H     H_    0.869065 0.263911 0.091809 0.136637
H42   H     H_    0.874609 0.735177 0.070978 0.131503
H43   H     H_    0.372575 0.764635 0.068265 0.134906
H44   H     H_    0.369063 0.237705 0.053905 0.135552
H45   H     H_    0.782573 0.189883 0.068965 0.209954
H46   H     H_    0.799323 0.799810 0.099861 0.219230
H47   H     H_    0.297240 0.699723 0.097306 0.219034
H48   H     H_    0.750470 0.629592 0.821566 0.104872
H49   H     H_    0.296266 0.302621 0.086579 0.211841
H50   H     H_    0.139558 0.828564 0.820408 0.113008
H51   H     H_    0.134985 0.167740 0.825414 0.103641
H52   H     H_    0.645961 0.317606 0.826748 0.094981
H53   H     H_    0.641855 0.674344 0.818926 0.112657
H54   H     H_    0.429827 0.872299 0.177610 0.203074
H55   H     H_    0.429699 0.125532 0.178005 0.198231
H56   H     H_    0.934197 0.370502 0.179528 0.200663
H57   H     H_    0.930430 0.628165 0.177406 0.204368
H58   H     H_    0.708189 0.197604 0.923579 0.231539
H59   H     H_    0.747876 0.372626 0.824471 0.100517
H60   H     H_    0.734118 0.815730 0.956189 0.227889
H61   H     H_    0.230291 0.685518 0.953279 0.226040
H62   H     H_    0.221833 0.314337 0.941210 0.227081
H63   H     H_    0.700583 0.050355 0.721611 -0.019169
H64   H     H_    0.693246 0.948097 0.733647 -0.004944
H65   H     H_    0.198857 0.547234 0.735347 -0.003073
H66   H     H_    0.185167 0.437688 0.725990 -0.001432
H67   H     H_    0.704020 0.060193 0.573799 -0.006398
H68   H     H_    0.727629 0.972038 0.615468 -0.057457
H69   H     H_    0.227792 0.533357 0.611131 -0.049311
H70   H     H_    0.036716 0.938293 0.585140 0.171628
H71   H     H_    0.215855 0.447796 0.601221 -0.030835
H72   H     H_    0.434542 0.042878 0.516334 0.224641
H73   H     H_    0.424253 0.970189 0.524097 0.216174
H74   H     H_    0.933148 0.540136 0.523926 0.220279
H75   H     H_    0.924711 0.467308 0.518257 0.224371
H76   H     H_    0.578494 0.087401 0.328071 0.131698
H77   H     H_    0.562324 0.911983 0.329060 0.182085
H78   H     H_    0.064116 0.587144 0.328324 0.178123
H79   H     H_    0.066414 0.411035 0.324335 0.158293
H80   H     H_    0.229258 0.912395 0.664739 0.128908
H81   H     H_    0.060528 0.095523 0.511478 0.159789
H82   H     H_    0.229614 0.088898 0.667039 0.116851
H83   H     H_    0.731397 0.411742 0.666126 0.118037
H84   H     H_    0.730803 0.588246 0.664287 0.127423
H85   H     H_    0.515663 0.089904 0.732571 0.167695
H86   H     H_    0.527640 0.912260 0.740036 0.156757
H87   H     H_    0.024187 0.588637 0.736929 0.162963
H88   H     H_    0.026758 0.410862 0.744536 0.150659
H89   H     H_    0.792184 0.911033 0.266148 0.219496
H90   H     H_    0.793055 0.088634 0.264250 0.170895
H91   H     H_    0.293705 0.411443 0.266872 0.180709
H92   H     H_    0.558798 0.407617 0.525554 0.162224
H93   H     H_    0.292595 0.589000 0.267528 0.211597
H94   H     H_    0.506295 0.833727 0.824483 0.219849
H95   H     H_    0.508491 0.166403 0.824478 0.216817
H96   H     H_    0.006555 0.332969 0.825688 0.215307
H97   H     H_    0.005978 0.666895 0.824202 0.219783
H98   H     H_    0.718275 0.142404 0.737604 0.117066
H99   H     H_    0.663935 0.130249 0.806653 0.095424
H100  H     H_    0.535634 0.198676 0.678391 0.291148
H101  H     H_    0.653065 0.230038 0.754816 0.249265
H102  H     H_    0.592938 0.211945 0.613776 0.235538
H103  H     H_    0.542840 0.570533 0.573910 0.168428
H104  H     H_    0.640003 0.851991 0.760634 0.112708
H105  H     H_    0.698703 0.855940 0.694783 0.110080
H106  H     H_    0.620661 0.766265 0.657487 0.224209
H107  H     H_    0.507393 0.799277 0.600896 0.260276
H108  H     H_    0.563234 0.805838 0.531330 0.255332
H109  H     H_    0.211442 0.640671 0.707595 0.105774
H110  H     H_    0.155748 0.643172 0.777360 0.101813
H111  H     H_    0.078275 0.696738 0.552462 0.249766
H112  H     H_    0.025155 0.700916 0.624455 0.269907
H113  H     H_    0.140332 0.732160 0.682941 0.241585
H114  H     H_    0.119368 0.968695 0.390048 0.186704
H115  H     H_    0.122634 0.346686 0.755788 0.102622
H116  H     H_    0.170934 0.343009 0.679449 0.103996
H117  H     H_    0.079350 0.259901 0.641569 0.227974
H118  H     H_    0.977380 0.299186 0.609469 0.258377
H119  H     H_    0.012989 0.302335 0.518910 0.261700
H120  H     H_    0.687232 0.134354 0.470883 0.078271
H121  H     H_    0.682671 0.162977 0.575983 0.105476
H122  H     H_    0.522683 0.207511 0.423086 0.282189
H123  H     H_    0.626287 0.232278 0.434917 0.200330
H124  H     H_    0.546405 0.184738 0.327312 0.254067
N1    N     N_R   0.392450 0.103580 0.942190 -0.056111
N2    N     N_R   0.525490 0.971610 0.207550 -0.073636
N3    N     N_R   0.025490 0.528390 0.207550 -0.071397
N4    N     N_R   0.025490 0.471610 0.207550 -0.071976
N5    N     N_R   0.317450 0.971190 0.792000 -0.049620
N6    N     N_R   0.317450 0.028810 0.792000 -0.047307
N7    N     N_R   0.817450 0.471190 0.792000 -0.049631
N8    N     N_R   0.817450 0.528810 0.792000 -0.049785
N9    N     N_R   0.473900 0.028390 0.792280 -0.053936
N10   N     N_R   0.473900 0.971610 0.792280 -0.050670
N11   N     N_R   0.973900 0.528390 0.792280 -0.052394
N12   N     N_R   0.392450 0.896420 0.942190 -0.056917
N13   N     N_R   0.973900 0.471610 0.792280 -0.052275
N14   N     N_R   0.682310 0.971180 0.208170 -0.066527
N15   N     N_R   0.682310 0.028820 0.208170 -0.065072
N16   N     N_R   0.182310 0.471180 0.208170 -0.066214
N17   N     N_R   0.182310 0.528820 0.208170 -0.066321
N18   N     N_R   0.606470 0.103570 0.057210 -0.113303
N19   N     N_R   0.606470 0.896430 0.057210 -0.114403
N20   N     N_R   0.106470 0.603570 0.057210 -0.113332
N21   N     N_R   0.106470 0.396430 0.057210 -0.112795
N22   N     N_R   0.549740 0.896000 0.943240 -0.096917
N23   N     N_R   0.892450 0.603580 0.942190 -0.057213
N24   N     N_R   0.549740 0.104000 0.943240 -0.092879
N25   N     N_R   0.049740 0.396000 0.943240 -0.095711
N26   N     N_R   0.049740 0.604000 0.943240 -0.096879
N27   N     N_R   0.892450 0.396420 0.942190 -0.057090
N28   N     N_R   0.450490 0.896000 0.057360 -0.065864
N29   N     N_R   0.450490 0.104000 0.057360 -0.065074
N30   N     N_R   0.950490 0.396000 0.057360 -0.068019
N31   N     N_R   0.950490 0.604000 0.057360 -0.065647
N32   N     N_R   0.525490 0.028390 0.207550 -0.069264
Ni1   Ni    Ni4+2 0.433780 0.065390 0.868430 0.229778
Ni2   Ni    Ni4+2 0.433780 0.934610 0.868430 0.231867
Ni3   Ni    Ni4+2 0.933780 0.565390 0.868430 0.229709
Ni4   Ni    Ni4+2 0.933780 0.434610 0.868430 0.231865
Ni5   Ni    Ni4+2 0.565800 0.934190 0.131570 0.256590
Ni6   Ni    Ni4+2 0.565800 0.065810 0.131570 0.262728
Ni7   Ni    Ni4+2 0.065800 0.434190 0.131570 0.261536
Ni8   Ni    Ni4+2 0.065800 0.565810 0.131570 0.256869
O1    O     O_3   0.582828 0.104447 0.645760 -0.587799
O2    O     O_3   0.409626 0.476183 0.513142 -0.628232
O3    O     O_3   0.570843 0.901502 0.620685 -0.580741
O4    O     O_3   0.080355 0.598838 0.632251 -0.592589
O5    O     O_3   0.054419 0.397085 0.616649 -0.590758
O6    O     O_3   0.576088 0.104797 0.476332 -0.529829
O7    O     O_3   0.646154 0.904652 0.516842 -0.575669
O8    O     O_3   0.136904 0.597552 0.511477 -0.564137
O9    O     O_3   0.106571 0.393405 0.493093 -0.550257
O10   O     O_3   0.904480 0.034469 0.502591 -0.622700

loop_
_geom_bond_atom_site_label_1
_geom_bond_atom_site_label_2
_ccdc_geom_bond_type
C118  H75   S    
N29   Ni6   S    
C83   C87   S    
C19   C20   S    
C21   H110  S    
C22   H113  S    
C43   C89   A    
C112  H79   S    
C50   C59   S    
C87   C130  S    
C13   H96   S    
C6    C127  A    
C117  C119  S    
C11   N13   A    
N24   Ni1   S    
C69   F28   S    
C61   H2    S    
C105  H64   S    
C63   H55   S    
N14   Ni5   S    
C80   C86   S    
C76   C94   S    
C27   H124  S    
N3    N4    A    
C77   C88   S    
C52   C54   S    
N17   Ni8   S    
C50   C52   S    
N32   Ni6   S    
C7    C128  A    
C31   H12   S    
C58   C61   S    
C117  H73   S    
C21   C22   S    
C33   H16   S    
C32   H14   S    
C109  N2    A    
C95   H58   S    
C115  C123  S    
C114  O7    S    
C24   N26   A    
C18   H102  S    
N21   N25   A    
C71   H30   S    
N9    Ni1   S    
C117  H72   S    
C55   F1    S    
C8    C35   A    
C12   C40   A    
C37   O2    S    
N15   Ni6   S    
C37   C38   S    
C56   N23   A    
C77   H41   S    
C110  H78   S    
C83   H51   S    
N5    Ni2   S    
C1    N1    A    
C67   H59   S    
C43   C122  A    
C9    N10   A    
N3    Ni8   S    
C126  H80   S    
N16   Ni7   S    
C25   H117  S    
C107  C120  S    
C22   H111  S    
C75   C93   S    
C50   H103  S    
C75   H39   S    
C99   F9    S    
C84   C88   S    
N23   Ni3   S    
C85   C90   S    
C38   H29   S    
C106  C115  S    
C79   C96   S    
C27   H122  S    
C82   F32   S    
N12   N28   A    
C81   F17   S    
C116  H71   S    
C8    N9    A    
C72   F31   S    
C118  C120  S    
C28   H4    S    
C71   C88   S    
C80   F16   S    
C33   H18   S    
C29   H5    S    
C39   C120  S    
C110  N3    A    
C84   F3    S    
C116  C123  S    
C80   C97   S    
N12   Ni2   S    
C104  O1    S    
N1    Ni1   S    
C48   C57   S    
C19   H105  S    
C15   H91   S    
C3    C64   A    
C51   O10   S    
C83   C103  S    
C111  F26   S    
C76   H33   S    
C5    C110  A    
C74   C92   S    
C92   C96   S    
C63   C130  A    
C17   H98   S    
C10   N11   A    
C100  F25   S    
C79   C90   S    
C14   H90   S    
C24   H97   S    
N30   Ni7   S    
C25   H119  S    
C26   H120  S    
C70   H24   S    
C104  C119  S    
C75   H32   S    
C19   O3    S    
C37   H26   S    
C7    C68   S    
C99   F7    S    
C70   C87   S    
C54   C59   S    
C105  O3    S    
C96   H46   S    
C45   N12   A    
C26   H121  S    
C23   H115  S    
C51   C53   S    
C102  F5    S    
C64   N30   A    
N5    N6    A    
N27   Ni4   S    
C72   C90   S    
C101  F10   S    
C46   C94   S    
C73   H34   S    
C17   C18   S    
C82   C102  S    
C34   H19   S    
C127  H82   S    
C29   H7    S    
C20   H107  S    
C30   H8    S    
C14   N15   A    
C124  F19   S    
C93   C97   S    
C65   C132  A    
C103  F13   S    
N27   N30   A    
C12   H89   S    
C97   H47   S    
C57   F12   S    
C3    C88   S    
C128  H83   S    
C21   H109  S    
C5    C112  A    
C11   H88   S    
N19   N22   A    
C30   O8    S    
C9    H86   S    
C44   C100  A    
C2    C42   A    
C34   C36   S    
C107  C116  S    
C85   F4    S    
C91   C95   S    
C104  C113  S    
C113  C121  S    
C16   N17   A    
C38   H27   S    
N10   Ni2   S    
C12   N14   A    
C48   C66   S    
C55   C60   S    
C77   F14   S    
C31   H10   S    
C97   H61   S    
C49   C68   S    
C4    C109  A    
C65   H57   S    
C4    C108  A    
C26   C27   S    
C28   C29   S    
C117  C124  S    
C30   C31   S    
C123  C125  S    
C81   C98   S    
C94   C98   S    
C106  O4    S    
C73   H36   S    
C15   N16   A    
C36   H21   S    
N9    N10   A    
C83   F2    S    
C69   H13   S    
C114  C121  S    
C59   F27   S    
N8    Ni3   S    
N23   N31   A    
C116  O9    S    
C118  C125  S    
C47   C66   S    
N4    Ni7   S    
C90   C132  S    
C118  H74   S    
C60   C66   S    
C45   H37   S    
C60   H114  S    
C46   C111  A    
C22   H112  S    
C113  H67   S    
C95   H45   S    
C6    C126  A    
C72   C74   S    
C1    C130  A    
C103  F6    S    
N7    N8    A    
C49   H92   S    
C53   C57   S    
C78   F22   S    
C89   F24   S    
C47   C51   S    
C74   H38   S    
C82   C86   S    
C10   C39   A    
C48   H81   S    
N20   Ni8   S    
N6    Ni1   S    
C109  H77   S    
C49   C52   S    
N13   Ni4   S    
C32   O9    S    
C21   O4    S    
C15   C41   A    
C26   O6    S    
N20   N26   A    
C92   C101  S    
C81   H44   S    
C98   H49   S    
C67   N27   A    
C94   C103  S    
C45   C131  A    
C52   O2    S    
C33   H17   S    
C24   C44   A    
C107  O5    S    
N25   Ni4   S    
N21   Ni7   S    
C70   F29   S    
C20   H106  S    
C115  H69   S    
C104  H63   S    
C71   C73   S    
C124  F18   S    
C63   N29   A    
C84   C99   S    
C62   C131  A    
C43   C92   S    
C57   C60   S    
C93   C102  S    
C18   H101  S    
C79   F15   S    
N22   Ni2   S    
C106  H65   S    
C36   H23   S    
C32   C33   S    
N18   Ni6   S    
C17   O1    S    
C16   H93   S    
C81   C87   S    
C4    C121  S    
C69   C75   S    
C7    C129  A    
N26   Ni3   S    
C111  N21   A    
C74   H35   S    
N1    N29   A    
C107  H66   S    
C9    C35   A    
C105  C119  S    
N19   Ni5   S    
C25   H118  S    
C50   C68   S    
C65   N31   A    
C129  H84   S    
C128  N7    A    
C37   H25   S    
C71   F30   S    
N7    Ni4   S    
C35   C119  S    
C113  O6    S    
C72   H31   S    
C31   H11   S    
C115  O8    S    
C23   O5    S    
C62   H54   S    
C56   H48   S    
C89   N19   A    
C114  H68   S    
C13   C46   A    
C86   C131  S    
C122  N22   A    
C10   H87   S    
C59   C61   S    
C85   H53   S    
C121  C124  S    
C44   C93   S    
C28   H3    S    
C82   H50   S    
C122  H94   S    
C48   C51   S    
C108  H76   S    
C96   H60   S    
C32   H15   S    
C34   H20   S    
C29   H6    S    
C20   H108  S    
C30   H9    S    
C47   H70   S    
C2    N24   A    
C101  F8    S    
C125  F21   S    
C53   C55   S    
C8    H85   S    
C64   H56   S    
C105  C114  S    
C73   C91   S    
C34   O10   S    
C129  N8    A    
C78   N18   A    
C27   H123  S    
C77   C95   S    
N18   N24   A    
C49   C58   S    
C17   H99   S    
C18   H100  S    
C125  F20   S    
N2    Ni5   S    
C1    H1    S    
N2    N32   A    
C56   C132  A    
C11   C39   A    
N11   N13   A    
C127  N6    A    
C62   N28   A    
N16   N17   A    
C42   C78   A    
C38   H28   S    
C70   C76   S    
C112  N4    A    
C13   N25   A    
C102  F11   S    
C85   C101  S    
C47   C55   S    
C54   C58   S    
C28   O7    S    
N14   N15   A    
C108  N32   A    
C106  C120  S    
C3    C67   A    
C23   H116  S    
C76   H40   S    
C79   H42   S    
C5    C123  S    
C91   C99   S    
C126  N5    A    
C61   C68   S    
N28   Ni5   S    
C16   C41   A    
C2    H95   S    
C36   H22   S    
C23   C25   S    
C41   C54   S    
C58   F23   S    
C14   C40   A    
C100  N20   A    
C84   H52   S    
C6    C66   S    
C80   H43   S    
N31   Ni8   S    
N11   Ni3   S    
C40   C53   S    
C69   C86   S    
C42   C91   S    
C19   H104  S    
C98   H62   S    
