data_mof_unit_4211.cif
_audit_creation_date              2013-03-05T16:18:08-0500
_audit_creation_method            fapswitch 2.2
_symmetry_space_group_name_H-M    P1
_symmetry_Int_Tables_number       1
_space_group_crystal_system       triclinic
_cell_length_a                    10.630654
_cell_length_b                    9.701423
_cell_length_c                    15.743562
_cell_angle_alpha                 90.039605
_cell_angle_beta                  89.891047
_cell_angle_gamma                 89.990688
_cell_volume                      1623.66910955

loop_
_atom_site_label
_atom_site_type_symbol
_atom_site_description
_atom_site_fract_x
_atom_site_fract_y
_atom_site_fract_z
_atom_type_partial_charge
O1    O     O_R   0.314910 0.616040 0.499980 -0.634012
O2    O     O_R   0.314910 0.383960 0.499980 -0.634598
C1    C     C_R   0.257611 0.500289 0.499961 0.849604
O3    O     O_R   0.500120 0.616090 0.377110 -0.612538
O4    O     O_R   0.500120 0.383910 0.377110 -0.620845
C2    C     C_R   0.499967 0.499944 0.338179 0.915094
Zn1   Zn    Zn3+2 0.500150 0.654960 0.499960 0.912055
Zn2   Zn    Zn3+2 0.500150 0.345040 0.499960 0.908768
O5    O     O_R   0.685320 0.616040 0.499960 -0.637203
O6    O     O_R   0.685320 0.383960 0.499960 -0.635366
O7    O     O_R   0.500110 0.615990 0.622830 -0.623676
O8    O     O_R   0.500110 0.384010 0.622830 -0.623452
C3    C     C_R   0.742626 0.500273 0.499908 0.833210
C4    C     C_R   0.499986 0.500051 0.661805 0.914074
C5    C     C_3   0.449972 0.645815 0.048368 0.183581
C6    C     C_3   0.395532 0.383939 0.047207 0.194653
C7    C     C_3   0.390014 0.397203 0.949022 -0.426366
C8    C     C_3   0.456839 0.646548 0.949844 -0.461830
H1    H     H_    0.367092 0.681698 0.920843 0.211928
H2    H     H_    0.295358 0.432997 0.928362 0.219878
H3    H     H_    0.439258 0.282348 0.061997 0.099296
H4    H     H_    0.522809 0.719442 0.071633 0.101207
H5    H     H_    0.405694 0.293976 0.919868 0.160626
H6    H     H_    0.530137 0.721269 0.928921 0.156003
C9    C     C_1   0.497240 0.500220 0.750625 -0.208346
C10   C     C_3   0.484914 0.499334 0.082787 0.098770
C11   C     C_3   0.490621 0.500695 0.917244 0.235156
C12   C     C_3   0.621012 0.459162 0.952276 -0.390375
C13   C     C_3   0.619653 0.465662 0.050115 -0.529479
C14   C     C_1   0.494209 0.500460 0.825880 -0.069922
C15   C     C_1   0.490244 0.499404 0.174273 0.008398
C16   C     C_1   0.495403 0.499735 0.249457 -0.133247
H7    H     H_    0.687485 0.545651 0.071942 0.206769
H8    H     H_    0.652727 0.365277 0.076142 0.201142
H9    H     H_    0.695129 0.529445 0.927280 0.192494
H10   H     H_    0.645056 0.352723 0.931297 0.186505
C17   C     C_3   0.071510 0.651949 0.499896 -0.395803
C18   C     C_3   0.072087 0.426600 0.580299 -0.401896
H11   H     H_    0.106212 0.708271 0.442820 0.182945
H12   H     H_    0.106586 0.318254 0.581917 0.171355
H13   H     H_    0.105525 0.708146 0.557158 0.168885
H14   H     H_    0.107262 0.479134 0.638497 0.161674
C19   C     C_3   0.928685 0.651941 0.499719 -0.393409
C20   C     C_3   0.927704 0.426766 0.580342 -0.399108
H15   H     H_    0.893976 0.708508 0.556753 0.170483
H16   H     H_    0.892362 0.479623 0.638478 0.158814
H17   H     H_    0.894616 0.707900 0.442421 0.174744
H18   H     H_    0.893021 0.318508 0.582153 0.171968
H19   H     H_    0.107963 0.479077 0.361258 0.195833
H20   H     H_    0.107338 0.318194 0.417694 0.176428
H21   H     H_    0.893013 0.478634 0.361250 0.169702
H22   H     H_    0.893717 0.317946 0.417892 0.173841
C21   C     C_3   0.072611 0.426458 0.419430 -0.373385
C22   C     C_3   0.121321 0.501285 0.499888 0.163745
C23   C     C_3   0.878934 0.501266 0.499855 0.177815
C24   C     C_3   0.928195 0.426289 0.419469 -0.398724
C25   C     C_3   0.372140 0.081231 0.482560 -0.230886
C26   C     C_3   0.372126 0.918795 0.482628 -0.231777
H23   H     H_    0.335806 0.119768 0.420744 0.160064
H24   H     H_    0.335636 0.879987 0.420891 0.164993
H25   H     H_    0.305879 0.119085 0.532130 0.143745
H26   H     H_    0.305997 0.881255 0.532316 0.142550
H27   H     H_    0.553861 0.119097 0.367863 0.162824
H28   H     H_    0.553685 0.880703 0.367832 0.167948
C27   C     C_3   0.583883 0.081215 0.431308 -0.230441
C28   C     C_3   0.583825 0.918617 0.431276 -0.229673
C29   C     C_3   0.543521 0.081232 0.580547 -0.231779
C30   C     C_3   0.543609 0.918920 0.580525 -0.232465
N1    N     N_3   0.499750 0.138610 0.498180 -0.037061
N2    N     N_3   0.499750 0.861390 0.498180 -0.037467
H29   H     H_    0.639707 0.120062 0.594706 0.144129
H30   H     H_    0.639868 0.880204 0.594585 0.143792
H31   H     H_    0.481801 0.118692 0.632797 0.154748
H32   H     H_    0.482035 0.881467 0.632817 0.154879
H33   H     H_    0.681435 0.119549 0.440906 0.143740
H34   H     H_    0.681363 0.880197 0.440800 0.142566
N3    N     N_R   0.327476 0.694663 0.079597 0.245699
O9    O     O_R   0.223382 0.662329 0.040951 -0.349180
O10   O     O_R   0.323326 0.781973 0.142312 -0.382867
N4    N     N_R   0.267626 0.380079 0.083547 0.245348
O11   O     O_R   0.239889 0.441725 0.154589 -0.350964
O12   O     O_R   0.186949 0.292431 0.052819 -0.376327

loop_
_geom_bond_atom_site_label_1
_geom_bond_atom_site_label_2
_geom_bond_distance
_ccdc_geom_bond_type
C26   H26   1.112281 S    
C5    C8    1.552715 S    
C2    C16   1.397744 S    
C23   C24   1.549533 S    
H27   C27   1.111903 S    
C6    H3    1.114550 S    
C30   H32   1.112062 S    
Zn1   N2    2.002885 S    
C5    N3    1.469388 S    
N3    O9    1.302128 A    
Zn1   O7    1.971264 S    
Zn2   N1    2.002848 S    
C7    H5    1.113722 S    
C8    H6    1.113856 S    
C12   C13   1.541627 S    
C18   H14   1.113463 S    
O1    C1    1.277607 A    
O4    C2    1.282109 A    
O7    C4    1.281635 A    
H19   C21   1.113538 S    
C25   H23   1.112637 S    
C26   H24   1.112613 S    
C13   H7    1.113997 S    
C7    H2    1.113655 S    
C8    H1    1.112100 S    
O5    C3    1.277600 A    
C5    H4    1.115702 S    
C12   H9    1.113520 S    
C6    C7    1.552434 S    
C29   H31   1.112069 S    
C30   H30   1.112683 S    
C10   C15   1.441537 S    
C11   C14   1.438835 S    
O3    Zn1   1.970260 S    
C20   H16   1.113458 S    
N3    O10   1.301139 A    
C6    C10   1.572066 S    
H20   C21   1.113544 S    
C29   C30   1.574653 S    
C7    C11   1.549598 S    
N4    O12   1.301480 A    
C26   N2    1.487279 S    
C5    C10   1.566112 S    
C21   C22   1.549507 S    
C13   H8    1.113981 S    
C6    N4    1.474669 S    
H28   C28   1.111915 S    
C17   C19   1.518334 S    
C18   C20   1.534890 S    
C15   C16   1.185040 T    
C18   C22   1.549332 S    
Zn2   O8    1.970751 S    
C28   H34   1.112241 S    
C19   H15   1.114259 S    
C17   C22   1.554537 S    
C19   C23   1.554586 S    
O8    C4    1.281756 A    
O3    C2    1.282323 A    
C21   C24   1.535232 S    
C29   N1    1.486992 S    
C9    C14   1.185162 T    
Zn1   O5    2.004304 S    
O1    Zn1   2.005153 S    
Zn2   O6    2.004425 S    
O2    Zn2   2.005032 S    
C8    C11   1.546830 S    
H21   C24   1.113450 S    
N4    O11   1.301273 A    
O6    C3    1.282441 A    
O4    Zn2   1.970771 S    
C25   H25   1.112440 S    
C27   H33   1.112315 S    
O2    C1    1.282363 A    
C17   H11   1.114263 S    
C18   H12   1.113514 S    
C20   C23   1.549346 S    
C25   C26   1.575863 S    
C28   N2    1.487922 S    
C27   N1    1.487887 S    
C1    C22   1.448884 S    
C29   H29   1.112665 S    
C4    C9    1.398583 S    
C17   H13   1.114157 S    
H22   C24   1.113494 S    
C12   H10   1.113476 S    
C10   C13   1.555567 S    
C30   N2    1.486927 S    
C27   C28   1.577433 S    
C11   C12   1.546268 S    
C25   N1    1.487272 S    
C19   H17   1.114211 S    
C20   H18   1.113521 S    
C3    C23   1.449069 S    
