data_mof_unit_4085.cif
_audit_creation_date              2012-12-10T18:09:49-0500
_audit_creation_method            fapswitch 2.2
_symmetry_space_group_name_H-M    P1
_symmetry_Int_Tables_number       1
_space_group_crystal_system       triclinic
_cell_length_a                    10.638882
_cell_length_b                    12.737758
_cell_length_c                    13.041691
_cell_angle_alpha                 80.987431
_cell_angle_beta                  93.732557
_cell_angle_gamma                 102.0457
_cell_volume                      1706.13644149

loop_
_atom_site_label
_atom_site_type_symbol
_atom_type_description
_atom_site_fract_x
_atom_site_fract_y
_atom_site_fract_z
_atom_type_partial_charge
C1    C     C_R   0.490462 0.438759 0.691417 0.848862
C2    C     C_R   0.506849 0.447373 0.975643 0.085239
C3    C     C_R   0.550559 0.465360 0.873788 0.051249
C4    C     C_R   0.741575 0.500109 0.500374 0.838674
C5    C     C_R   0.551359 0.528659 0.039034 0.085176
C6    C     C_R   0.655353 0.615448 0.008142 0.157817
C7    C     C_R   0.709526 0.623224 0.912258 -0.217962
C8    C     C_R   0.656777 0.549716 0.845387 -0.202887
C9    C     C_R   0.494007 0.526361 0.132154 -0.261270
C10   C     C_R   0.653969 0.680709 0.172635 -0.219353
C11   C     C_R   0.485811 0.398944 0.802321 -0.136971
C12   C     C_3   0.121386 0.498598 0.499625 0.029559
C13   C     C_R   0.273852 0.085630 0.382524 -0.291027
C14   C     C_R   0.658494 0.800858 0.629709 0.563328
C15   C     C_R   0.654701 0.884744 0.686107 0.406966
C16   C     C_R   0.518029 0.560816 0.309210 0.856633
C17   C     C_R   0.576133 0.958230 0.646612 -0.320841
C18   C     C_R   0.508137 0.951035 0.551670 -0.083990
C19   C     C_R   0.490629 0.851142 0.512513 -0.015916
C20   C     C_R   0.448087 0.035671 0.499272 -0.055385
C21   C     C_R   0.340012 0.007462 0.433325 0.052404
C22   C     C_R   0.306115 0.903100 0.410166 -0.372988
C23   C     C_3   0.088253 0.592961 0.418907 -0.511010
C24   C     C_R   0.392968 0.832549 0.432638 0.573325
C25   C     C_R   0.496320 0.147813 0.502285 0.606968
C26   C     C_R   0.322372 0.193572 0.389801 -0.089716
C27   C     C_R   0.258506 0.499687 0.498599 0.931323
C28   C     C_3   0.900020 0.394907 0.459967 -0.324195
C29   C     C_3   0.041902 0.390054 0.470095 -0.405540
C30   C     C_3   0.946848 0.598769 0.427205 -0.548432
C31   C     C_3   0.936811 0.498546 0.613792 0.343125
C32   C     C_3   0.878479 0.498460 0.500913 0.034251
C33   C     C_3   0.622352 0.209689 0.641289 -0.218295
C34   C     C_3   0.085458 0.515219 0.609416 0.381128
C35   C     C_3   0.867123 0.795145 0.616386 -0.320201
C36   C     C_3   0.672427 0.921691 0.855845 -0.326013
C37   C     C_3   0.356608 0.777414 0.269603 -0.358361
C38   C     C_3   0.875163 0.405656 0.780543 -0.281156
C39   C     C_3   0.194856 0.496451 0.770030 -0.335674
C40   C     C_R   0.705012 0.691717 0.074873 -0.218954
C41   C     C_R   0.550225 0.595871 0.201557 -0.066837
C42   C     C_R   0.401018 0.301701 0.837337 -0.184338
C43   C     C_R   0.372360 0.275232 0.941705 -0.169686
C44   C     C_R   0.421420 0.348511 0.010139 -0.204517
H1    H     H_    0.866654 0.396546 0.377076 0.176212
H2    H     H_    0.394209 0.324428 0.089993 0.136706
H3    H     H_    0.307109 0.200062 0.968785 0.142967
H4    H     H_    0.845295 0.319262 0.504181 0.256327
H5    H     H_    0.701788 0.557415 0.772015 0.206816
H6    H     H_    0.271767 0.255254 0.352058 0.147212
H7    H     H_    0.221119 0.882281 0.361318 0.152395
H8    H     H_    0.188455 0.063871 0.334158 0.151741
H9    H     H_    0.560416 0.015227 0.693412 0.164702
H10   H     H_    0.056633 0.321318 0.530733 0.231668
H11   H     H_    0.072697 0.374296 0.394871 0.165038
H12   H     H_    0.126320 0.602229 0.617339 0.007645
H13   H     H_    0.899153 0.602238 0.348497 0.200890
H14   H     H_    0.106371 0.580481 0.338991 0.201796
H15   H     H_    0.911958 0.568140 0.644216 0.035192
H16   H     H_    0.528021 0.185110 0.679910 0.109480
H17   H     H_    0.659438 0.296752 0.641238 0.236509
H18   H     H_    0.694570 0.171516 0.690344 0.173132
H19   H     H_    0.899515 0.873187 0.647553 0.193915
H20   H     H_    0.861997 0.810674 0.529985 0.148621
H21   H     H_    0.942319 0.747209 0.640678 0.158597
H22   H     H_    0.572739 0.873030 0.864872 0.158914
H23   H     H_    0.941561 0.674589 0.457323 0.188989
H24   H     H_    0.673234 0.010035 0.845400 0.158284
H25   H     H_    0.726997 0.902843 0.929333 0.187921
H26   H     H_    0.417114 0.857194 0.238775 0.165491
H27   H     H_    0.252897 0.776734 0.252635 0.147596
H28   H     H_    0.379215 0.716370 0.226124 0.184461
H29   H     H_    0.905865 0.488621 0.801817 0.130632
H30   H     H_    0.934465 0.352782 0.827981 0.212315
H31   H     H_    0.773894 0.374182 0.802697 0.148580
H32   H     H_    0.131828 0.543863 0.799405 0.135710
H33   H     H_    0.286738 0.551043 0.744885 0.186180
H34   H     H_    0.148507 0.671946 0.433169 0.221630
H35   H     H_    0.216332 0.435459 0.835551 0.207539
H36   H     H_    0.699434 0.734197 0.227165 0.153034
H37   H     H_    0.791060 0.687144 0.888149 0.193023
H38   H     H_    0.786697 0.756426 0.053449 0.133665
H39   H     H_    0.408327 0.467210 0.155159 0.137456
H40   H     H_    0.352479 0.248632 0.783453 0.165189
N1    N     N_R   0.433240 0.222190 0.444680 -0.139643
N2    N     N_R   0.566070 0.776970 0.554790 -0.183040
O1    O     O_R   0.468120 0.366740 0.627160 -0.631409
O2    O     O_3   0.748147 0.736413 0.656013 -0.590827
O3    O     O_3   0.735119 0.895533 0.773999 -0.596654
O4    O     O_3   0.381002 0.746895 0.377377 -0.563173
O5    O     O_3   0.884967 0.397617 0.674470 -0.601471
O6    O     O_3   0.134577 0.442036 0.687914 -0.578540
O7    O     O_R   0.510770 0.544830 0.662520 -0.595244
O8    O     O_R   0.663880 0.410950 0.482330 -0.595354
O9    O     O_R   0.706530 0.589040 0.517700 -0.592157
O10   O     O_R   0.489230 0.455170 0.337480 -0.619370
O11   O     O_R   0.531880 0.633260 0.372840 -0.546788
O12   O     O_R   0.293470 0.410960 0.482300 -0.632379
O13   O     O_R   0.336120 0.589050 0.517670 -0.585137
O14   O     O_3   0.620744 0.182568 0.539980 -0.622086
Zn1   Zn    Zn3+2 0.471520 0.381090 0.476390 0.953169
Zn2   Zn    Zn3+2 0.528480 0.618910 0.523610 1.001421

loop_
_geom_bond_atom_site_label_1
_geom_bond_atom_site_label_2
_ccdc_geom_bond_type
C36   O3    S    
C1    O1    A    
C23   H14   S    
C27   O12   A    
C34   H12   S    
C12   C29   S    
C1    C11   S    
C19   N2    A    
C7    C8    A    
C12   C23   S    
C27   O13   A    
C37   O4    S    
C39   H33   S    
C21   C22   A    
C28   C29   S    
C26   H6    S    
C5    C6    A    
C36   H22   S    
C16   O11   A    
C29   H10   S    
C35   H21   S    
C4    O9    A    
C30   H13   S    
C11   C42   A    
C10   C40   A    
C18   C19   A    
C31   H15   S    
O1    Zn1   S    
O8    Zn1   S    
C2    C44   A    
C33   H18   S    
C35   H20   S    
C18   C20   A    
O11   Zn2   S    
O9    Zn2   S    
C37   H26   S    
C10   C41   A    
C44   H2    S    
C38   H31   S    
C28   H1    S    
C16   O10   A    
C12   C27   S    
C23   C30   S    
C40   H38   S    
C28   C32   S    
C42   H40   S    
C14   N2    A    
C3    C8    A    
C10   H36   S    
C29   H11   S    
C38   O5    S    
C39   H35   S    
C43   C44   A    
C5    C9    A    
C15   O3    S    
C13   H8    S    
C35   O2    S    
C25   O14   S    
C31   C32   S    
C25   N1    A    
C17   C18   A    
C31   C34   S    
C13   C21   A    
C39   H32   S    
C4    C32   S    
C9    H39   S    
C4    O8    A    
C33   H17   S    
C7    H37   S    
C33   H16   S    
C31   O5    S    
C37   H27   S    
C22   C24   A    
C13   C26   A    
C2    C5    A    
C42   C43   A    
C12   C34   S    
N2    Zn2   S    
C17   H9    S    
C39   O6    S    
N1    Zn1   S    
C36   H25   S    
C38   H30   S    
C15   C17   A    
C28   H4    S    
C30   H23   S    
C24   O4    S    
O7    Zn2   S    
C36   H24   S    
C6    C7    A    
O12   Zn1   S    
C9    C41   A    
C33   O14   S    
C2    C3    A    
C14   O2    S    
C30   C32   S    
C26   N1    A    
C8    H5    S    
C19   C24   A    
C6    C40   A    
C23   H34   S    
C34   O6    S    
C3    C11   A    
O13   Zn2   S    
C20   C21   A    
C1    O7    A    
C20   C25   A    
C37   H28   S    
C14   C15   A    
C35   H19   S    
O10   Zn1   S    
C43   H3    S    
C16   C41   S    
C22   H7    S    
C38   H29   S    
