data_mof_unit_1749.cif
_audit_creation_date              2012-12-10T17:37:17-0500
_audit_creation_method            fapswitch 2.2
_symmetry_space_group_name_H-M    P1
_symmetry_Int_Tables_number       1
_space_group_crystal_system       triclinic
_cell_length_a                    12.425526
_cell_length_b                    13.280072
_cell_length_c                    15.823196
_cell_angle_alpha                 75.913624
_cell_angle_beta                  101.558765
_cell_angle_gamma                 117.241344
_cell_volume                      2239.59823096

loop_
_atom_site_label
_atom_site_type_symbol
_atom_type_description
_atom_site_fract_x
_atom_site_fract_y
_atom_site_fract_z
_atom_type_partial_charge
C1    C     C_R   0.854881 0.286728 0.508445 0.799353
C2    C     C_3   0.005998 0.505314 0.916984 0.198974
C3    C     C_3   0.115151 0.574550 0.032003 -0.159808
C4    C     C_3   0.002487 0.503343 0.082317 0.195540
C5    C     C_3   0.034955 0.611919 0.954889 -0.159075
C6    C     C_3   0.922292 0.540686 0.006752 -0.158879
C7    C     C_1   0.006726 0.505690 0.825231 -0.092179
C8    C     C_1   0.000703 0.502288 0.174111 -0.082185
C9    C     C_R   0.274572 0.030207 0.397233 0.258105
C10   C     C_R   0.227882 0.835693 0.473805 -0.099102
C11   C     C_R   0.808848 0.088780 0.584141 -0.236114
C12   C     C_R   0.002016 0.502105 0.659699 0.855845
C13   C     C_R   0.723707 0.984247 0.622388 -0.211265
C14   C     C_R   0.599318 0.951975 0.598399 0.261846
C15   C     C_R   0.559962 0.017452 0.523548 0.060694
C16   C     C_R   0.647963 0.124904 0.485421 0.035012
C17   C     C_R   0.436380 0.982414 0.486851 0.018837
C18   C     C_R   0.399450 0.061405 0.425440 0.119067
C19   C     C_R   0.488307 0.166667 0.389650 -0.225208
C20   C     C_R   0.610402 0.193441 0.414263 -0.228874
C21   C     C_R   0.350407 0.868302 0.503960 -0.220106
C22   C     C_R   0.189011 0.917941 0.424394 -0.267060
C23   C     C_R   0.145005 0.713361 0.487476 0.800789
C24   C     C_R   0.771269 0.163672 0.521270 -0.103809
C25   C     C_R   0.369032 0.374032 0.662678 -0.325311
C26   C     C_R   0.753688 0.634821 0.374608 0.075913
C27   C     C_R   0.656976 0.664542 0.345645 -0.263496
C28   C     C_R   0.558719 0.619028 0.394835 -0.165396
C29   C     C_R   0.556419 0.544061 0.475132 -0.025538
C30   C     C_R   0.658133 0.515330 0.503808 0.204357
C31   C     C_R   0.454947 0.493360 0.526784 -0.032984
C32   C     C_R   0.467086 0.433653 0.612104 0.067932
C33   C     C_R   0.573368 0.423190 0.644658 -0.295602
C34   C     C_R   0.999995 0.500601 0.339994 0.805468
C35   C     C_R   0.655072 0.441134 0.587717 0.258924
C36   C     C_R   0.340758 0.497091 0.498185 -0.021350
C37   C     C_R   0.257208 0.374710 0.629449 0.470200
C38   C     C_3   0.973521 0.396720 0.044376 -0.158036
C39   C     C_3   0.893352 0.434091 0.967287 -0.162668
C40   C     C_1   0.005517 0.504802 0.749532 -0.199814
C41   C     C_1   0.999858 0.501477 0.249880 -0.181704
C42   C     C_3   0.086179 0.467930 0.992506 -0.159594
Cu1   Cu    Cu3+1 0.098270 0.475420 0.519690 0.955131
Cu2   Cu    Cu3+1 0.901730 0.524580 0.480310 0.946625
H1    H     H_    0.802401 0.376495 0.939183 0.122565
H2    H     H_    0.379179 0.801884 0.535840 0.204296
H3    H     H_    0.577440 0.375298 0.710301 0.161378
H4    H     H_    0.378292 0.323207 0.726221 0.141784
H5    H     H_    0.325312 0.546398 0.435924 0.132303
H6    H     H_    0.948249 0.308393 0.082484 0.126474
H7    H     H_    0.486697 0.645730 0.369672 0.132556
H8    H     H_    0.854962 0.570456 0.013980 0.126153
H9    H     H_    0.206154 0.632183 0.059985 0.126367
H10   H     H_    0.153432 0.438123 0.985160 0.126159
H11   H     H_    0.093767 0.893186 0.400829 0.157689
N1    N     N_R   0.246280 0.438200 0.549540 -0.203504
N2    N     N_R   0.754330 0.561180 0.450980 -0.197203
O1    O     O_R   0.972510 0.318130 0.524770 -0.570427
O2    O     O_R   0.806530 0.359650 0.491510 -0.566038
O3    O     O_R   0.082970 0.479240 0.637550 -0.544395
O4    O     O_R   0.916990 0.520750 0.604290 -0.545201
O5    O     O_R   0.193470 0.640350 0.508490 -0.589548
O6    O     O_R   0.027490 0.681870 0.475230 -0.590140
O7    O     O_R   0.083010 0.479250 0.395710 -0.579906
O8    O     O_R   0.917030 0.520760 0.362450 -0.595232
H12   H     H_    0.903119 0.115858 0.610803 0.159882
N3    N     N_2   0.516981 0.862315 0.656188 -0.452114
H13   H     H_    0.547085 0.801762 0.690755 0.249854
C43   C     C_3   0.470425 0.902006 0.711752 -0.704770
H14   H     H_    0.402470 0.826839 0.751063 0.227566
H15   H     H_    0.424908 0.955668 0.671797 0.241133
H16   H     H_    0.545773 0.953093 0.756994 0.220982
H17   H     H_    0.754424 0.933212 0.677107 0.138766
H18   H     H_    0.675026 0.270099 0.377581 0.172758
N4    N     N_2   0.153676 0.307400 0.676746 -0.380900
H19   H     H_    0.108965 0.224012 0.665374 0.220920
C44   C     C_3   0.168930 0.315090 0.768520 -0.709653
H20   H     H_    0.218038 0.264586 0.808228 0.197880
H21   H     H_    0.077971 0.279189 0.792078 0.227201
H22   H     H_    0.219283 0.406236 0.777909 0.243377
H23   H     H_    0.829210 0.671016 0.335526 0.124283
H24   H     H_    0.658148 0.723247 0.284509 0.138166
N5    N     N_2   0.692665 0.351872 0.601432 -0.349145
H25   H     H_    0.632947 0.288653 0.565860 0.261225
C45   C     C_3   0.723212 0.301382 0.689812 -0.692607
H26   H     H_    0.788322 0.266302 0.688177 0.225196
H27   H     H_    0.640218 0.229382 0.716855 0.199089
H28   H     H_    0.765500 0.366223 0.733653 0.226489
H29   H     H_    0.060254 0.700228 0.916743 0.126230
H30   H     H_    0.464470 0.226659 0.339183 0.183559
N6    N     N_2   0.234717 0.110155 0.340076 -0.438217
H31   H     H_    0.156862 0.106437 0.357064 0.254213
C46   C     C_3   0.224116 0.105660 0.248192 -0.729076
H32   H     H_    0.151456 0.021454 0.233685 0.223053
H33   H     H_    0.311649 0.118261 0.229660 0.234995
H34   H     H_    0.200338 0.175200 0.208028 0.230080

loop_
_geom_bond_atom_site_label_1
_geom_bond_atom_site_label_2
_ccdc_geom_bond_type
C3    C42   S    
C46   H32   S    
C11   C13   A    
C19   C20   A    
C4    C8    S    
C9    N6    S    
C44   H20   S    
C10   C22   A    
C26   C27   A    
C30   C35   A    
N5    H25   S    
C28   C29   A    
C38   C42   S    
C1    O2    A    
C5    C6    S    
C28   H7    S    
C9    C22   A    
C44   H22   S    
Cu2   O2    S    
C15   C16   A    
C30   N2    A    
C11   C24   A    
C18   C19   A    
C43   H15   S    
Cu1   O1    S    
C25   C37   A    
C37   N1    A    
C2    C39   S    
C23   O5    A    
C2    C7    S    
C7    C40   T    
C11   H12   S    
C16   C20   A    
C39   H1    S    
C25   C32   A    
C23   O6    A    
C37   N4    S    
C16   C24   A    
C13   C14   A    
Cu2   O8    S    
C34   C41   S    
C34   O8    A    
Cu1   O7    S    
C45   H27   S    
Cu2   O6    S    
Cu2   O4    S    
N3    H13   S    
C8    C41   T    
C4    C6    S    
N6    H31   S    
C35   N5    S    
C45   H26   S    
C17   C21   A    
N3    C43   S    
C12   C40   S    
C43   H16   S    
N4    H19   S    
C29   C30   A    
C36   N1    A    
N6    C46   S    
Cu1   N1    S    
C31   C32   A    
C14   C15   A    
Cu2   N2    S    
C14   N3    S    
C34   O7    A    
C17   C18   A    
C44   H21   S    
C20   H18   S    
N4    C44   S    
C25   H4    S    
Cu1   O3    S    
N5    C45   S    
C13   H17   S    
C26   H23   S    
Cu1   Cu2   S    
C33   H3    S    
C2    C5    S    
C3    C4    S    
C21   H2    S    
C45   H28   S    
C15   C17   A    
C31   C36   A    
C27   H24   S    
C4    C38   S    
C3    C5    S    
C10   C21   A    
C22   H11   S    
C38   H6    S    
C10   C23   S    
C46   H34   S    
C32   C33   A    
C29   C31   A    
C19   H30   S    
C1    O1    A    
C42   H10   S    
C12   O4    A    
C3    H9    S    
C38   C39   S    
C2    C42   S    
C33   C35   A    
C43   H14   S    
C26   N2    A    
C12   O3    A    
C9    C18   A    
C1    C24   S    
C46   H33   S    
C27   C28   A    
C6    C39   S    
C6    H8    S    
C5    H29   S    
C36   H5    S    
Cu1   O5    S    
