data_mof_unit_3622.cif
_audit_creation_date              2012-10-26T20:19:34-0400
_audit_creation_method            fapswitch 2.2
_symmetry_space_group_name_H-M    P1
_symmetry_Int_Tables_number       1
_space_group_crystal_system       triclinic
_cell_length_a                    10.73008
_cell_length_b                    10.856731
_cell_length_c                    9.580394
_cell_angle_alpha                 90.80988
_cell_angle_beta                  89.915014
_cell_angle_gamma                 93.02938
_cell_volume                      1114.38326045

loop_
_atom_site_label
_atom_site_type_symbol
_atom_type_description
_atom_site_fract_x
_atom_site_fract_y
_atom_site_fract_z
_atom_type_partial_charge
C1    C     C_R   0.510730 0.263497 0.499452 0.539405
C2    C     C_R   0.551862 0.068806 0.624408 0.018021
C3    C     C_R   0.524716 0.130357 0.499660 -0.021076
C4    C     C_R   0.259880 0.499401 0.499850 0.549904
C5    C     C_R   0.493536 0.062239 0.378605 -0.170415
C6    C     C_R   0.483713 0.934922 0.381846 -0.169879
C7    C     C_R   0.493534 0.873113 0.508505 -0.012220
C8    C     C_R   0.669503 0.661650 0.146245 -0.088864
C9    C     C_R   0.753888 0.738989 0.074886 -0.183672
C10   C     C_R   0.754134 0.738486 0.931064 -0.169324
C11   C     C_R   0.669505 0.661141 0.857915 -0.096886
C12   C     C_3   0.878114 0.499818 0.499007 0.055148
C13   C     C_R   0.583531 0.579013 0.926313 0.098508
C14   C     C_R   0.583569 0.579007 0.075822 0.136742
C15   C     C_R   0.419911 0.425187 0.073603 -0.017249
C16   C     C_R   0.495284 0.737950 0.502168 0.527212
C17   C     C_R   0.420239 0.422811 0.923646 0.371909
C18   C     C_R   0.740100 0.500122 0.499746 0.525326
C19   C     C_3   0.065461 0.385440 0.577199 -0.234590
C20   C     C_3   0.921565 0.384770 0.575656 -0.238942
C21   C     C_3   0.078350 0.618097 0.572273 -0.234699
C22   C     C_3   0.071290 0.495185 0.347063 -0.231003
C23   C     C_3   0.934450 0.617578 0.573643 -0.240076
C24   C     C_3   0.121828 0.499494 0.499138 0.045322
C25   C     C_3   0.305044 0.234124 0.907641 -0.028389
C26   C     C_3   0.247933 0.145462 0.798062 -0.356331
C27   C     C_3   0.928723 0.496740 0.346985 -0.228074
C28   C     C_R   0.610275 0.129766 0.740595 -0.091428
C29   C     C_R   0.609569 0.074538 0.870818 -0.138926
C30   C     C_R   0.549310 0.959409 0.887355 -0.137249
C31   C     C_R   0.502454 0.893730 0.770980 -0.110612
C32   C     C_R   0.515685 0.942630 0.634740 0.018001
Cu1   Cu    Cu3+1 0.499990 0.499990 0.640660 0.956179
Cu2   Cu    Cu3+1 0.500010 0.500010 0.359340 0.898468
H1    H     H_    0.098552 0.387301 0.687273 0.158193
H2    H     H_    0.464987 0.884914 0.284809 0.135156
H3    H     H_    0.353962 0.367466 0.131745 0.102891
H4    H     H_    0.096667 0.299178 0.527158 0.104882
H5    H     H_    0.675778 0.671333 0.256365 0.183472
H6    H     H_    0.818726 0.800689 0.131929 0.109679
H7    H     H_    0.818727 0.800201 0.875458 0.116653
H8    H     H_    0.674046 0.671562 0.748078 0.185338
H9    H     H_    0.882980 0.299181 0.522659 0.104827
H10   H     H_    0.886182 0.383770 0.684946 0.125159
H11   H     H_    0.113696 0.624275 0.681464 0.130504
H12   H     H_    0.900286 0.579190 0.289685 0.122475
H13   H     H_    0.901353 0.621298 0.683628 0.123271
H14   H     H_    0.110536 0.575875 0.287890 0.130343
H15   H     H_    0.100167 0.410183 0.292140 0.118722
H16   H     H_    0.889273 0.413418 0.290156 0.130246
H17   H     H_    0.234473 0.244434 0.991475 0.104492
H18   H     H_    0.389414 0.192695 0.950627 0.125981
H19   H     H_    0.311331 0.138897 0.707118 0.180043
H20   H     H_    0.231985 0.052353 0.843348 0.093146
H21   H     H_    0.157244 0.178105 0.762191 0.128877
H22   H     H_    0.116973 0.701064 0.516777 0.106214
H23   H     H_    0.903323 0.701351 0.520953 0.098094
H24   H     H_    0.475506 0.107295 0.281020 0.128653
H25   H     H_    0.657358 0.219893 0.731882 0.134729
H26   H     H_    0.651025 0.123354 0.959983 0.106294
H27   H     H_    0.540637 0.919805 0.990240 0.118927
H28   H     H_    0.451418 0.808006 0.792253 0.150252
N1    N     N_R   0.501200 0.501210 0.147910 -0.270139
N2    N     N_R   0.501250 0.501290 0.852040 -0.236255
O1    O     O_R   0.499990 0.319640 0.618810 -0.465954
O2    O     O_R   0.500000 0.319660 0.381240 -0.509229
O3    O     O_R   0.317680 0.499970 0.618790 -0.452816
O4    O     O_R   0.317700 0.499990 0.381210 -0.513293
O5    O     O_R   0.500000 0.680340 0.618760 -0.540427
O6    O     O_R   0.500010 0.680360 0.381190 -0.521827
O7    O     O_R   0.682300 0.500010 0.618790 -0.536896
O8    O     O_R   0.682320 0.500030 0.381210 -0.526400
O9    O     O_3   0.334748 0.349462 0.845742 -0.524513

loop_
_geom_bond_atom_site_label_1
_geom_bond_atom_site_label_2
_ccdc_geom_bond_type
C21   H22   S    
C22   H14   S    
C27   H16   S    
C16   O6    A    
C29   C30   A    
C19   H4    S    
C4    O3    A    
C9    C10   A    
Cu2   O6    S    
C21   H11   S    
C19   C20   S    
C12   C23   S    
C29   H26   S    
Cu1   O5    S    
C30   C31   A    
C3    C5    A    
C26   H21   S    
C12   C20   S    
C25   H17   S    
C2    C3    A    
C25   H18   S    
Cu1   O1    S    
C19   H1    S    
C13   C14   A    
C10   H7    S    
C17   O9    S    
C11   C13   A    
C31   H28   S    
Cu2   O2    S    
C6    C7    A    
C13   N2    A    
C5    H24   S    
C22   H15   S    
C23   H23   S    
C14   N1    A    
C26   H20   S    
C27   H12   S    
Cu2   N1    S    
C20   H10   S    
Cu1   N2    S    
C6    H2    S    
C19   C24   S    
C25   O9    S    
C22   C27   S    
C21   C23   S    
C17   N2    A    
C18   O8    A    
C5    C6    A    
C4    C24   S    
C22   C24   S    
C21   C24   S    
C23   H13   S    
C10   C11   A    
Cu1   O7    S    
C12   C27   S    
C12   C18   S    
C26   H19   S    
Cu2   O8    S    
C20   H9    S    
Cu1   Cu2   S    
Cu1   O3    S    
C11   H8    S    
C2    C32   A    
C28   H25   S    
Cu2   O4    S    
C18   O7    A    
C15   C17   A    
C8    H5    S    
C15   N1    A    
C30   H27   S    
C28   C29   A    
C2    C28   A    
C7    C32   A    
C8    C14   A    
C15   H3    S    
C25   C26   S    
C4    O4    A    
C1    O1    A    
C9    H6    S    
C7    C16   S    
C16   O5    A    
C31   C32   A    
C8    C9    A    
C1    C3    S    
C1    O2    A    
