data_mof_unit_3400.cif
_audit_creation_date              2012-12-10T20:28:38-0500
_audit_creation_method            fapswitch 2.2
_symmetry_space_group_name_H-M    P1
_symmetry_Int_Tables_number       1
_space_group_crystal_system       triclinic
_cell_length_a                    10.699096
_cell_length_b                    10.612193
_cell_length_c                    9.926641
_cell_angle_alpha                 88.841692
_cell_angle_beta                  91.337205
_cell_angle_gamma                 90.692559
_cell_volume                      1126.4662132

loop_
_atom_site_label
_atom_site_type_symbol
_atom_type_description
_atom_site_fract_x
_atom_site_fract_y
_atom_site_fract_z
_atom_type_partial_charge
C1    C     C_R   0.517433 0.261225 0.501566 0.909010
C2    C     C_R   0.069528 0.560534 0.624035 0.109562
C3    C     C_R   0.130734 0.548018 0.500961 -0.154942
C4    C     C_R   0.062044 0.542438 0.381308 -0.186170
C5    C     C_R   0.935505 0.521931 0.384051 -0.225805
C6    C     C_R   0.876206 0.504921 0.507669 -0.129662
C7    C     C_R   0.557208 0.061346 0.625069 -0.040974
C8    C     C_R   0.559716 0.131693 0.505865 -0.246365
C9    C     C_R   0.603956 0.069627 0.391364 0.154133
C10   C     C_R   0.593374 0.936973 0.387004 0.160935
C11   C     C_R   0.541514 0.871933 0.499163 -0.186123
C12   C     C_R   0.262284 0.519143 0.499237 0.889236
C13   C     C_R   0.537842 0.935485 0.619708 -0.012380
C14   C     C_3   0.458667 0.930845 0.741869 0.005023
C15   C     C_3   0.490917 0.071132 0.755522 0.281325
C16   C     C_R   0.392443 0.475476 0.068291 0.079616
C17   C     C_R   0.601899 0.539363 0.073465 -0.115927
C18   C     C_R   0.600959 0.541611 0.929953 -0.165766
C19   C     C_R   0.393446 0.474038 0.926957 0.127132
C20   C     C_3   0.313965 0.358626 0.920355 -0.659536
C21   C     C_3   0.305207 0.362944 0.074768 0.656155
C22   C     C_R   0.508463 0.740399 0.498900 0.874726
C23   C     C_R   0.741080 0.497387 0.502384 0.828576
C24   C     C_R   0.128215 0.612858 0.739388 -0.166551
C25   C     C_R   0.068884 0.610202 0.862503 -0.157427
C26   C     C_R   0.956771 0.544279 0.875262 -0.165482
C27   C     C_R   0.897294 0.494877 0.761164 -0.185114
C28   C     C_R   0.945335 0.518732 0.631130 0.119664
H1    H     H_    0.106708 0.552518 0.286118 0.172019
H2    H     H_    0.495270 0.866950 0.823547 0.179032
H3    H     H_    0.408776 0.133300 0.750075 0.112084
H4    H     H_    0.685494 0.568154 0.128128 0.141456
H5    H     H_    0.682116 0.576190 0.878006 0.157817
H6    H     H_    0.224560 0.375786 0.864346 0.215878
H7    H     H_    0.368055 0.279011 0.884812 0.195449
H8    H     H_    0.218675 0.658307 0.734786 0.164292
H9    H     H_    0.112800 0.654586 0.948848 0.121550
H10   H     H_    0.915247 0.532290 0.973154 0.125708
H11   H     H_    0.816112 0.436340 0.777740 0.156314
H12   H     H_    0.884787 0.518193 0.288452 0.160797
N1    N     N_R   0.499160 0.499140 0.142800 -0.094265
N2    N     N_R   0.499160 0.499180 0.857150 -0.102367
O1    O     O_R   0.500020 0.316790 0.614690 -0.652408
O2    O     O_R   0.500000 0.316760 0.385350 -0.552384
O3    O     O_R   0.316770 0.500020 0.614690 -0.616673
O4    O     O_R   0.316760 0.499980 0.385350 -0.591218
O5    O     O_R   0.500000 0.683240 0.614650 -0.630573
O6    O     O_R   0.499980 0.683210 0.385310 -0.591585
O7    O     O_R   0.683240 0.500020 0.614650 -0.642081
O8    O     O_R   0.683230 0.499980 0.385310 -0.629406
Zn1   Zn    Zn3+2 0.500010 0.500020 0.653130 0.918544
Zn2   Zn    Zn3+2 0.499990 0.499980 0.346870 0.983763
O9    O     O_3   0.573109 0.089437 0.868507 -0.635841
C29   C     C_3   0.653803 0.194576 0.847965 0.138833
H13   H     H_    0.599725 0.281313 0.828890 0.185715
H14   H     H_    0.717608 0.178946 0.763185 0.151297
C30   C     C_3   0.735844 0.215299 0.972287 -0.885352
H15   H     H_    0.763016 0.123742 0.019897 0.294188
H16   H     H_    0.822106 0.267937 0.944896 0.204111
H17   H     H_    0.684849 0.273215 0.043796 0.249432
N3    N     N_2   0.183047 0.400553 0.120778 -0.284197
H18   H     H_    0.158785 0.489446 0.087280 0.176001
C31   C     C_3   0.078634 0.313376 0.107333 -0.802182
H19   H     H_    0.991144 0.361719 0.132655 0.221234
H20   H     H_    0.089275 0.233215 0.179168 0.265215
H21   H     H_    0.068338 0.279874 0.002403 0.227505
O10   O     O_3   0.358748 0.262767 0.153224 -0.567987
C32   C     C_3   0.323306 0.141937 0.106405 0.090776
H22   H     H_    0.402887 0.102061 0.052477 0.195606
H23   H     H_    0.240747 0.142268 0.036769 0.135300
C33   C     C_3   0.293462 0.054303 0.225005 -0.834369
H24   H     H_    0.213927 0.089848 0.282173 0.250916
H25   H     H_    0.269375 0.958805 0.187902 0.207014
H26   H     H_    0.374914 0.047124 0.294571 0.256900
N4    N     N_2   0.664026 0.136356 0.285463 -0.303415
H27   H     H_    0.606482 0.196352 0.231311 0.281975
C34   C     C_3   0.784141 0.190425 0.324167 -0.771424
H28   H     H_    0.825548 0.241147 0.237228 0.237283
H29   H     H_    0.849255 0.115035 0.358408 0.242203
H30   H     H_    0.773959 0.257898 0.406776 0.229829
N5    N     N_2   0.630670 0.871708 0.270829 -0.274982
H31   H     H_    0.616410 0.920854 0.181166 0.250144
C35   C     C_3   0.754815 0.819609 0.282982 -0.719306
H32   H     H_    0.775035 0.765943 0.191427 0.214683
H33   H     H_    0.762154 0.754940 0.372048 0.243737
H34   H     H_    0.825802 0.896209 0.293057 0.230055
N6    N     N_2   0.327540 0.910594 0.706427 -0.315684
H35   H     H_    0.310293 0.834592 0.645647 0.230562
C36   C     C_3   0.242880 0.916634 0.817286 -0.841179
H36   H     H_    0.145898 0.896891 0.780666 0.254374
H37   H     H_    0.245117 0.012342 0.859201 0.237240
H38   H     H_    0.268635 0.846214 0.897241 0.235179

loop_
_geom_bond_atom_site_label_1
_geom_bond_atom_site_label_2
_ccdc_geom_bond_type
C8    C9    A    
C7    C13   A    
C22   O6    A    
N6    H35   S    
C31   H20   S    
C16   C21   S    
C1    C8    S    
C19   C20   S    
N5    H31   S    
C7    C8    A    
O9    C29   S    
C26   C27   A    
C24   H8    S    
C15   O9    S    
C14   N6    S    
C16   C19   A    
C5    C6    A    
C23   O7    A    
O3    Zn1   S    
O4    Zn2   S    
N3    C31   S    
C3    C12   S    
C25   H9    S    
C20   H7    S    
C1    O1    A    
C6    C28   A    
C27   H11   S    
C32   H22   S    
O7    Zn1   S    
O8    Zn2   S    
C36   H37   S    
C9    C10   A    
N1    Zn2   S    
C21   N3    S    
C4    H1    S    
C19   N2    A    
N2    Zn1   S    
C20   H6    S    
O2    Zn2   S    
C7    C15   S    
C22   O5    A    
C31   H21   S    
C13   C14   S    
C21   O10   S    
C14   H2    S    
N5    C35   S    
C34   H29   S    
C29   H14   S    
O10   C32   S    
C24   C25   A    
C12   O4    A    
C33   H25   S    
C26   H10   S    
C30   H17   S    
O5    Zn1   S    
C25   C26   A    
C34   H28   S    
N4    H27   S    
C1    O2    A    
C35   H32   S    
O6    Zn2   S    
C17   C18   A    
C36   H38   S    
N4    C34   S    
C35   H33   S    
N6    C36   S    
C2    C24   A    
C3    C4    A    
C34   H30   S    
C29   H13   S    
C10   N5    S    
C12   O3    A    
C23   O8    A    
C33   H26   S    
C15   H3    S    
C11   C22   S    
C18   N2    A    
C2    C3    A    
C33   H24   S    
C11   C13   A    
O1    Zn1   S    
C30   H15   S    
C32   C33   S    
C6    C23   S    
N3    H18   S    
C18   H5    S    
C17   N1    A    
C30   H16   S    
C10   C11   A    
C31   H19   S    
C4    C5    A    
C35   H34   S    
C20   C21   S    
C32   H23   S    
C5    H12   S    
C27   C28   A    
C17   H4    S    
C14   C15   S    
C2    C28   A    
C9    N4    S    
C36   H36   S    
C16   N1    A    
C29   C30   S    
