data_mof_unit_375.cif
_audit_creation_date              2012-12-10T17:18:53-0500
_audit_creation_method            fapswitch 2.2
_symmetry_space_group_name_H-M    P1
_symmetry_Int_Tables_number       1
_space_group_crystal_system       triclinic
_cell_length_a                    9.574137
_cell_length_b                    10.863009
_cell_length_c                    13.367618
_cell_angle_alpha                 92.748241
_cell_angle_beta                  72.842365
_cell_angle_gamma                 90.468813
_cell_volume                      1326.8589413

loop_
_atom_site_label
_atom_site_type_symbol
_atom_type_description
_atom_site_fract_x
_atom_site_fract_y
_atom_site_fract_z
_atom_type_partial_charge
C1    C     C_R   0.503280 0.736845 0.491546 0.797472
C2    C     C_R   0.424316 0.545696 0.984984 0.022922
C3    C     C_R   0.466131 0.561511 0.875457 0.055035
C4    C     C_R   0.534197 0.556485 0.036823 0.096805
C5    C     C_R   0.670745 0.610205 0.986022 0.163997
C6    C     C_R   0.697655 0.649293 0.884352 -0.244757
C7    C     C_R   0.597209 0.624345 0.829453 -0.184420
C8    C     C_R   0.516567 0.506623 0.134295 -0.198893
C9    C     C_R   0.752796 0.583169 0.138815 -0.189311
C10   C     C_R   0.372875 0.518199 0.816403 -0.106910
C11   C     C_R   0.275719 0.876176 0.428976 -0.140921
C12   C     C_R   0.421629 0.506920 0.700563 0.801334
C13   C     C_R   0.142005 0.933488 0.440287 -0.145893
C14   C     C_R   0.112344 0.048386 0.492131 -0.157429
C15   C     C_R   0.221675 0.111247 0.522757 -0.166869
C16   C     C_R   0.364045 0.059863 0.501042 0.095930
C17   C     C_R   0.382234 0.933952 0.469589 0.086904
C18   C     C_R   0.504881 0.870501 0.481719 -0.114352
C19   C     C_R   0.621966 0.937117 0.498973 -0.208443
C20   C     C_R   0.616553 0.064346 0.507848 -0.213413
C21   C     C_R   0.488966 0.127561 0.509218 -0.113367
C22   C     C_R   0.910997 0.335090 0.361236 -0.135527
C23   C     C_R   0.496062 0.262338 0.505539 0.785825
C24   C     C_R   0.010054 0.253532 0.294085 -0.196000
C25   C     C_R   0.153719 0.252689 0.294577 -0.174278
C26   C     C_R   0.199183 0.333427 0.362196 -0.121198
C27   C     C_R   0.101751 0.417729 0.432640 0.228220
C28   C     C_R   0.952091 0.418116 0.432422 0.225279
C29   C     C_R   0.901296 0.579806 0.562463 -0.053112
C30   C     C_R   0.049038 0.579354 0.562906 -0.063609
C31   C     C_R   0.578031 0.502807 0.299974 0.779208
C32   C     C_R   0.778828 0.623362 0.037445 -0.206448
C33   C     C_R   0.620434 0.525836 0.188008 -0.067359
C34   C     C_R   0.230847 0.480383 0.869394 -0.252067
C35   C     C_R   0.180625 0.487924 0.978128 -0.167914
C36   C     C_R   0.274327 0.522638 0.036777 0.241746
Cu1   Cu    Cu3+1 0.359340 0.500010 0.500010 0.932281
Cu2   Cu    Cu3+1 0.640660 0.499990 0.499990 0.936297
H1    H     H_    0.834269 0.599496 0.179423 0.196259
H2    H     H_    0.295084 0.787686 0.386586 0.187634
H3    H     H_    0.059878 0.887074 0.411601 0.153427
H4    H     H_    0.005519 0.090246 0.506630 0.138009
H5    H     H_    0.189954 0.197500 0.566714 0.167538
H6    H     H_    0.712236 0.113153 0.515610 0.162844
H7    H     H_    0.826529 0.646426 0.612473 0.121106
H8    H     H_    0.804283 0.329550 0.352993 0.196631
H9    H     H_    0.974991 0.191006 0.240782 0.152381
H10   H     H_    0.231020 0.189279 0.241866 0.153710
H11   H     H_    0.312041 0.325594 0.355127 0.192543
H12   H     H_    0.798662 0.695488 0.845842 0.137152
H13   H     H_    0.083929 0.644485 0.614358 0.139107
H14   H     H_    0.882511 0.666123 0.999782 0.150218
H15   H     H_    0.422887 0.450551 0.169116 0.183673
H16   H     H_    0.156215 0.448692 0.826652 0.170720
H17   H     H_    0.066890 0.468692 0.017066 0.172741
H18   H     H_    0.620927 0.659207 0.752174 0.156595
H19   H     H_    0.718391 0.890959 0.505844 0.161934
N1    N     N_R   0.852480 0.498790 0.499000 -0.196888
N2    N     N_R   0.148360 0.498710 0.498970 -0.200871
O1    O     O_R   0.381190 0.680360 0.500010 -0.586690
O2    O     O_R   0.618760 0.680340 0.500000 -0.583996
O3    O     O_R   0.323240 0.499990 0.650990 -0.581183
O4    O     O_R   0.560820 0.499960 0.650980 -0.577758
O5    O     O_R   0.381240 0.319660 0.500000 -0.616985
O6    O     O_R   0.618810 0.319640 0.499990 -0.599582
O7    O     O_R   0.439180 0.500040 0.349020 -0.580391
O8    O     O_R   0.676760 0.500010 0.349010 -0.591576
Br1   Br    Br    0.178990 0.569437 0.181651 -0.605067

loop_
_geom_bond_atom_site_label_1
_geom_bond_atom_site_label_2
_ccdc_geom_bond_type
C8    H15   S    
C31   O7    A    
C2    C4    A    
C30   H13   S    
C31   C33   S    
C24   C25   A    
C34   H16   S    
C16   C21   A    
C28   N1    A    
C12   O3    A    
C35   C36   A    
Cu2   O6    S    
C4    C8    A    
C14   H4    S    
C5    C32   A    
C30   N2    A    
Cu2   O2    S    
C13   H3    S    
C2    C3    A    
C1    C18   S    
C15   H5    S    
C10   C34   A    
C3    C10   A    
C22   C28   A    
C36   Br1   S    
C6    H12   S    
C31   O8    A    
C11   C13   A    
C25   H10   S    
C23   O6    A    
C26   C27   A    
C29   C30   A    
C10   C12   S    
C7    H18   S    
C9    C33   A    
C5    C6    A    
C25   C26   A    
C23   O5    A    
C22   H8    S    
Cu1   Cu2   S    
C17   C18   A    
C6    C7    A    
C3    C7    A    
C8    C33   A    
C21   C23   S    
Cu1   O7    S    
C11   H2    S    
C22   C24   A    
C26   H11   S    
Cu1   O1    S    
C16   C17   A    
C35   H17   S    
C15   C16   A    
Cu2   O8    S    
C9    H1    S    
Cu1   O5    S    
C18   C19   A    
C29   N1    A    
C34   C35   A    
C1    O1    A    
C2    C36   A    
C27   C28   A    
Cu2   O4    S    
C12   O4    A    
Cu1   O3    S    
C14   C15   A    
C32   H14   S    
C27   N2    A    
C9    C32   A    
C20   H6    S    
C20   C21   A    
C13   C14   A    
C24   H9    S    
Cu2   N1    S    
C19   H19   S    
C11   C17   A    
Cu1   N2    S    
C19   C20   A    
C29   H7    S    
C4    C5    A    
C1    O2    A    
