data_mof_unit_500.cif
_audit_creation_date              2012-12-10T18:42:33-0500
_audit_creation_method            fapswitch 2.2
_symmetry_space_group_name_H-M    P1
_symmetry_Int_Tables_number       1
_space_group_crystal_system       triclinic
_cell_length_a                    8.609464
_cell_length_b                    10.608383
_cell_length_c                    9.937357
_cell_angle_alpha                 89.72527
_cell_angle_beta                  98.349543
_cell_angle_gamma                 91.145138
_cell_volume                      897.802526412

loop_
_atom_site_label
_atom_site_type_symbol
_atom_type_description
_atom_site_fract_x
_atom_site_fract_y
_atom_site_fract_z
_atom_type_partial_charge
C1    C     C_R   0.502044 0.260722 0.500451 0.926996
C2    C     C_R   0.370416 0.065207 0.532744 0.738325
C3    C     C_R   0.495541 0.871830 0.498710 -0.359572
C4    C     C_R   0.504485 0.128173 0.501262 -0.318424
C5    C     C_R   0.591698 0.584459 0.082748 -0.019495
C6    C     C_R   0.413372 0.411764 0.917763 -0.004810
C7    C     C_R   0.591899 0.584170 0.939048 -0.024059
C8    C     C_R   0.412592 0.412533 0.061812 0.002704
C9    C     C_2   0.779221 0.135157 0.437862 0.654227
C10   C     C_2   0.220749 0.864847 0.561995 0.657728
C11   C     C_2   0.688361 0.678749 0.166876 0.558358
C12   C     C_R   0.497977 0.739279 0.499548 0.947298
C13   C     C_2   0.319516 0.315941 0.832752 0.551049
C14   C     C_2   0.691949 0.675510 0.877774 0.541308
C15   C     C_2   0.312077 0.322190 0.124432 0.529026
C16   C     C_R   0.201883 0.498160 0.464842 0.869698
C17   C     C_R   0.798102 0.500590 0.535245 0.899682
C18   C     C_2   0.037772 0.487050 0.447272 0.333441
C19   C     C_2   0.962325 0.509118 0.553401 0.286947
C20   C     C_R   0.635948 0.065294 0.467892 -0.256239
C21   C     C_R   0.364054 0.934711 0.532028 -0.274958
C22   C     C_R   0.629597 0.934801 0.467181 0.677407
F1    F     F_    0.964874 0.446231 0.323605 -0.621087
F2    F     F_    0.035382 0.547713 0.677912 -0.632149
F3    F     F_    0.754965 0.867719 0.440967 -0.610843
F4    F     F_    0.245059 0.132312 0.558924 -0.613024
H1    H     H_    0.791919 0.235859 0.454758 0.012027
H2    H     H_    0.207973 0.764155 0.544959 0.029719
H3    H     H_    0.634386 0.761699 0.201182 0.089381
H4    H     H_    0.229421 0.343585 0.751505 0.133106
H5    H     H_    0.643046 0.762534 0.834358 0.055701
H6    H     H_    0.210423 0.354750 0.165675 0.125974
N1    N     N_R   0.499960 0.499970 0.857200 -0.149771
N2    N     N_R   0.500040 0.500030 0.142800 -0.151211
O1    O     O_R   0.499990 0.316750 0.614620 -0.609973
O2    O     O_2   0.114923 0.918565 0.606518 -0.414013
O3    O     O_2   0.830324 0.667398 0.192400 -0.454497
O4    O     O_2   0.342905 0.203884 0.852956 -0.484655
O5    O     O_2   0.831517 0.655931 0.880310 -0.445090
O6    O     O_2   0.342393 0.210221 0.130329 -0.499340
O7    O     O_R   0.500010 0.683250 0.385380 -0.629878
O8    O     O_R   0.499990 0.316780 0.385290 -0.616676
O9    O     O_R   0.500010 0.683220 0.614710 -0.655724
O10   O     O_R   0.271750 0.499990 0.587840 -0.627514
O11   O     O_R   0.728250 0.500010 0.412160 -0.575083
O12   O     O_R   0.271750 0.500010 0.358510 -0.615059
O13   O     O_R   0.728250 0.499990 0.641490 -0.568298
O14   O     O_2   0.885110 0.081425 0.393447 -0.424711
Zn1   Zn    Zn3+2 0.500000 0.499980 0.653120 1.013820
Zn2   Zn    Zn3+2 0.500000 0.500020 0.346880 1.022230

loop_
_geom_bond_atom_site_label_1
_geom_bond_atom_site_label_2
_ccdc_geom_bond_type
O10   Zn1   S    
O1    Zn1   S    
C2    C4    A    
C12   O7    A    
C10   H2    S    
C12   O9    A    
O12   Zn2   S    
C9    C20   S    
C6    N1    A    
C14   H5    S    
C1    C4    S    
C5    N2    A    
C2    C21   A    
C19   F2    S    
C15   H6    S    
C2    F4    S    
C8    N2    A    
C6    C13   S    
C7    N1    A    
C11   H3    S    
C13   O4    D    
O11   Zn2   S    
O8    Zn2   S    
C16   C18   S    
C17   C19   S    
C20   C22   A    
C5    C11   S    
C8    C15   S    
C5    C7    A    
C10   C21   S    
C15   O6    D    
C3    C21   A    
N2    Zn2   S    
N1    Zn1   S    
C18   F1    S    
C4    C20   A    
C1    O8    A    
C13   H4    S    
C9    H1    S    
C9    O14   D    
O13   Zn1   S    
C18   C19   D    
C16   O12   A    
C11   O3    D    
O7    Zn2   S    
C16   O10   A    
O9    Zn1   S    
C3    C22   A    
C6    C8    A    
C3    C12   S    
C1    O1    A    
C14   O5    D    
C7    C14   S    
C17   O13   A    
C17   O11   A    
C10   O2    D    
C22   F3    S    
