data_mof_unit_3455.cif
_audit_creation_date              2012-10-26T18:25:57-0400
_audit_creation_method            fapswitch 2.2
_symmetry_space_group_name_H-M    P1
_symmetry_Int_Tables_number       1
_space_group_crystal_system       triclinic
_cell_length_a                    11.769354
_cell_length_b                    8.852679
_cell_length_c                    7.722138
_cell_angle_alpha                 104.149037
_cell_angle_beta                  97.611664
_cell_angle_gamma                 102.845241
_cell_volume                      745.6430074

loop_
_atom_site_label
_atom_site_type_symbol
_atom_type_description
_atom_site_fract_x
_atom_site_fract_y
_atom_site_fract_z
_atom_type_partial_charge
C1    C     C_R   0.493916 0.198479 0.451678 0.558055
C2    C     C_2   0.525074 0.975449 0.569648 0.245036
C3    C     C_3   0.411316 0.895505 0.125392 -0.072658
C4    C     C_3   0.588685 0.104493 0.874608 -0.072656
C5    C     C_R   0.357022 0.319745 0.944437 0.181935
C6    C     C_R   0.288516 0.234808 0.049093 -0.078721
C7    C     C_R   0.180288 0.116132 0.980818 -0.158170
C8    C     C_R   0.132810 0.065247 0.797695 -0.104225
C9    C     C_R   0.195870 0.130595 0.684108 -0.154963
C10   C     C_R   0.303988 0.249991 0.754502 -0.077935
C11   C     C_R   0.642979 0.680253 0.055563 0.181935
C12   C     C_R   0.506084 0.801521 0.548322 0.558054
C13   C     C_R   0.711486 0.765188 0.950906 -0.078721
C14   C     C_R   0.819717 0.883857 0.019179 -0.158168
C15   C     C_R   0.867197 0.934737 0.202302 -0.104223
C16   C     C_R   0.804135 0.869394 0.315889 -0.154961
C17   C     C_R   0.696013 0.750006 0.245497 -0.077934
C18   C     C_R   0.283920 0.499065 0.496025 0.526779
C19   C     C_R   0.716080 0.500935 0.503974 0.526780
C20   C     C_1   0.161419 0.498652 0.490648 -0.004174
C21   C     C_1   0.838580 0.501348 0.509352 -0.004174
C22   C     C_1   0.059471 0.499348 0.495327 -0.033438
C23   C     C_1   0.940529 0.500652 0.504673 -0.033439
C24   C     C_2   0.474926 0.024550 0.430352 0.245037
Cu1   Cu    Cu3+1 0.512570 0.517380 0.684380 0.899823
Cu2   Cu    Cu3+1 0.487430 0.482620 0.315620 0.899823
H1    H     H_    0.506338 0.897252 0.128982 0.107526
H2    H     H_    0.161199 0.087266 0.538375 0.110695
H3    H     H_    0.333622 0.272570 0.642272 0.177218
H4    H     H_    0.688243 0.753628 0.812604 0.184846
H5    H     H_    0.865718 0.939007 0.928237 0.114497
H6    H     H_    0.950383 0.027349 0.256363 0.118093
H7    H     H_    0.838808 0.912721 0.461622 0.110693
H8    H     H_    0.666377 0.727430 0.357728 0.177217
H9    H     H_    0.388904 0.987747 0.063374 0.120439
H10   H     H_    0.357410 0.775774 0.035815 0.180206
H11   H     H_    0.493659 0.102747 0.871017 0.107529
H12   H     H_    0.642592 0.224227 0.964187 0.180205
H13   H     H_    0.611098 0.012247 0.936623 0.120440
H14   H     H_    0.311757 0.246373 0.187397 0.184847
H15   H     H_    0.134289 0.060980 0.071760 0.114498
H16   H     H_    0.049628 0.972629 0.743633 0.118095
N1    N     N_2   0.468500 0.456430 0.038520 -0.155556
N2    N     N_2   0.531500 0.543570 0.961480 -0.155557
O1    O     O_R   0.508170 0.286130 0.619770 -0.501231
O2    O     O_3   0.619151 0.083326 0.701568 -0.600722
O3    O     O_R   0.491830 0.713870 0.380230 -0.501231
O4    O     O_R   0.486940 0.256780 0.308360 -0.552660
O5    O     O_R   0.513060 0.743220 0.691640 -0.552661
O6    O     O_R   0.347810 0.514690 0.655710 -0.523783
O7    O     O_R   0.652190 0.485310 0.344290 -0.523783
O8    O     O_R   0.326590 0.485340 0.344300 -0.506919
O9    O     O_R   0.673410 0.514660 0.655700 -0.506918
O10   O     O_3   0.380849 0.916674 0.298432 -0.600723

loop_
_geom_bond_atom_site_label_1
_geom_bond_atom_site_label_2
_ccdc_geom_bond_type
N1    N2    D    
C1    O4    A    
C6    C7    A    
Cu2   O8    S    
C16   H7    S    
C9    C10   A    
C14   C15   A    
C4    H13   S    
Cu2   O4    S    
C14   H5    S    
C2    C12   S    
C19   O9    A    
C3    H1    S    
C12   O5    A    
C5    N1    S    
C18   O8    A    
C15   H6    S    
C4    O2    S    
C13   C14   A    
C2    O2    S    
C11   C13   A    
C10   H3    S    
C1    O1    A    
C16   C17   A    
C3    H10   S    
C12   O3    A    
Cu2   O3    S    
Cu1   N2    S    
C5    C10   A    
C19   C21   S    
C8    H16   S    
Cu2   N1    S    
C18   C20   S    
C7    H15   S    
C21   C23   T    
C2    C24   D    
C5    C6    A    
C3    O10   S    
Cu1   O5    S    
C7    C8    A    
C17   H8    S    
Cu1   O1    S    
C3    H9    S    
C15   C16   A    
C19   O7    A    
C13   H4    S    
C11   N2    S    
C6    H14   S    
C4    H11   S    
C18   O6    A    
C1    C24   S    
Cu1   O6    S    
C11   C17   A    
C4    H12   S    
Cu1   Cu2   S    
Cu2   O7    S    
C24   O10   S    
C22   C23   S    
Cu1   O9    S    
C9    H2    S    
C20   C22   T    
C8    C9    A    
