data_mof_unit_2484.cif
_audit_creation_date              2012-12-10T18:09:09-0500
_audit_creation_method            fapswitch 2.2
_symmetry_space_group_name_H-M    P1
_symmetry_Int_Tables_number       1
_space_group_crystal_system       triclinic
_cell_length_a                    12.74145
_cell_length_b                    13.046839
_cell_length_c                    13.636082
_cell_angle_alpha                 88.80911
_cell_angle_beta                  96.124256
_cell_angle_gamma                 98.270744
_cell_volume                      2230.39029538

loop_
_atom_site_label
_atom_site_type_symbol
_atom_type_description
_atom_site_fract_x
_atom_site_fract_y
_atom_site_fract_z
_atom_type_partial_charge
C1    C     C_R   0.558888 0.690924 0.517463 0.896221
C2    C     C_R   0.465270 0.034444 0.535303 0.113820
C3    C     C_R   0.364941 0.995068 0.567413 0.145407
C4    C     C_R   0.516671 0.497087 0.318582 0.898087
C5    C     C_R   0.347144 0.893363 0.601642 -0.218021
C6    C     C_R   0.424719 0.829323 0.596967 -0.158929
C7    C     C_R   0.479003 0.133136 0.494672 -0.189088
C8    C     C_R   0.304939 0.161499 0.534155 -0.180602
C9    C     C_R   0.595434 0.800574 0.538212 -0.185984
C10   C     C_R   0.900046 0.353663 0.644727 -0.275659
C11   C     C_R   0.211598 0.595967 0.359327 0.039456
C12   C     C_1   0.527858 0.496699 0.217487 -0.119933
C13   C     C_R   0.115716 0.566919 0.301660 -0.211633
C14   C     C_R   0.033100 0.506717 0.344341 -0.036659
C15   C     C_R   0.041377 0.489531 0.446877 0.076763
C16   C     C_R   0.440160 0.308666 0.490746 0.863690
C17   C     C_R   0.146356 0.495983 0.493032 0.212155
C18   C     C_R   0.954206 0.453736 0.502691 -0.120217
C19   C     C_R   0.978200 0.393428 0.587113 0.055150
C20   C     C_R   0.082618 0.376852 0.617530 -0.178861
C21   C     C_R   0.166215 0.431225 0.573409 -0.208945
C22   C     C_R   0.849263 0.484016 0.486212 0.411466
C23   C     C_R   0.284729 0.058711 0.565508 -0.150167
C24   C     C_R   0.798375 0.380185 0.627829 0.481319
C25   C     C_R   0.483213 0.502698 0.681394 0.859617
C26   C     C_1   0.471885 0.502462 0.782449 -0.120623
C27   C     C_2   0.455702 0.501613 0.970487 -0.186800
C28   C     C_2   0.544198 0.496172 0.029482 -0.116107
C29   C     C_1   0.537985 0.496290 0.132022 0.040533
C30   C     C_1   0.461885 0.502177 0.867946 0.037488
C31   C     C_R   0.403633 0.198810 0.500627 -0.055758
C32   C     C_R   0.701572 0.842182 0.527099 -0.269978
C33   C     C_R   0.732413 0.948943 0.527002 0.445682
C34   C     C_R   0.655418 0.014197 0.530570 -0.235645
C35   C     C_R   0.548119 0.973074 0.541440 0.021483
C36   C     C_R   0.522527 0.866559 0.559433 0.078431
H1    H     H_    0.620174 0.491941 0.001349 0.200634
H2    H     H_    0.245754 0.212337 0.539822 0.172873
H3    H     H_    0.272364 0.862520 0.629502 0.163956
H4    H     H_    0.208258 0.030115 0.591240 0.182259
H5    H     H_    0.550208 0.162005 0.460473 0.154260
H6    H     H_    0.760021 0.792098 0.516659 0.243776
H7    H     H_    0.681749 0.096614 0.528257 0.187467
H8    H     H_    0.554395 0.272500 0.743660 0.366361
H9    H     H_    0.729430 0.690634 0.324668 0.376032
H10   H     H_    0.943352 0.897860 0.614234 0.348705
H11   H     H_    0.408122 0.751097 0.624841 0.172432
H12   H     H_    0.100451 0.327290 0.680150 0.161326
H13   H     H_    0.921563 0.306644 0.708064 0.218369
H14   H     H_    0.278470 0.637061 0.325449 0.148267
H15   H     H_    0.964641 0.473514 0.297028 0.205804
H16   H     H_    0.107171 0.586628 0.224001 0.164589
H17   H     H_    0.244332 0.417004 0.600621 0.202842
H18   H     H_    0.379756 0.505912 0.998641 0.162011
N1    N     N_R   0.773270 0.445590 0.549770 -0.218608
N2    N     N_R   0.227520 0.553880 0.450750 -0.139816
O1    O     O_R   0.631100 0.627590 0.523760 -0.545392
O2    O     O_2   0.714090 0.428312 0.789510 -0.305842
O3    O     O_3   0.591572 0.285579 0.683458 -0.542428
O4    O     O_2   0.923372 0.654763 0.382774 -0.290468
O5    O     O_2   0.799185 0.518428 0.292289 -0.343471
O6    O     O_3   0.729019 0.651614 0.387793 -0.527408
O7    O     O_2   0.874235 0.036134 0.409754 -0.235611
O8    O     O_2   0.898626 0.093619 0.581157 -0.310809
O9    O     O_3   0.947600 0.912539 0.543083 -0.516384
O10   O     O_R   0.455900 0.662370 0.491970 -0.622947
O11   O     O_R   0.600200 0.480080 0.377830 -0.526440
O12   O     O_R   0.425000 0.514870 0.346040 -0.633127
O13   O     O_R   0.544100 0.337630 0.508030 -0.564137
O14   O     O_R   0.368900 0.372410 0.476240 -0.634607
O15   O     O_R   0.575000 0.485130 0.653960 -0.518468
O16   O     O_R   0.399800 0.519920 0.622170 -0.661557
O17   O     O_2   0.764121 0.256040 0.785654 -0.297007
S1    S     S_3+6 0.716287 0.337806 0.723691 0.051195
S2    S     S_3+6 0.824574 0.577259 0.387488 0.038796
S3    S     S_3+6 0.865719 0.001507 0.514718 0.040880
Zn1   Zn    Zn3+2 0.616980 0.476780 0.521230 1.085393
Zn2   Zn    Zn3+2 0.383020 0.523220 0.478770 0.929141

loop_
_geom_bond_atom_site_label_1
_geom_bond_atom_site_label_2
_ccdc_geom_bond_type
C2    C35   A    
C15   C18   A    
C12   C29   T    
O14   Zn2   S    
O17   S1    D    
C3    C23   A    
C19   C20   A    
O11   Zn1   S    
C27   H18   S    
O5    S2    D    
C16   C31   S    
O9    S3    S    
C28   C29   S    
C18   C19   A    
C5    C6    A    
N1    Zn1   S    
O7    S3    D    
H8    O3    S    
C23   H4    S    
H9    O6    S    
C8    C23   A    
N2    Zn2   S    
C34   C35   A    
O16   Zn2   S    
C9    C32   A    
O13   Zn1   S    
C2    C7    A    
C9    C36   A    
C25   O15   A    
C4    C12   S    
C13   C14   A    
C27   C30   S    
C8    H2    S    
C22   S2    S    
C33   C34   A    
O12   Zn2   S    
O10   Zn2   S    
C7    C31   A    
C6    H11   S    
C16   O13   A    
O1    Zn1   S    
C1    C9    S    
H10   O9    S    
C4    O12   A    
C10   C24   A    
C25   C26   S    
C17   C21   A    
C24   N1    A    
C35   C36   A    
C1    O1    A    
C13   H16   S    
C33   S3    S    
C14   H15   S    
O3    S1    S    
C10   C19   A    
C1    O10   A    
O8    S3    D    
C16   O14   A    
C25   O16   A    
C17   N2    A    
C20   H12   S    
C26   C30   T    
C5    H3    S    
O6    S2    S    
O15   Zn1   S    
O2    S1    D    
C15   C17   A    
C18   C22   A    
C8    C31   A    
C34   H7    S    
C3    C5    A    
C4    O11   A    
C22   N1    A    
O4    S2    D    
C32   C33   A    
C2    C3    A    
C11   H14   S    
C21   H17   S    
C11   C13   A    
C24   S1    S    
C28   H1    S    
C6    C36   A    
C7    H5    S    
C20   C21   A    
C27   C28   D    
C32   H6    S    
C14   C15   A    
C10   H13   S    
C11   N2    A    
