data_mof_unit_4107.cif
_audit_creation_date              2012-12-10T17:05:16-0500
_audit_creation_method            fapswitch 2.2
_symmetry_space_group_name_H-M    P1
_symmetry_Int_Tables_number       1
_space_group_crystal_system       triclinic
_cell_length_a                    10.038066
_cell_length_b                    10.704176
_cell_length_c                    15.492588
_cell_angle_alpha                 90.097624
_cell_angle_beta                  67.704299
_cell_angle_gamma                 89.928162
_cell_volume                      1540.20760109

loop_
_atom_site_label
_atom_site_type_symbol
_atom_type_description
_atom_site_fract_x
_atom_site_fract_y
_atom_site_fract_z
_atom_type_partial_charge
C1    C     C_R   0.496293 0.737255 0.506603 0.938254
C2    C     C_R   0.695699 0.380134 0.045826 0.174227
C3    C     C_R   0.568215 0.449425 0.093802 0.049246
C4    C     C_R   0.409692 0.499324 0.675933 0.867924
C5    C     C_R   0.795101 0.359217 0.088688 -0.197408
C6    C     C_R   0.767786 0.404998 0.178173 -0.243842
C7    C     C_R   0.551403 0.504557 0.178996 -0.237445
C8    C     C_2   0.571190 0.070832 0.546666 -0.204569
C9    C     C_2   0.501612 0.130322 0.500450 -0.351838
C10   C     C_2   0.583193 0.935374 0.543907 0.158158
C11   C     C_2   0.483416 0.868368 0.525834 -0.363399
C12   C     C_R   0.398131 0.461642 0.918378 0.089119
C13   C     C_2   0.106127 0.425278 0.447775 0.155462
C14   C     C_2   0.952572 0.420413 0.452904 -0.211247
C15   C     C_R   0.500151 0.262587 0.500059 0.942337
C16   C     C_R   0.590095 0.498159 0.324075 0.870386
C17   C     C_R   0.351741 0.497036 0.777508 -0.106390
C18   C     C_R   0.643799 0.475880 0.223909 -0.053476
C19   C     C_R   0.170184 0.556685 0.926277 0.092403
C20   C     C_R   0.215186 0.544587 0.829782 -0.181568
C21   C     C_R   0.440035 0.453574 0.821665 -0.270904
C22   C     C_R   0.262429 0.516987 0.971293 0.121918
C23   C     C_R   0.493665 0.426021 0.962189 0.061396
C24   C     C_R   0.461506 0.463109 0.055405 0.067769
C25   C     C_R   0.322361 0.510058 0.108123 -0.220147
C26   C     C_R   0.224216 0.534679 0.067049 -0.252697
C27   C     C_R   0.620727 0.355884 0.915697 -0.289272
C28   C     C_R   0.719993 0.331998 0.956989 0.071768
H1    H     H_    0.120114 0.571944 0.110784 0.149270
H2    H     H_    0.840022 0.380979 0.212740 0.159635
H3    H     H_    0.146557 0.578848 0.795264 0.164487
H4    H     H_    0.545637 0.420644 0.778019 0.162353
H5    H     H_    0.284718 0.525999 0.182339 0.146231
H6    H     H_    0.643880 0.314062 0.848158 0.145734
H7    H     H_    0.774297 0.945283 0.562958 0.166007
H8    H     H_    0.660198 0.834394 0.624726 0.181615
H9    H     H_    0.172174 0.251124 0.401454 0.162410
H10   H     H_    0.212224 0.360805 0.317245 0.162111
H11   H     H_    0.903789 0.305333 0.844381 0.193295
H12   H     H_    0.892118 0.304961 0.054436 0.172124
H13   H     H_    0.814657 0.172868 0.891906 0.187832
H14   H     H_    0.053891 0.698263 0.006811 0.184760
H15   H     H_    0.970361 0.557509 0.027649 0.200592
H16   H     H_    0.626510 0.122851 0.583478 0.160158
H17   H     H_    0.448175 0.083864 0.460319 0.144157
H18   H     H_    0.384486 0.910590 0.526943 0.134554
H19   H     H_    0.073219 0.552858 0.548570 0.130855
H20   H     H_    0.925624 0.347586 0.413512 0.164334
H21   H     H_    0.879014 0.572272 0.531905 0.166216
H22   H     H_    0.463459 0.567739 0.213948 0.149277
N1    N     N_2   0.148330 0.498670 0.499030 -0.182965
N2    N     N_2   0.852680 0.498640 0.499000 -0.192518
N3    N     N_3   0.701844 0.877339 0.559314 -0.416662
N4    N     N_3   0.209248 0.342486 0.384202 -0.378601
N5    N     N_3   0.846822 0.260124 0.907422 -0.474084
N6    N     N_3   0.034986 0.617200 0.975511 -0.466104
O1    O     O_R   0.386950 0.680940 0.500010 -0.624729
O2    O     O_R   0.613110 0.680900 0.499990 -0.579417
O3    O     O_R   0.322330 0.500030 0.632270 -0.619438
O4    O     O_R   0.548480 0.499990 0.632240 -0.615493
O5    O     O_R   0.386890 0.319100 0.500010 -0.592634
O6    O     O_R   0.613050 0.319060 0.499990 -0.611651
O7    O     O_R   0.451520 0.500010 0.367760 -0.588739
O8    O     O_R   0.677670 0.499970 0.367730 -0.610327
Zn1   Zn    Zn3+2 0.349000 0.500030 0.500020 0.948872
Zn2   Zn    Zn3+2 0.651000 0.499970 0.499980 0.940317

loop_
_geom_bond_atom_site_label_1
_geom_bond_atom_site_label_2
_ccdc_geom_bond_type
C19   N6    S    
C2    C28   A    
C23   C24   A    
O7    Zn1   S    
C14   N2    D    
C9    H17   S    
C16   O7    A    
C1    O1    A    
H7    N3    S    
C19   C20   A    
H10   N4    S    
C7    C18   A    
C4    O4    A    
C2    C3    A    
C15   O5    A    
O4    Zn2   S    
C13   N1    D    
C1    O2    A    
O3    Zn1   S    
N2    Zn2   S    
C12   C23   A    
O8    Zn2   S    
C3    C24   A    
C14   H20   S    
H9    N4    S    
C12   C21   A    
C4    O3    A    
C8    C10   S    
C6    H2    S    
C15   O6    A    
O2    Zn2   S    
C3    C7    A    
C23   C27   A    
C27   H6    S    
C9    C15   S    
C5    C6    A    
C6    C18   A    
C21   H4    S    
C17   C21   A    
C2    C5    A    
N1    Zn1   S    
C10   C11   D    
C4    C17   S    
O5    Zn1   S    
H15   N6    S    
C19   C22   A    
C12   C22   A    
C24   C25   A    
C7    H22   S    
C26   H1    S    
C16   C18   S    
C13   N4    S    
C22   C26   A    
C5    H12   S    
O1    Zn1   S    
C27   C28   A    
C10   N3    S    
O6    Zn2   S    
H13   N5    S    
C11   H18   S    
H19   N1    S    
H8    N3    S    
C16   O8    A    
H14   N6    S    
C25   C26   A    
C13   C14   S    
C17   C20   A    
C28   N5    S    
H11   N5    S    
C8    H16   S    
H21   N2    S    
C25   H5    S    
C8    C9    D    
C20   H3    S    
C1    C11   S    
