data_mof_unit_2142.cif
_audit_creation_date              2012-12-11T14:33:44-0500
_audit_creation_method            fapswitch 2.2
_symmetry_space_group_name_H-M    P1
_symmetry_Int_Tables_number       1
_space_group_crystal_system       triclinic
_cell_length_a                    13.849092
_cell_length_b                    13.973968
_cell_length_c                    27.312189
_cell_angle_alpha                 89.988927
_cell_angle_beta                  90.097627
_cell_angle_gamma                 119.633687
_cell_volume                      4594.29313565

loop_
_atom_site_label
_atom_site_type_symbol
_atom_type_description
_atom_site_fract_x
_atom_site_fract_y
_atom_site_fract_z
_atom_type_partial_charge
C1    C     C_R   0.233776 0.787423 0.568659 0.535721
C2    C     C_1   0.705438 0.862889 0.860399 -0.077378
C3    C     C_1   0.111929 0.880285 0.852428 -0.076718
C4    C     C_1   0.115699 0.230301 0.852196 -0.077275
C5    C     C_1   0.628391 0.815806 0.658999 -0.069578
C6    C     C_1   0.174898 0.818866 0.655894 -0.071526
C7    C     C_1   0.180598 0.357985 0.656242 -0.070044
C8    C     C_1   0.601247 0.796336 0.616682 -0.034021
C9    C     C_1   0.198431 0.807012 0.614827 -0.036463
C10   C     C_1   0.193250 0.392902 0.615133 -0.034999
C11   C     C_R   0.064805 0.150258 0.095954 0.579331
C12   C     C_R   0.212588 0.446482 0.568787 0.538949
C13   C     C_R   0.777466 0.884046 0.088368 0.547494
C14   C     C_R   0.116510 0.893623 0.088127 0.560639
C15   C     C_R   0.069291 0.160239 0.943238 0.540219
C16   C     C_R   0.779515 0.887076 0.950814 0.542320
C17   C     C_R   0.090556 0.929742 0.943367 0.537003
C18   C     C_R   0.618494 0.895721 0.361558 -0.133241
C19   C     C_R   0.097055 0.732494 0.362870 -0.134867
C20   C     C_R   0.264180 0.357298 0.363878 -0.135726
C21   C     C_R   0.644833 0.911334 0.311924 0.014234
C22   C     C_R   0.080485 0.743973 0.313192 0.014387
C23   C     C_R   0.552921 0.765336 0.568985 0.536177
C24   C     C_R   0.241177 0.306320 0.317789 0.013969
C25   C     C_R   0.681111 0.929160 0.210404 0.017109
C26   C     C_R   0.060613 0.759901 0.211513 0.016962
C27   C     C_R   0.200569 0.225470 0.221044 0.016984
C28   C     C_R   0.232456 0.788345 0.431833 0.548878
C29   C     C_R   0.211657 0.444444 0.431395 0.550822
C30   C     C_R   0.555617 0.767228 0.431918 0.549778
C31   C     C_R   0.653426 0.000799 0.234529 -0.137987
C32   C     C_R   0.977435 0.670758 0.237546 -0.127813
C33   C     C_R   0.302911 0.256275 0.243668 -0.123901
C34   C     C_3   0.650781 0.733917 0.790571 -0.222926
C35   C     C_R   0.635101 0.991796 0.285033 -0.130962
C36   C     C_R   0.987936 0.662138 0.288052 -0.128913
C37   C     C_R   0.323207 0.296721 0.291661 -0.128839
C38   C     C_R   0.704036 0.939534 0.160132 -0.150328
C39   C     C_R   0.050743 0.771034 0.161127 -0.135382
C40   C     C_R   0.182795 0.194796 0.171547 -0.128756
C41   C     C_R   0.728894 0.864809 0.137109 -0.003079
C42   C     C_R   0.135419 0.861293 0.136230 -0.004978
C43   C     C_R   0.082716 0.172327 0.148635 -0.008920
C44   C     C_R   0.659102 0.745099 0.364187 -0.131700
C45   C     C_3   0.242385 0.949711 0.783178 -0.224177
C46   C     C_R   0.265845 0.910943 0.362016 -0.128708
C47   C     C_R   0.076054 0.327765 0.368065 -0.130642
C48   C     C_R   0.683272 0.757939 0.314637 0.013536
C49   C     C_R   0.254143 0.920574 0.312291 0.013935
C50   C     C_R   0.052535 0.278687 0.322002 0.011775
C51   C     C_R   0.673641 0.839653 0.288074 0.063998
C52   C     C_R   0.162237 0.835957 0.287457 0.063377
C53   C     C_R   0.135997 0.269983 0.296205 0.062643
C54   C     C_R   0.708552 0.684709 0.290628 -0.126863
C55   C     C_R   0.337454 0.009774 0.286571 -0.127171
C56   C     C_3   0.062400 0.316160 0.786043 -0.222221
C57   C     C_R   0.949070 0.244861 0.300073 -0.129264
C58   C     C_R   0.720415 0.689753 0.240132 -0.127107
C59   C     C_R   0.331688 0.013486 0.235959 -0.129473
C60   C     C_R   0.930131 0.207661 0.251865 -0.122514
C61   C     C_R   0.710352 0.770096 0.213575 0.010908
C62   C     C_R   0.240633 0.930091 0.210979 0.014289
C63   C     C_R   0.013259 0.201340 0.225405 0.016559
C64   C     C_3   0.568516 0.866284 0.737281 0.057071
C65   C     C_3   0.129235 0.725646 0.738260 0.056013
C66   C     C_3   0.279686 0.385244 0.736853 0.056610
C67   C     C_3   0.626478 0.721084 0.734915 -0.242581
C68   C     C_R   0.688847 0.846746 0.237370 0.065259
C69   C     C_R   0.154264 0.841960 0.236650 0.063826
C70   C     C_R   0.116001 0.230415 0.247808 0.062017
C71   C     C_R   0.724830 0.776625 0.163569 -0.122913
C72   C     C_R   0.232764 0.936089 0.160794 -0.132596
C73   C     C_R   0.997121 0.171608 0.176180 -0.129377
C74   C     C_R   0.618774 0.808028 0.386775 -0.003653
C75   C     C_R   0.193327 0.813148 0.386455 -0.004049
C76   C     C_R   0.183139 0.372311 0.388186 -0.005191
C77   C     C_3   0.771117 0.918718 0.723301 -0.214132
C78   C     C_3   0.260124 0.930014 0.729099 -0.248011
C79   C     C_3   0.057140 0.855267 0.713582 -0.210786
C80   C     C_3   0.117242 0.198155 0.712469 -0.210845
C81   C     C_3   0.788452 0.934996 0.779424 -0.221932
C82   C     C_3   0.035751 0.863773 0.768681 -0.223285
C83   C     C_3   0.105217 0.165246 0.767168 -0.225828
C84   C     C_1   0.733448 0.873007 0.902690 -0.026438
C85   C     C_1   0.101980 0.901437 0.894200 -0.021769
C86   C     C_1   0.096253 0.199309 0.893989 -0.025417
C87   C     C_3   0.648897 0.831986 0.712009 0.088861
C88   C     C_3   0.153988 0.830724 0.707645 0.087904
C89   C     C_3   0.084495 0.354832 0.732084 -0.245347
C90   C     C_3   0.167081 0.324238 0.707826 0.087024
C91   C     C_3   0.586692 0.873481 0.793943 -0.184081
C92   C     C_3   0.118276 0.746452 0.793701 -0.181468
C93   C     C_3   0.258750 0.352482 0.792078 -0.181078
C94   C     C_3   0.682618 0.851601 0.807495 0.049077
C95   C     C_3   0.126390 0.860154 0.800854 0.048625
C96   C     C_3   0.135381 0.265466 0.800734 0.046784
C97   C     C_3   0.532211 0.972794 0.673163 -0.300740
C98   C     C_3   0.033255 0.570612 0.678511 -0.300566
C99   C     C_3   0.426542 0.420225 0.674907 -0.300221
Cr1   Cr    Cr6+3 0.164410 0.584450 0.499910 1.009751
Cr2   Cr    Cr6+3 0.415550 0.579960 0.499910 1.010468
Cr3   Cr    Cr6+3 0.420040 0.835590 0.499910 1.006340
Cr4   Cr    Cr6+3 0.155170 0.075460 0.019960 1.016151
Cr5   Cr    Cr6+3 0.924540 0.079710 0.019960 1.006279
Cr6   Cr    Cr6+3 0.920290 0.844830 0.019960 1.008335
H1    H     H_    0.605501 0.955636 0.808126 0.131632
H2    H     H_    0.719798 0.717149 0.798814 0.120372
H3    H     H_    0.251166 0.032723 0.787198 0.112896
H4    H     H_    0.972992 0.254134 0.790699 0.117959
H5    H     H_    0.706123 0.006795 0.139488 0.104595
H6    H     H_    0.975676 0.713254 0.141933 0.114087
H7    H     H_    0.248047 0.192688 0.150521 0.122026
H8    H     H_    0.588671 0.945637 0.379227 0.127175
H9    H     H_    0.039669 0.657785 0.382004 0.122624
H10   H     H_    0.346675 0.390521 0.379429 0.124200
H11   H     H_    0.645955 0.063629 0.214376 0.098291
H12   H     H_    0.038235 0.680779 0.808955 0.133310
H13   H     H_    0.905313 0.607012 0.218749 0.098391
H14   H     H_    0.368541 0.252646 0.223698 0.100579
H15   H     H_    0.612094 0.046792 0.302943 0.099427
H16   H     H_    0.924365 0.591172 0.307338 0.100359
H17   H     H_    0.404133 0.323521 0.307803 0.101559
H18   H     H_    0.742150 0.717179 0.145920 0.129467
H19   H     H_    0.298812 0.005343 0.141470 0.123361
H20   H     H_    0.918971 0.151541 0.158687 0.117951
H21   H     H_    0.737591 0.631026 0.221832 0.098456
H22   H     H_    0.397799 0.081979 0.216399 0.094394
H23   H     H_    0.312985 0.319488 0.804867 0.132610
H24   H     H_    0.852125 0.187950 0.234647 0.110570
H25   H     H_    0.715591 0.621457 0.310663 0.100864
H26   H     H_    0.408732 0.074690 0.305410 0.096731
H27   H     H_    0.884462 0.251559 0.319477 0.102696
H28   H     H_    0.661408 0.678877 0.383925 0.127271
H29   H     H_    0.338758 0.975105 0.380316 0.130525
H30   H     H_    0.012388 0.337240 0.386873 0.129458
H31   H     H_    0.827700 0.890662 0.708331 0.106573
H32   H     H_    0.078343 0.934276 0.695097 0.107328
H33   H     H_    0.034074 0.155140 0.694591 0.107417
H34   H     H_    0.481134 0.800691 0.730321 0.116800
H35   H     H_    0.794204 0.998522 0.705300 0.111460
H36   H     H_    0.980255 0.790397 0.695793 0.113084
H37   H     H_    0.169783 0.170283 0.693343 0.112099
H38   H     H_    0.809964 0.020631 0.789190 0.108998
H39   H     H_    0.952341 0.794956 0.778874 0.108734
H40   H     H_    0.160819 0.131370 0.775591 0.107907
H41   H     H_    0.859452 0.923907 0.790531 0.104109
H42   H     H_    0.034716 0.941252 0.775366 0.101388
H43   H     H_    0.018433 0.100059 0.774266 0.103919
H44   H     H_    0.538275 0.657185 0.728831 0.106363
H45   H     H_    0.201212 0.711210 0.734713 0.118013
H46   H     H_    0.331026 0.913986 0.726825 0.124105
H47   H     H_    0.119347 0.445569 0.730929 0.116274
H48   H     H_    0.679053 0.691498 0.716976 0.116768
H49   H     H_    0.282893 0.005885 0.707526 0.114066
H50   H     H_    0.004425 0.316669 0.711612 0.115967
H51   H     H_    0.576226 0.671983 0.810829 0.119738
H52   H     H_    0.308328 0.948640 0.806165 0.123919
H53   H     H_    0.080554 0.387250 0.810233 0.125158
H54   H     H_    0.657936 0.040420 0.726609 0.251059
H55   H     H_    0.511791 0.040222 0.673898 0.139315
H56   H     H_    0.311632 0.475667 0.734700 0.117661
H57   H     H_    0.454274 0.894021 0.666466 0.150674
H58   H     H_    0.591235 0.989189 0.642683 0.159579
H59   H     H_    0.954353 0.625392 0.727603 0.250779
H60   H     H_    0.971503 0.481709 0.681571 0.138486
H61   H     H_    0.116801 0.579242 0.673524 0.146654
H62   H     H_    0.011471 0.603534 0.645924 0.159212
H63   H     H_    0.348872 0.281882 0.720953 0.249440
H64   H     H_    0.510738 0.429226 0.676700 0.140623
H65   H     H_    0.435827 0.503738 0.672532 0.147120
H66   H     H_    0.384595 0.372662 0.641424 0.155740
H67   H     H_    0.508882 0.811709 0.812301 0.089357
H68   H     H_    0.185493 0.743348 0.814834 0.094119
H69   H     H_    0.280872 0.427001 0.814565 0.094962
N1    N     N_2   0.582905 0.970997 0.719323 -0.542458
N2    N     N_2   0.028722 0.626793 0.722248 -0.539286
N3    N     N_2   0.364394 0.361819 0.717942 -0.536636
O1    O     O_R   0.137150 0.468200 0.553200 -0.515132
O2    O     O_R   0.140110 0.470540 0.446010 -0.521143
O3    O     O_R   0.529460 0.669570 0.446010 -0.521084
O4    O     O_R   0.330430 0.859890 0.446010 -0.523493
O5    O     O_R   0.176710 0.690910 0.450560 -0.501165
O6    O     O_R   0.309090 0.485800 0.450560 -0.500511
O7    O     O_R   0.514200 0.823290 0.450560 -0.503152
O8    O     O_3   0.333333 0.666667 0.499990 -0.259247
O9    O     O_R   0.176750 0.985260 0.074180 -0.529860
O10   O     O_R   0.014740 0.191490 0.074180 -0.494380
O11   O     O_R   0.808510 0.823250 0.074180 -0.517271
O12   O     O_R   0.531800 0.668950 0.553200 -0.514434
O13   O     O_R   0.146100 0.172630 0.068980 -0.479106
O14   O     O_R   0.827370 0.973470 0.068980 -0.517717
O15   O     O_R   0.026530 0.853900 0.068980 -0.488832
O16   O     O_3   1.000000 1.000000 0.020040 -0.286534
O17   O     O_R   0.148270 0.170520 0.969620 -0.490444
O18   O     O_R   0.829480 0.977750 0.969620 -0.519910
O19   O     O_R   0.022250 0.851730 0.969620 -0.481911
O20   O     O_R   0.331050 0.862850 0.553200 -0.514571
O21   O     O_R   0.179100 0.982980 0.967000 -0.504201
O22   O     O_R   0.017020 0.196120 0.967000 -0.483148
O23   O     O_R   0.803880 0.820900 0.967000 -0.511111
O24   O     O_R   0.173970 0.688730 0.549930 -0.505112
O25   O     O_R   0.311270 0.485240 0.549930 -0.504230
O26   O     O_R   0.514760 0.826030 0.549930 -0.504344

loop_
_geom_bond_atom_site_label_1
_geom_bond_atom_site_label_2
_ccdc_geom_bond_type
C25   C31   A    
C65   C92   S    
C12   O1    A    
C26   C32   A    
C97   N1    S    
C55   C59   A    
Cr6   O19   S    
C18   C21   A    
C56   H4    S    
C57   H27   S    
C2    C84   T    
C91   H1    S    
C77   H35   S    
C21   C51   A    
C92   H12   S    
C1    O24   A    
C6    C9    T    
C13   C41   S    
C82   H42   S    
C40   H7    S    
C99   H65   S    
C27   C33   A    
Cr6   O16   S    
C25   C68   A    
C46   C49   A    
C91   H67   S    
C60   C63   A    
C17   C85   S    
C34   H2    S    
C32   C36   A    
Cr6   O11   S    
C71   H18   S    
C47   C76   A    
C99   N3    S    
Cr2   O12   S    
Cr2   O25   S    
C30   C74   S    
C73   H20   S    
C26   C39   A    
C89   H50   S    
C67   H44   S    
C59   H22   S    
H63   N3    S    
C93   H69   S    
C16   C84   S    
C8    C23   S    
C6    C88   S    
C20   C76   A    
C7    C10   T    
C65   H45   S    
C28   O5    A    
C39   C42   A    
C79   C88   S    
C56   H53   S    
C52   C69   A    
C83   H40   S    
C15   O17   A    
C43   C73   A    
C89   H47   S    
C20   C24   A    
C97   H58   S    
Cr5   O16   S    
C97   H57   S    
C45   H52   S    
C11   C43   S    
C45   C78   S    
Cr4   O17   S    
C12   O25   A    
C38   H5    S    
Cr1   O5    S    
C64   C87   S    
C98   H62   S    
C16   O23   A    
C45   H3    S    
C14   C42   S    
C14   O15   A    
C61   C71   A    
C58   C61   A    
C39   H6    S    
Cr1   O1    S    
C18   C74   A    
C13   O11   A    
H54   N1    S    
C72   H19   S    
Cr3   O4    S    
Cr6   O15   S    
C35   H15   S    
Cr4   O9    S    
C80   C83   S    
Cr2   O8    S    
C53   C70   A    
C18   H8    S    
C46   C75   A    
C78   H46   S    
C47   C50   A    
C79   C82   S    
Cr6   O23   S    
C4    C96   S    
C54   H25   S    
C66   N3    S    
C48   C51   A    
C50   C53   A    
Cr3   O8    S    
C97   H55   S    
C2    C94   S    
C19   C22   A    
C1    C9    S    
C38   C41   A    
C82   H39   S    
Cr1   O2    S    
Cr3   O20   S    
C29   C76   S    
C78   H49   S    
C57   C60   A    
C63   C73   A    
C19   H9    S    
C24   C53   A    
C49   C55   A    
C7    C90   S    
C92   C95   S    
C33   C37   A    
C37   H17   S    
C66   H56   S    
C23   O26   A    
C67   C87   S    
Cr4   O21   S    
C34   C67   S    
C48   C54   A    
Cr3   O26   S    
C14   O9    A    
C25   C38   A    
C46   H29   S    
C15   O22   A    
Cr1   O24   S    
C63   C70   A    
C77   C81   S    
C27   C40   A    
C49   C52   A    
C40   C43   A    
C42   C72   A    
C24   C37   A    
C62   C72   A    
C17   O21   A    
Cr4   O13   S    
C64   N1    S    
C44   C74   A    
C77   C87   S    
C98   H61   S    
C27   C70   A    
C10   C12   S    
C15   C86   S    
C99   H64   S    
C56   C89   S    
C77   H31   S    
C33   H14   S    
C93   C96   S    
C55   H26   S    
C66   C93   S    
C65   N2    S    
Cr5   O22   S    
C31   C35   A    
C3    C85   T    
C5    C8    T    
C45   C95   S    
C31   H11   S    
C23   O12   A    
C65   C88   S    
C22   C52   A    
C54   C58   A    
C78   C88   S    
C44   H28   S    
C56   C96   S    
Cr5   O10   S    
C59   C62   A    
C82   C95   S    
C29   O6    A    
C47   H30   S    
C98   N2    S    
C50   C57   A    
C30   O7    A    
C1    O20   A    
C34   C94   S    
C32   H13   S    
Cr2   O6    S    
C60   H24   S    
C20   H10   S    
C58   H21   S    
C21   C35   A    
C34   H51   S    
C92   H68   S    
C22   C36   A    
H59   N2    S    
C80   H37   S    
C13   O14   A    
C41   C71   A    
C67   H48   S    
C11   O13   A    
Cr3   O7    S    
C19   C75   A    
C36   H16   S    
C93   H23   S    
Cr2   O3    S    
C91   C94   S    
C81   C94   S    
Cr5   O14   S    
C61   C68   A    
C79   H36   S    
C11   O10   A    
C28   O4    A    
C80   H33   S    
C83   C96   S    
C66   C90   S    
Cr5   O18   S    
Cr1   O8    S    
C51   C68   A    
C80   C90   S    
C98   H60   S    
C83   H43   S    
C5    C87   S    
C81   H38   S    
C4    C86   T    
C62   C69   A    
C81   H41   S    
C29   O2    A    
C16   O18   A    
C26   C69   A    
C30   O3    A    
C17   O19   A    
C3    C95   S    
Cr4   O16   S    
C64   C91   S    
C89   C90   S    
C28   C75   S    
C79   H32   S    
C44   C48   A    
C99   H66   S    
C64   H34   S    
