data_mof_unit_237.cif
_audit_creation_date              2013-03-05T15:44:15-0500
_audit_creation_method            fapswitch 2.2
_symmetry_space_group_name_H-M    P1
_symmetry_Int_Tables_number       1
_space_group_crystal_system       triclinic
_cell_length_a                    19.66969
_cell_length_b                    10.968732
_cell_length_c                    19.44237
_cell_angle_alpha                 90.251039
_cell_angle_beta                  97.155206
_cell_angle_gamma                 90.117709
_cell_volume                      4162.00049898

loop_
_atom_site_label
_atom_site_type_symbol
_atom_site_description
_atom_site_fract_x
_atom_site_fract_y
_atom_site_fract_z
_atom_type_partial_charge
O1    O     O_R   0.783230 0.287800 0.346510 -0.540319
O2    O     O_R   0.216770 0.287800 0.653490 -0.533129
O3    O     O_R   0.283230 0.787800 0.346510 -0.541624
O4    O     O_R   0.716770 0.787800 0.653490 -0.534154
O5    O     O_R   0.760130 0.037060 0.338610 -0.501606
O6    O     O_R   0.239870 0.037060 0.661390 -0.507801
O7    O     O_R   0.260130 0.537060 0.338610 -0.504263
O8    O     O_R   0.739870 0.537060 0.661390 -0.511125
C1    C     C_R   0.706587 0.002638 0.366091 0.550019
C2    C     C_R   0.292578 0.999508 0.633448 0.552930
C3    C     C_R   0.206588 0.502634 0.366091 0.549022
C4    C     C_R   0.792578 0.499507 0.633448 0.550193
O9    O     O_R   0.666620 0.921370 0.332440 -0.518563
O10   O     O_R   0.333380 0.921370 0.667560 -0.517870
O11   O     O_R   0.166620 0.421370 0.332440 -0.518931
O12   O     O_R   0.833380 0.421370 0.667560 -0.521660
O13   O     O_R   0.557170 0.082420 0.312350 -0.525248
O14   O     O_R   0.442830 0.082420 0.687650 -0.506695
O15   O     O_R   0.057170 0.582420 0.312350 -0.524575
O16   O     O_R   0.942830 0.582420 0.687650 -0.515568
C5    C     C_R   0.534966 0.180179 0.337696 0.526882
C6    C     C_R   0.464634 0.179992 0.661993 0.546956
C7    C     C_R   0.034972 0.680179 0.337700 0.530969
C8    C     C_R   0.964634 0.679992 0.661991 0.536656
O17   O     O_R   0.548310 0.285980 0.316250 -0.500781
O18   O     O_R   0.451690 0.285980 0.683750 -0.509866
O19   O     O_R   0.048310 0.785980 0.316250 -0.497150
O20   O     O_R   0.951690 0.785980 0.683750 -0.513975
O21   O     O_R   0.680520 0.375500 0.327470 -0.480550
O22   O     O_R   0.319480 0.375500 0.672530 -0.510753
O23   O     O_R   0.180520 0.875500 0.327470 -0.482013
O24   O     O_R   0.819480 0.875500 0.672530 -0.513490
C9    C     C_R   0.740929 0.368931 0.359103 0.538716
C10   C     C_R   0.260263 0.364521 0.638775 0.563762
C11   C     C_R   0.240928 0.868931 0.359104 0.536909
C12   C     C_R   0.760263 0.864521 0.638775 0.561794
O25   O     O_R   0.780350 0.286970 0.193350 -0.504772
O26   O     O_R   0.219650 0.286970 0.806650 -0.486667
O27   O     O_R   0.280350 0.786970 0.193350 -0.498107
O28   O     O_R   0.719650 0.786970 0.806650 -0.486310
O29   O     O_R   0.757460 0.036290 0.196640 -0.475264
O30   O     O_R   0.242540 0.036290 0.803360 -0.462027
O31   O     O_R   0.257460 0.536290 0.196640 -0.469242
O32   O     O_R   0.742540 0.536290 0.803360 -0.463535
C13   C     C_R   0.722108 0.952319 0.163780 0.583352
C14   C     C_R   0.277143 0.950353 0.835198 0.575803
C15   C     C_R   0.222585 0.451028 0.164253 0.581705
C16   C     C_R   0.777036 0.450292 0.835085 0.589952
O33   O     O_R   0.663740 0.920540 0.179290 -0.496362
O34   O     O_R   0.336260 0.920540 0.820710 -0.512624
O35   O     O_R   0.163740 0.420540 0.179290 -0.496342
O36   O     O_R   0.836260 0.420540 0.820710 -0.499154
O37   O     O_R   0.554500 0.081650 0.170370 -0.475639
O38   O     O_R   0.445500 0.081650 0.829630 -0.501476
O39   O     O_R   0.054500 0.581650 0.170370 -0.487152
O40   O     O_R   0.945500 0.581650 0.829630 -0.487835
C17   C     C_R   0.528327 0.178356 0.142808 0.582083
C18   C     C_R   0.436167 0.182883 0.862811 0.615247
C19   C     C_R   0.030336 0.678431 0.141471 0.601044
C20   C     C_R   0.968832 0.678927 0.858967 0.605376
O41   O     O_R   0.545430 0.285140 0.163100 -0.515671
O42   O     O_R   0.454570 0.285140 0.836900 -0.483381
O43   O     O_R   0.045430 0.785140 0.163100 -0.497797
O44   O     O_R   0.954570 0.785140 0.836900 -0.497240
O45   O     O_R   0.677850 0.374730 0.185500 -0.479635
O46   O     O_R   0.322150 0.374730 0.814500 -0.496475
O47   O     O_R   0.177850 0.874730 0.185500 -0.481511
O48   O     O_R   0.822150 0.874730 0.814500 -0.482210
C21   C     C_R   0.736263 0.360720 0.164644 0.572761
C22   C     C_R   0.262950 0.364277 0.834065 0.574877
C23   C     C_R   0.236772 0.862426 0.165264 0.576102
C24   C     C_R   0.762929 0.864121 0.834067 0.588151
Cr1   Cr    Cr6+3 0.765830 0.160660 0.268180 1.048187
Cr2   Cr    Cr6+3 0.234170 0.160660 0.731820 1.048050
Cr3   Cr    Cr6+3 0.265830 0.660660 0.268180 1.047244
Cr4   Cr    Cr6+3 0.734170 0.660660 0.731820 1.058321
Cr5   Cr    Cr6+3 0.612110 0.009150 0.248770 1.043958
Cr6   Cr    Cr6+3 0.387890 0.009150 0.751230 1.039539
Cr7   Cr    Cr6+3 0.112110 0.509150 0.248770 1.044193
Cr8   Cr    Cr6+3 0.887890 0.509150 0.751230 1.046592
Cr9   Cr    Cr6+3 0.615930 0.324050 0.248450 1.055137
Cr10  Cr    Cr6+3 0.384070 0.324050 0.751550 1.050595
Cr11  Cr    Cr6+3 0.115930 0.824050 0.248450 1.064102
Cr12  Cr    Cr6+3 0.884070 0.824050 0.751550 1.048010
O49   O     O_3   0.664630 0.164620 0.255130 -0.269675
O50   O     O_3   0.335370 0.164620 0.744870 -0.301788
O51   O     O_3   0.164630 0.664620 0.255130 -0.265248
O52   O     O_3   0.835370 0.664620 0.744870 -0.265001
C25   C     C_1   0.485235 0.171988 0.594483 -0.003828
C26   C     C_1   0.512934 0.172728 0.404573 -0.013538
C27   C     C_1   0.985245 0.671986 0.594488 -0.001507
C28   C     C_1   0.012949 0.672728 0.404581 -0.013165
C29   C     C_1   0.502616 0.169348 0.464055 -0.066170
C30   C     C_1   0.494681 0.168877 0.534733 -0.058150
C31   C     C_1   0.002634 0.669346 0.464063 -0.066366
C32   C     C_1   0.994698 0.668874 0.534740 -0.057780
C33   C     C_3   0.705580 0.437510 0.522093 -0.086243
C34   C     C_3   0.274662 0.544831 0.493995 -0.127119
C35   C     C_3   0.205576 0.937534 0.522091 -0.086381
C36   C     C_3   0.774682 0.044807 0.493992 -0.127400
C37   C     C_3   0.740631 0.334654 0.486178 -0.139257
C38   C     C_3   0.302504 0.418729 0.518722 -0.144613
C39   C     C_3   0.240618 0.834664 0.486179 -0.138994
C40   C     C_3   0.802493 0.918683 0.518715 -0.144473
H1    H     H_    0.714561 0.247157 0.473139 0.107742
H2    H     H_    0.357354 0.394362 0.531714 0.126734
H3    H     H_    0.214537 0.747175 0.473142 0.107613
H4    H     H_    0.857337 0.894270 0.531699 0.127094
H5    H     H_    0.657719 0.429185 0.546567 0.126046
H6    H     H_    0.308963 0.620683 0.483213 0.125448
H7    H     H_    0.157714 0.929224 0.546564 0.126023
H8    H     H_    0.808994 0.120645 0.483210 0.125471
C41   C     C_3   0.753112 0.421578 0.427773 0.093406
C42   C     C_3   0.248548 0.413709 0.569315 0.092653
C43   C     C_3   0.253110 0.921579 0.427773 0.093718
C44   C     C_3   0.748544 0.913714 0.569317 0.093188
C45   C     C_3   0.717836 0.522590 0.462735 0.105990
C46   C     C_3   0.220750 0.536396 0.545266 0.087182
C47   C     C_3   0.217843 0.022605 0.462732 0.106014
C48   C     C_3   0.720775 0.036423 0.545272 0.087296
C49   C     C_3   0.788081 0.564003 0.500887 -0.147143
C50   C     C_3   0.168329 0.474554 0.490812 -0.111556
C51   C     C_3   0.288090 0.063999 0.500886 -0.147375
C52   C     C_3   0.668330 0.974621 0.490824 -0.111420
C53   C     C_3   0.823405 0.458686 0.465151 -0.141106
C54   C     C_3   0.197198 0.349279 0.514811 -0.120920
C55   C     C_3   0.323405 0.958668 0.465153 -0.141330
C56   C     C_3   0.697168 0.849323 0.514821 -0.120884
C57   C     C_3   0.811608 0.370291 0.524058 -0.124369
C58   C     C_3   0.251135 0.355055 0.463658 -0.127118
C59   C     C_3   0.311598 0.870281 0.524060 -0.124404
C60   C     C_3   0.751099 0.855044 0.463659 -0.127077
C61   C     C_3   0.776733 0.474021 0.559298 0.031939
C62   C     C_3   0.222418 0.479312 0.440092 0.031179
C63   C     C_3   0.276732 0.974025 0.559297 0.031044
C64   C     C_3   0.722413 0.979324 0.440095 0.030805
H9    H     H_    0.311026 0.154871 0.512696 0.098904
H10   H     H_    0.613424 0.998096 0.478295 0.120977
H11   H     H_    0.811009 0.654881 0.512698 0.099052
H12   H     H_    0.113418 0.497984 0.478276 0.120676
H13   H     H_    0.870857 0.467033 0.439991 0.126728
H14   H     H_    0.165636 0.271136 0.527578 0.131975
H15   H     H_    0.370859 0.966997 0.439994 0.126243
H16   H     H_    0.665582 0.771219 0.527598 0.132033
H17   H     H_    0.850117 0.306339 0.550126 0.133636
H18   H     H_    0.266658 0.286694 0.426615 0.125338
H19   H     H_    0.350101 0.806322 0.550131 0.134158
H20   H     H_    0.766596 0.786662 0.426613 0.126104
C65   C     C_3   0.500866 0.273083 0.978065 0.101220
C66   C     C_3   0.453912 0.269052 0.034727 0.091489
C67   C     C_3   0.026207 0.769476 0.976072 0.064185
C68   C     C_3   0.971684 0.769183 0.025422 0.064840
C69   C     C_3   0.545067 0.172802 0.013853 0.203385
C70   C     C_3   0.410249 0.170530 0.995125 0.209242
C71   C     C_3   0.065126 0.669409 0.017819 0.226022
C72   C     C_3   0.932317 0.669700 0.982668 0.223459
C73   C     C_3   0.498516 0.169421 0.071864 -0.014854
C74   C     C_3   0.456590 0.175218 0.937077 0.011010
C75   C     C_3   0.010522 0.669665 0.068479 0.016945
C76   C     C_3   0.987080 0.670638 0.932138 0.017326
C77   C     C_3   0.454435 0.068506 0.032531 -0.187836
C78   C     C_3   0.501772 0.072698 0.973492 -0.160425
C79   C     C_3   0.970863 0.567928 0.025585 -0.177268
C80   C     C_3   0.026231 0.568263 0.974097 -0.175848
H21   H     H_    0.434365 0.985625 0.055732 0.143594
H22   H     H_    0.522714 0.992674 0.948083 0.161533
H23   H     H_    0.946594 0.487052 0.046628 0.142040
H24   H     H_    0.050250 0.487670 0.952307 0.143193
C81   C     C_1   0.761075 0.421434 0.902841 0.057237
C82   C     C_1   0.236939 0.426602 0.095225 0.071198
C83   C     C_1   0.260827 0.919368 0.902667 0.073752
C84   C     C_1   0.736603 0.927371 0.095010 0.068746
C85   C     C_1   0.747350 0.405695 0.034158 0.047402
C86   C     C_1   0.249658 0.417703 0.963229 0.083774
C87   C     C_1   0.247730 0.905381 0.034381 0.070355
C88   C     C_1   0.750012 0.915302 0.963473 0.050245
C89   C     C_1   0.752949 0.411459 0.962819 0.048608
C90   C     C_1   0.244173 0.420935 0.034754 0.089684
C91   C     C_1   0.252897 0.909424 0.962780 0.078916
C92   C     C_1   0.744163 0.920222 0.034750 0.063681
C93   C     C_1   0.743193 0.394108 0.094945 0.056309
C94   C     C_1   0.254559 0.404263 0.902602 0.070593
C95   C     C_1   0.243747 0.895300 0.095363 0.068005
C96   C     C_1   0.754973 0.901802 0.902954 0.057447
N1    N     N_3   0.662945 0.590059 0.422424 -0.609616
H25   H     H_    0.631140 0.628401 0.455616 0.224973
H26   H     H_    0.683711 0.657817 0.393984 0.241051
N2    N     N_3   0.204271 0.628654 0.594735 -0.622088
H27   H     H_    0.248133 0.681412 0.608699 0.247383
H28   H     H_    0.166266 0.685267 0.570040 0.228418
N3    N     N_3   0.162959 0.090086 0.422417 -0.609484
H29   H     H_    0.131116 0.128326 0.455598 0.225127
H30   H     H_    0.183723 0.157919 0.394041 0.240900
N4    N     N_3   0.704328 0.128693 0.594749 -0.621659
H31   H     H_    0.748200 0.181440 0.608692 0.246574
H32   H     H_    0.666317 0.185312 0.570070 0.228726
N5    N     N_R   0.619604 0.172878 0.020677 0.057787
O53   O     O_R   0.655336 0.165113 0.081239 -0.349278
O54   O     O_R   0.650625 0.171946 0.965405 -0.387156
N6    N     N_R   0.336182 0.169036 0.988507 0.056535
O55   O     O_R   0.300942 0.164076 0.927719 -0.392077
O56   O     O_R   0.305126 0.165033 0.043693 -0.394182
N7    N     N_R   0.138933 0.668857 0.033411 0.054301
O57   O     O_R   0.167138 0.663519 0.097058 -0.349607
O58   O     O_R   0.176794 0.666170 0.983205 -0.383235
N8    N     N_R   0.858469 0.669724 0.966671 0.057815
O59   O     O_R   0.830609 0.665162 0.902858 -0.346044
O60   O     O_R   0.820154 0.667269 0.016515 -0.373930
N9    N     N_3   0.527832 0.385382 0.951868 -0.560981
H33   H     H_    0.555134 0.430712 0.993997 0.234601
H34   H     H_    0.563614 0.361134 0.918786 0.269903
N10   N     N_3   0.425494 0.375331 0.066129 -0.580971
H35   H     H_    0.466126 0.433056 0.084443 0.247827
H36   H     H_    0.403330 0.345368 0.109215 0.242504
N11   N     N_3   0.058415 0.876916 0.950222 -0.579818
H37   H     H_    0.085887 0.920499 0.992876 0.238230
H38   H     H_    0.019334 0.936581 0.931014 0.238985
N12   N     N_3   0.939862 0.876326 0.052266 -0.583242
H39   H     H_    0.912266 0.920100 0.010059 0.235140
H40   H     H_    0.979129 0.936036 0.071702 0.239316

loop_
_geom_bond_atom_site_label_1
_geom_bond_atom_site_label_2
_geom_bond_distance
_ccdc_geom_bond_type
C18   O42   1.300614 A    
Cr11  O51   1.992601 S    
N7    O57   1.293138 A    
O4    C12   1.257783 A    
O47   Cr11  1.914384 S    
C29   C30   1.402194 S    
C34   H6    1.107172 S    
C66   C73   1.529168 S    
O39   C19   1.268573 A    
C58   H18   1.106873 S    
C37   C57   1.543818 S    
C37   C41   1.528634 S    
C70   C77   1.546059 S    
N4    H32   1.044064 S    
C31   C32   1.402180 S    
C33   C61   1.544456 S    
C86   C94   1.203020 T    
O29   Cr1   1.936005 S    
O26   C22   1.268267 A    
C77   C78   1.566270 S    
N1    H25   1.041155 S    
O23   Cr11  1.948362 S    
O7    C3    1.295193 A    
N7    O58   1.299708 A    
O5    C1    1.295203 A    
C82   C90   1.203093 T    
C76   C80   1.540963 S    
C52   H10   1.108232 S    
C47   N3    1.457827 S    
C70   C74   1.537478 S    
C69   C78   1.539076 S    
C59   C63   1.532312 S    
N11   H38   1.044689 S    
O30   C14   1.279746 A    
C42   C54   1.538326 S    
N8    O60   1.299979 A    
N1    H26   1.040938 S    
O47   C23   1.276719 A    
O20   Cr12  2.028620 S    
C54   C58   1.543317 S    
O21   C9    1.270435 A    
O8    Cr4   1.936038 S    
O39   Cr7   1.955492 S    
C14   C83   1.430925 S    
N2    H28   1.044059 S    
C51   H9    1.104583 S    
C46   C50   1.537224 S    
C81   C89   1.202006 T    
C25   C30   1.199435 T    
N5    O54   1.300185 A    
C65   C69   1.519822 S    
O44   Cr12  2.072233 S    
C1    O9    1.305580 A    
C27   C32   1.199424 T    
C78   H22   1.110225 S    
C19   C75   1.426868 S    
C22   C94   1.430106 S    
C36   C40   1.545173 S    
C50   C62   1.539045 S    
O16   C8    1.278398 A    
C72   C79   1.539894 S    
C53   H13   1.110228 S    
N6    O55   1.294388 A    
C68   N12   1.457518 S    
C67   C68   1.525487 S    
C11   C43   1.444430 S    
C36   C48   1.546127 S    
O6    Cr2   1.936038 S    
O27   Cr3   2.058463 S    
O8    C4    1.296050 A    
C15   O35   1.273016 A    
C72   N8    1.447104 S    
C65   C74   1.536744 S    
Cr4   O52   1.975441 S    
C57   H17   1.110103 S    
O2    Cr2   2.066870 S    
O48   C24   1.274910 A    
C52   C56   1.539860 S    
C9    C41   1.444431 S    
O2    C10   1.257791 A    
O10   Cr6   2.066513 S    
N4    H31   1.044603 S    
O42   Cr10  2.072233 S    
C68   C75   1.525804 S    
Cr5   O49   1.987374 S    
O18   Cr10  2.028620 S    
C41   C53   1.533054 S    
C67   N11   1.457457 S    
C86   C90   1.408433 S    
C33   C45   1.529273 S    
C83   C91   1.203601 T    
C58   C62   1.526688 S    
C3    O11   1.305570 A    
C71   N7    1.445668 S    
O34   Cr6   2.037159 S    
Cr7   O51   1.987374 S    
C34   C46   1.546113 S    
O35   Cr7   2.033497 S    
C5    C26   1.423485 S    
O31   Cr3   1.936005 S    
C4    O12   1.301441 A    
O24   Cr12  1.953766 S    
O9    Cr5   2.075188 S    
O30   Cr2   1.945052 S    
C37   H1    1.100809 S    
C46   N2    1.457615 S    
O22   C10   1.268934 A    
C71   C75   1.545055 S    
N3    H29   1.041047 S    
O48   Cr12  1.912723 S    
C68   C72   1.519717 S    
C72   C76   1.545725 S    
O1    C9    1.263363 A    
C2    C63   1.462136 S    
C24   C96   1.427156 S    
N9    H33   1.045122 S    
C35   C39   1.533614 S    
C18   C74   1.452580 S    
C3    C62   1.457511 S    
O16   Cr8   1.918250 S    
N8    O59   1.293090 A    
C52   C64   1.539062 S    
C87   C91   1.409242 S    
O26   Cr2   2.050657 S    
Cr10  O50   1.988143 S    
C66   C70   1.523956 S    
O11   Cr7   2.075188 S    
C54   H14   1.104420 S    
C28   C31   1.199488 T    
C48   N4    1.457626 S    
O40   C20   1.265657 A    
C43   C55   1.533051 S    
O43   Cr11  2.068060 S    
N2    H27   1.044596 S    
O12   Cr8   2.066513 S    
C66   N10   1.457949 S    
O41   Cr9   2.068060 S    
C50   C54   1.539854 S    
O15   C7    1.278388 A    
N11   H37   1.045029 S    
N3    H30   1.040811 S    
C49   C53   1.554508 S    
C39   C43   1.528638 S    
C38   C42   1.535320 S    
C53   C57   1.542936 S    
O46   Cr10  1.912723 S    
C70   N6    1.446534 S    
O25   C21   1.266546 A    
C88   C92   1.405586 S    
O45   Cr9   1.914384 S    
O3    C11   1.263366 A    
C79   H23   1.110096 S    
C60   C64   1.526703 S    
C35   H7    1.110234 S    
O13   Cr5   1.915569 S    
C13   O33   1.271231 A    
C35   C63   1.544456 S    
C55   H15   1.110229 S    
O29   C13   1.273407 A    
Cr2   O50   1.975441 S    
O15   Cr7   1.915569 S    
C56   H16   1.104430 S    
Cr1   O49   1.975669 S    
C42   C46   1.507785 S    
C6    O18   1.272414 A    
C41   C45   1.511668 S    
C80   H24   1.110150 S    
Cr3   O51   1.975669 S    
O14   Cr6   1.918250 S    
N10   H36   1.045277 S    
O21   Cr9   1.948362 S    
C36   H8    1.107188 S    
C7    O19   1.272695 A    
C4    C61   1.462128 S    
C2    O10   1.301448 A    
O37   Cr5   1.955492 S    
C8    O20   1.272422 A    
C57   C61   1.532319 S    
C44   C56   1.538334 S    
C45   C49   1.550729 S    
C12   C44   1.448209 S    
C8    C27   1.423460 S    
C73   C77   1.544447 S    
C51   C55   1.554506 S    
C40   H4    1.110467 S    
C15   C82   1.429767 S    
O3    Cr3   2.056896 S    
C26   C29   1.199492 T    
C87   C95   1.203482 T    
O38   C18   1.306495 A    
O25   Cr1   2.058463 S    
C88   C96   1.201264 T    
C5    O17   1.272700 A    
C56   C60   1.543318 S    
O37   C17   1.271166 A    
O22   Cr10  1.953766 S    
O28   C24   1.266883 A    
O14   C6    1.278390 A    
C60   H20   1.106874 S    
C19   O43   1.264166 A    
C33   C37   1.533621 S    
O5    Cr1   1.944103 S    
C20   C76   1.426529 S    
C65   N9    1.458824 S    
O17   Cr9   2.029872 S    
C34   C62   1.546896 S    
O6    C2    1.296047 A    
O7    Cr3   1.944103 S    
O24   C12   1.268941 A    
C17   O41   1.265703 A    
C47   C51   1.550731 S    
C71   C80   1.537864 S    
C10   C42   1.448210 S    
C14   O34   1.273083 A    
C43   C47   1.511670 S    
C67   C71   1.518564 S    
O40   Cr8   1.948152 S    
N12   H40   1.044676 S    
C20   O44   1.263245 A    
C39   H3    1.100812 S    
O1    Cr1   2.056896 S    
C40   C44   1.535325 S    
C49   H11   1.104585 S    
C55   C59   1.542936 S    
O19   Cr11  2.029872 S    
C33   H5    1.110236 S    
C50   H12   1.108226 S    
C13   C84   1.426885 S    
Cr8   O52   1.991942 S    
O32   C16   1.278323 A    
C34   C38   1.545164 S    
C65   C66   1.523896 S    
C67   C76   1.523792 S    
C17   C73   1.432846 S    
C84   C92   1.201469 T    
N12   H39   1.045040 S    
O46   C22   1.274351 A    
Cr12  O52   1.988143 S    
O31   C15   1.275264 A    
O45   C21   1.274516 A    
O23   C11   1.270430 A    
N9    H34   1.044914 S    
C6    C25   1.423491 S    
O33   Cr5   2.033497 S    
C38   H2    1.110459 S    
C75   C79   1.541282 S    
C85   C93   1.202065 T    
C69   C73   1.539296 S    
N5    O53   1.297165 A    
Cr9   O49   1.992601 S    
O4    Cr4   2.066870 S    
C79   C80   1.568374 S    
C74   C78   1.552407 S    
C35   C47   1.529282 S    
C16   C81   1.428437 S    
C1    C64   1.457534 S    
C44   C48   1.507787 S    
C16   O36   1.274168 A    
C69   N5    1.455551 S    
N10   H35   1.044752 S    
N6    O56   1.299947 A    
Cr6   O50   1.991942 S    
C40   C60   1.541416 S    
O28   Cr4   2.050657 S    
C51   C63   1.544581 S    
C36   C64   1.546923 S    
O27   C23   1.268146 A    
C7    C28   1.423483 S    
C38   C58   1.541397 S    
C45   N1    1.457819 S    
C59   H19   1.110102 S    
O32   Cr4   1.945052 S    
C85   C89   1.406642 S    
O36   Cr8   2.037159 S    
C39   C59   1.543821 S    
C49   C61   1.544576 S    
C77   H21   1.110064 S    
C48   C52   1.537242 S    
C21   C93   1.428008 S    
O38   Cr6   1.948152 S    
C23   C95   1.430516 S    
O13   C5    1.278401 A    
