data_mof_unit_2272.cif
_audit_creation_date              2012-12-11T17:01:26-0500
_audit_creation_method            fapswitch 2.2
_symmetry_space_group_name_H-M    P1
_symmetry_Int_Tables_number       1
_space_group_crystal_system       triclinic
_cell_length_a                    15.192981
_cell_length_b                    14.977964
_cell_length_c                    14.965851
_cell_angle_alpha                 109.436517
_cell_angle_beta                  109.061539
_cell_angle_gamma                 110.247178
_cell_volume                      2610.65142314

loop_
_atom_site_label
_atom_site_type_symbol
_atom_type_description
_atom_site_fract_x
_atom_site_fract_y
_atom_site_fract_z
_atom_type_partial_charge
C1    C     C_R   0.006652 0.804045 0.098863 0.661634
C2    C     C_R   0.211795 0.803714 0.301438 -0.086353
C3    C     C_R   0.900558 0.411482 0.207536 0.025645
C4    C     C_R   0.778719 0.244454 0.685345 -0.147037
C5    C     C_R   0.301706 0.594433 0.003162 -0.119990
C6    C     C_R   0.927978 0.504166 0.298217 0.009062
C7    C     C_R   0.308230 0.504621 0.950210 0.052927
C8    C     C_R   0.304263 0.865368 0.301243 0.058424
C9    C     C_R   0.045452 0.221598 0.047571 -0.039452
C10   C     C_3   0.495871 0.451319 0.845994 -0.477475
C11   C     C_3   0.394586 0.458592 0.837162 -0.067161
C12   C     C_R   0.675929 0.205632 0.671901 0.022041
C13   C     C_3   0.535139 0.443263 0.021140 -0.096502
C14   C     C_3   0.607050 0.627631 0.026586 -0.521416
C15   C     C_3   0.581237 0.507090 0.967745 0.205733
C16   C     C_R   0.077678 0.595533 0.786638 0.052012
C17   C     C_3   0.406990 0.507560 0.954134 0.103944
C18   C     C_3   0.428946 0.437991 0.006470 -0.551627
C19   C     C_3   0.507338 0.629157 0.027152 0.693716
C20   C     C_R   0.578458 0.107582 0.470078 0.152881
C21   C     C_R   0.577560 0.150562 0.567922 0.038373
C22   C     C_R   0.477874 0.130676 0.562466 -0.188893
C23   C     C_R   0.025801 0.506110 0.682635 0.009671
C24   C     C_R   0.381870 0.043869 0.466855 -0.178778
C25   C     C_R   0.387448 0.980059 0.377921 0.044358
C26   C     C_R   0.484108 0.022856 0.375690 0.180618
C27   C     C_3   0.541308 0.967705 0.338673 -0.484240
C28   C     C_R   0.685536 0.410418 0.949730 -0.157527
C29   C     C_3   0.644581 0.061027 0.441851 -0.512933
C30   C     C_R   0.971201 0.610609 0.487648 0.081728
C31   C     C_R   0.905532 0.511213 0.387358 0.016264
C32   C     C_R   0.846568 0.415602 0.388777 0.027020
C33   C     C_R   0.884472 0.414256 0.486853 -0.183377
C34   C     C_R   0.678278 0.504367 0.975245 0.049904
C35   C     C_R   0.975395 0.509675 0.583291 -0.027859
C36   C     C_R   0.004505 0.609613 0.584354 0.030346
C37   C     C_3   0.111375 0.711995 0.639776 0.672525
C38   C     C_3   0.076937 0.712556 0.534136 -0.642130
C39   C     C_R   0.018497 0.007625 0.123993 0.130053
C40   C     C_R   0.984237 0.412031 0.690684 -0.136850
C41   C     C_R   0.090071 0.979468 0.100845 -0.136859
C42   C     C_R   0.170199 0.053359 0.092284 0.758228
C43   C     C_R   0.163225 0.142009 0.085475 -0.358639
C44   C     C_R   0.076361 0.155224 0.086721 -0.023516
C45   C     C_R   0.989807 0.592945 0.294477 -0.125021
C46   C     C_R   0.009539 0.091784 0.113793 0.146062
C47   C     C_3   0.887917 0.029013 0.063295 -0.149052
C48   C     C_3   0.898666 0.937190 0.076464 -0.505675
C49   C     C_R   0.780735 0.595065 0.037800 -0.135125
C50   C     C_R   0.685516 0.229335 0.773903 0.050601
C51   C     C_R   0.092403 0.804626 0.003615 -0.176831
C52   C     C_R   0.065303 0.867549 0.068307 -0.042049
C53   C     C_1   0.296317 0.349812 0.754483 0.053509
C54   C     C_1   0.531458 0.681630 0.142317 -0.001652
C55   C     C_1   0.613271 0.492091 0.137962 0.098047
C56   C     C_R   0.213269 0.410681 0.912615 -0.130483
C57   C     C_1   0.180771 0.692994 0.837032 0.090326
C58   C     C_1   0.751933 0.317630 0.292118 0.051111
C59   C     C_1   0.827572 0.996674 0.947432 0.139466
C60   C     C_1   0.607518 0.160645 0.791693 0.009223
C61   C     C_R   0.299532 0.801834 0.207224 -0.135617
C62   C     C_R   0.975825 0.253878 0.066661 0.687891
C63   C     C_R   0.062548 0.247225 0.971431 -0.237598
F1    F     F_    0.995740 0.843217 0.187970 -0.735257
F2    F     F_    0.944699 0.249719 0.140632 -0.759308
F3    F     F_    0.488831 0.694240 0.984289 -0.724785
F4    F     F_    0.119915 0.799827 0.720076 -0.667554
F5    F     F_    0.247889 0.034678 0.080117 -0.694750
H1    H     H_    0.187607 0.325950 0.861527 0.111696
H2    H     H_    0.800377 0.238004 0.623124 0.112333
H3    H     H_    0.516016 0.356827 0.979179 0.129239
H4    H     H_    0.362640 0.350276 0.952752 0.191053
H5    H     H_    0.676081 0.674370 0.111887 0.151085
H6    H     H_    0.633271 0.670311 0.983721 0.206587
H7    H     H_    0.428875 0.466023 0.085438 0.187053
H8    H     H_    0.473924 0.172226 0.634349 0.136831
H9    H     H_    0.306699 0.019218 0.468255 0.144589
H10   H     H_    0.517288 0.887800 0.336831 0.208050
H11   H     H_    0.540504 0.966254 0.263633 0.215427
H12   H     H_    0.346888 0.829165 0.171437 0.122820
H13   H     H_    0.679330 0.034075 0.498258 0.209483
H14   H     H_    0.702732 0.113723 0.426079 0.196342
H15   H     H_    0.845719 0.337848 0.485795 0.125491
H16   H     H_    0.182356 0.700693 0.664083 0.005455
H17   H     H_    0.066958 0.783839 0.538853 0.239902
H18   H     H_    0.619999 0.328063 0.910761 0.107416
H19   H     H_    0.128930 0.699325 0.499697 0.166462
H20   H     H_    0.219047 0.193259 0.069366 0.180450
H21   H     H_    0.857442 0.066057 0.114425 0.203582
H22   H     H_    0.878123 0.925540 0.138097 0.236838
H23   H     H_    0.111545 0.231573 0.937022 0.149038
H24   H     H_    0.860240 0.859470 0.998333 0.179587
H25   H     H_    0.950429 0.328388 0.628534 0.102834
H26   H     H_    0.806458 0.681349 0.074813 0.152968
H27   H     H_    0.148022 0.833112 0.976025 0.219202
H28   H     H_    0.008011 0.676422 0.338297 0.136102
H29   H     H_    0.183061 0.832984 0.355664 0.118063
H30   H     H_    0.839976 0.327890 0.175455 0.153163
H31   H     H_    0.354529 0.680445 0.033933 0.165066
H32   H     H_    0.475511 0.364247 0.802699 0.170880
H33   H     H_    0.529982 0.492732 0.805949 0.174019
H34   H     H_    0.389358 0.515393 0.805843 0.168401
N1    N     N_R   0.995640 0.706130 0.053910 -0.109477
N2    N     N_R   0.054010 0.556790 0.847890 -0.061691
N3    N     N_R   0.789940 0.443190 0.997130 -0.047237
N4    N     N_R   0.997630 0.443170 0.791110 -0.046599
N5    N     N_R   0.846320 0.556810 0.053910 -0.038502
N6    N     N_R   0.791080 0.293860 0.847890 -0.063583
N7    N     N_R   0.052880 0.706130 0.997130 -0.091288
N8    N     N_R   0.002370 0.556830 0.208890 -0.052652
N9    N     N_1   0.219682 0.264513 0.689065 -0.077990
N10   N     N_1   0.550445 0.722211 0.232065 -0.085620
N11   N     N_1   0.674510 0.530211 0.229184 -0.074706
N12   N     N_R   0.153680 0.443190 0.946090 -0.037421
N13   N     N_1   0.264645 0.771080 0.879451 -0.017266
N14   N     N_1   0.675704 0.238990 0.214909 -0.060156
N15   N     N_1   0.780278 0.971454 0.856599 -0.078080
N16   N     N_1   0.544956 0.105130 0.805771 -0.063696
N17   N     N_R   0.208920 0.706140 0.152110 -0.048972
N18   N     N_R   0.947120 0.293870 0.002870 -0.113410
N19   N     N_R   0.004360 0.293870 0.946090 -0.073459
N20   N     N_R   0.151690 0.706140 0.208890 -0.046953
N21   N     N_R   0.945990 0.443210 0.152110 -0.051785
N22   N     N_R   0.210060 0.556810 0.002870 -0.052599
N23   N     N_R   0.848310 0.293860 0.791110 -0.047447
Ni1   Ni    Ni4+2 0.999010 0.630300 0.130220 0.253153
Ni2   Ni    Ni4+2 0.000990 0.369700 0.869780 0.211361
Ni3   Ni    Ni4+2 0.130280 0.630280 0.000000 0.219859
Ni4   Ni    Ni4+2 0.869720 0.369720 0.000000 0.234734

loop_
_geom_bond_atom_site_label_1
_geom_bond_atom_site_label_2
_ccdc_geom_bond_type
C58   N14   T    
C18   H7    S    
C6    C45   A    
C61   N17   A    
C41   C42   A    
C35   C36   A    
C32   C58   S    
C40   H25   S    
C27   H10   S    
C4    H2    S    
C39   C41   A    
N3    N5    A    
C5    N22   A    
C26   C27   S    
C13   C18   S    
C43   H20   S    
C14   H6    S    
C36   C37   S    
N19   Ni2   S    
C27   H11   S    
C10   C15   S    
C10   H33   S    
C30   C31   A    
C27   C29   S    
C61   H12   S    
C23   C40   A    
C30   C38   S    
C19   F3    S    
N1    Ni1   S    
C17   C19   S    
C16   N2    A    
C5    H31   S    
C2    H29   S    
C3    N21   A    
C7    C17   S    
C37   H16   S    
C60   N16   T    
C22   H8    S    
C49   H26   S    
C4    C12   A    
C1    N1    A    
C15   C34   S    
C62   N18   A    
C11   C53   S    
C8    C61   A    
N22   Ni3   S    
N12   N22   A    
N17   Ni3   S    
C53   N9    T    
C6    C31   S    
C28   C34   A    
C51   N7    A    
C48   H22   S    
C21   C22   A    
N21   Ni4   S    
C42   F5    S    
C8    C25   S    
C47   H21   S    
C7    C56   A    
N2    N4    A    
C63   N19   A    
C44   C46   A    
C20   C29   S    
C2    N20   A    
C18   H4    S    
C38   H17   S    
C51   C52   A    
C14   H5    S    
C24   C25   A    
C57   N13   T    
C5    C7    A    
C45   N8    A    
N3    Ni4   S    
C55   N11   T    
C25   C26   A    
C49   N5    A    
N4    Ni2   S    
N18   Ni4   S    
N20   Ni1   S    
C43   C44   A    
C29   H13   S    
C37   C38   S    
N8    N21   A    
N7    Ni3   S    
C47   C48   S    
N2    Ni3   S    
C28   N3    A    
C17   C18   S    
C54   N10   T    
C10   H32   S    
C33   H15   S    
N6    Ni4   S    
N8    Ni1   S    
C39   C46   A    
C4    N23   A    
C19   C54   S    
C16   C23   A    
C23   C35   S    
C13   C15   S    
C28   H18   S    
N6    N23   A    
C22   C24   A    
C42   C43   A    
C1    F1    S    
N18   N19   A    
C40   N4    A    
N17   N20   A    
C46   C47   S    
C11   C17   S    
C9    C44   S    
C41   C52   S    
C62   F2    S    
C9    C63   A    
C14   C19   S    
C50   N6    A    
C31   C32   A    
C2    C8    A    
N5    Ni1   S    
C12   C50   A    
C13   H3    S    
C9    C62   A    
C30   C36   A    
C38   H19   S    
N1    N7    A    
C50   C60   S    
C32   C33   A    
C29   H14   S    
N12   Ni2   S    
C3    H30   S    
C20   C26   A    
C37   F4    S    
C33   C35   A    
C11   H34   S    
C16   C57   S    
C1    C52   A    
C10   C11   S    
C47   C59   S    
C12   C21   S    
C24   H9    S    
C20   C21   A    
C34   C49   A    
C59   N15   T    
C56   H1    S    
C48   H24   S    
C3    C6    A    
C63   H23   S    
N23   Ni2   S    
C56   N12   A    
C14   C15   S    
C45   H28   S    
C51   H27   S    
C39   C48   S    
C13   C55   S    
