data_mof_unit_3423.cif
_audit_creation_date              2012-12-11T16:21:02-0500
_audit_creation_method            fapswitch 2.2
_symmetry_space_group_name_H-M    P1
_symmetry_Int_Tables_number       1
_space_group_crystal_system       triclinic
_cell_length_a                    8.323712
_cell_length_b                    16.536215
_cell_length_c                    17.552377
_cell_angle_alpha                 108.779481
_cell_angle_beta                  83.048661
_cell_angle_gamma                 97.752913
_cell_volume                      2258.6665642

loop_
_atom_site_label
_atom_site_type_symbol
_atom_type_description
_atom_site_fract_x
_atom_site_fract_y
_atom_site_fract_z
_atom_type_partial_charge
Ba1   Ba    Ba6+2 0.638770 0.457640 0.528600 1.613030
Ba2   Ba    Ba6+2 0.171410 0.542370 0.471460 1.741625
C1    C     C_3   0.777075 0.154517 0.741225 0.694127
C2    C     C_3   0.842484 0.201508 0.678705 0.733710
C3    C     C_3   0.970602 0.268021 0.297849 0.319880
C4    C     C_3   0.057030 0.188203 0.247731 0.614462
C5    C     C_3   0.561896 0.768270 0.305822 0.704379
C6    C     C_3   0.505512 0.856544 0.351252 -0.250110
C7    C     C_3   0.022051 0.728958 0.295380 0.403843
C8    C     C_3   0.047175 0.758884 0.220620 0.282846
C9    C     C_2   0.691338 0.754543 0.507199 0.149382
C10   C     C_R   0.098734 0.247882 0.472670 -0.237650
C11   C     C_2   0.529269 0.868366 0.595269 0.359793
C12   C     C_3   0.314709 0.226062 0.643331 0.297086
C13   C     C_2   0.549855 0.782924 0.566484 -0.004153
C14   C     C_2   0.821249 0.811429 0.497530 -0.037098
C15   C     C_3   0.814955 0.906080 0.543882 0.018934
C16   C     C_3   0.639594 0.929333 0.560050 -0.084071
C17   C     C_2   0.933128 0.966727 0.510000 -0.090969
C18   C     C_2   0.890973 0.036195 0.495660 -0.112038
C19   C     C_R   0.167460 0.079043 0.438726 0.048448
C20   C     C_R   0.013496 0.101828 0.475318 0.013952
C21   C     C_R   0.285240 0.139601 0.419600 -0.132023
C22   C     C_R   0.250266 0.224252 0.435689 0.057509
C23   C     C_3   0.299899 0.134981 0.646276 -0.188985
C24   C     C_R   0.980383 0.188109 0.493472 0.028176
C25   C     C_R   0.077775 0.466388 0.716420 0.176864
C26   C     C_R   0.948294 0.516149 0.752540 0.021086
C27   C     C_R   0.895767 0.525440 0.836390 0.345915
C28   C     C_R   0.992306 0.496075 0.881675 -0.017117
C29   C     C_R   0.132360 0.456475 0.845530 -0.175903
C30   C     C_R   0.175525 0.441432 0.763432 -0.059168
C31   C     C_R   0.921624 0.480306 0.160976 0.381016
C32   C     C_R   0.859662 0.482430 0.240464 -0.022353
C33   C     C_R   0.638651 0.561644 0.233189 0.043251
C34   C     C_3   0.353944 0.645286 0.724953 0.324727
C35   C     C_R   0.699736 0.560283 0.154678 -0.119253
C36   C     C_R   0.840955 0.519788 0.118743 -0.025275
C37   C     C_1   0.898956 0.513146 0.036031 0.158855
C38   C     C_1   0.946106 0.505178 0.966302 0.196322
C39   C     C_R   0.718676 0.522195 0.274873 -0.259897
C40   C     C_3   0.272743 0.659621 0.810873 0.626660
C41   C     C_3   0.540461 0.263061 0.252191 0.628569
C42   C     C_3   0.538006 0.166306 0.236339 -0.257782
C43   C     C_3   0.805701 0.732022 0.774117 0.561857
C44   C     C_3   0.894521 0.754005 0.850352 -0.133926
H1    H     H_    0.141781 0.655529 0.806831 -0.897443
H2    H     H_    0.295691 0.606958 0.832836 -0.007352
H3    H     H_    0.649598 0.298875 0.281476 -0.013273
H4    H     H_    0.590083 0.153536 0.286074 0.072971
H5    H     H_    0.609368 0.136949 0.179045 0.208026
H6    H     H_    0.412144 0.134490 0.230831 0.083404
H7    H     H_    0.682194 0.701712 0.781902 0.074394
H8    H     H_    0.910694 0.696117 0.864558 0.141786
H9    H     H_    0.825479 0.796060 0.902870 0.180635
H10   H     H_    0.016049 0.787998 0.841821 0.190660
H11   H     H_    0.936545 0.163415 0.637809 -0.275552
H12   H     H_    0.050315 0.307215 0.345684 -0.046850
H13   H     H_    0.853946 0.247382 0.327346 0.010817
H14   H     H_    0.180675 0.210990 0.227509 0.035851
H15   H     H_    0.681469 0.102785 0.714241 -0.004399
H16   H     H_    0.202009 0.125978 0.692431 0.184294
H17   H     H_    0.622887 0.749721 0.349596 -0.092635
H18   H     H_    0.421558 0.852889 0.404521 0.093481
H19   H     H_    0.611932 0.903439 0.372628 0.063544
H20   H     H_    0.441185 0.879423 0.311433 0.158706
H21   H     H_    0.889200 0.715076 0.308087 -0.173909
H22   H     H_    0.080371 0.668808 0.282241 0.042258
H23   H     H_    0.977666 0.712545 0.171463 0.022241
H24   H     H_    0.416133 0.232525 0.597907 0.098137
H25   H     H_    0.999261 0.822154 0.235461 0.146705
H26   H     H_    0.401602 0.119596 0.390437 0.093019
H27   H     H_    0.071350 0.312787 0.483084 0.078802
H28   H     H_    0.060964 0.957369 0.504648 0.137068
H29   H     H_    0.764400 0.048374 0.504123 0.096980
H30   H     H_    0.206420 0.435612 0.880993 0.147211
H31   H     H_    0.636206 0.589154 0.121312 0.130256
H32   H     H_    0.199784 0.237615 0.624282 -0.075180
H33   H     H_    0.666800 0.519352 0.333637 0.096524
H34   H     H_    0.271039 0.089807 0.586404 0.062944
H35   H     H_    0.416432 0.121087 0.661712 0.169991
H36   H     H_    0.277481 0.594003 0.683044 -0.006015
H37   H     H_    0.472478 0.623402 0.721761 0.010005
O1    O     O_2   0.563480 0.287900 0.421550 -0.499719
O2    O     O_3   0.895748 0.681074 0.706789 -0.623339
O3    O     O_3   0.346492 0.282866 0.719965 -0.533569
O4    O     O_2   0.246830 0.712160 0.578490 -0.408166
O5    O     O_3   0.465730 0.603870 0.559050 -0.452947
O6    O     O_3   0.005180 0.659120 0.430820 -0.449354
O7    O     O_3   0.374134 0.720567 0.703742 -0.526917
O8    O     O_3   0.867570 0.455870 0.400730 -0.460764
O9    O     O_3   0.410870 0.615450 0.384100 -0.455350
O10   O     O_2   0.301256 0.552820 0.238135 -0.448958
O11   O     O_3   0.426454 0.710417 0.276260 -0.589977
O12   O     O_3   0.344560 0.396140 0.441010 -0.430070
O13   O     O_3   0.942720 0.544140 0.599330 -0.373978
O14   O     O_2   0.129060 0.458130 0.306750 -0.451522
O15   O     O_3   0.940709 0.314640 0.247785 -0.632010
O16   O     O_2   0.156185 0.808054 0.506646 -0.430633
O17   O     O_3   0.090440 0.793240 0.360767 -0.601261
O18   O     O_3   0.805120 0.340890 0.569250 -0.425461
O19   O     O_2   0.649688 0.192553 0.489817 -0.505104
O20   O     O_3   0.400743 0.293414 0.299228 -0.672700
O21   O     O_3   0.713135 0.204980 0.635273 -0.616761
O22   O     O_2   0.681260 0.541920 0.693290 -0.468248
O23   O     O_3   0.399420 0.384560 0.615960 -0.491360
O24   O     O_2   0.514914 0.432013 0.757988 -0.337989
P1    P     P_3+3 0.397200 0.301470 0.401420 0.975281
P2    P     P_3+3 0.862850 0.568080 0.686620 1.141066
P3    P     P_3+3 0.359612 0.387856 0.716154 1.092498
P4    P     P_3+3 0.413100 0.698540 0.598650 1.197291
P5    P     P_3+3 0.447466 0.608572 0.281706 1.027535
P6    P     P_3+3 0.788333 0.229317 0.546343 1.009415
P7    P     P_3+3 0.943953 0.425650 0.298734 0.986938
P8    P     P_3+3 0.018273 0.769595 0.450020 1.028682
O25   O     O_3   0.911993 0.284938 0.716491 -0.718974
H38   H     H_    0.006512 0.278710 0.742820 0.299105
S1    S     S_3+6 0.329174 0.758931 0.886659 0.047690
O26   O     O_2   0.324169 0.834524 0.857729 -0.130221
O27   O     O_2   0.208627 0.766924 0.959141 -0.254623
O28   O     O_3   0.515606 0.760974 0.914771 -0.485079
H39   H     H_    0.498369 0.737344 0.960613 0.384409
S2    S     S_3+6 0.539274 0.285435 0.158649 -0.006486
O29   O     O_2   0.709934 0.298972 0.122884 -0.222108
O30   O     O_2   0.447746 0.212331 0.099202 -0.197725
O31   O     O_3   0.448726 0.375185 0.175531 -0.509707
H40   H     H_    0.331274 0.357890 0.184635 0.352405
S3    S     S_3+6 0.788179 0.831439 0.756050 -0.013328
O32   O     O_2   0.612900 0.847163 0.764862 -0.174114
O33   O     O_2   0.877948 0.906635 0.814194 -0.224440
O34   O     O_3   0.864978 0.825605 0.662024 -0.560124
H41   H     H_    0.979123 0.813740 0.658887 0.382251
S4    S     S_3+6 0.686611 0.223680 0.832849 0.105717
O35   O     O_2   0.586475 0.282986 0.814404 -0.220237
O36   O     O_2   0.579626 0.169772 0.877205 -0.138999
O37   O     O_3   0.833783 0.282086 0.891170 -0.448250
H42   H     H_    0.775315 0.317784 0.940499 0.384725
O38   O     O_3   0.902997 0.118125 0.760784 -0.658631
H43   H     H_    0.917046 0.063072 0.717159 0.308245
O39   O     O_3   0.065781 0.137188 0.296701 -0.780920
H44   H     H_    0.139198 0.092768 0.266697 0.321853
S5    S     S_3+6 0.966574 0.121715 0.157662 0.010443
O40   O     O_2   0.894315 0.173674 0.116963 -0.190329
O41   O     O_2   0.097474 0.074616 0.100577 -0.198039
O42   O     O_3   0.823933 0.049173 0.180872 -0.524785
H45   H     H_    0.793278 0.008689 0.128171 0.384222
O43   O     O_3   0.675291 0.773827 0.241303 -0.778978
H46   H     H_    0.615612 0.784816 0.200525 0.339992
O44   O     O_3   0.212679 0.767611 0.194698 -0.673274
H47   H     H_    0.240426 0.709527 0.161072 0.321723
S6    S     S_3+6 0.371488 0.917674 0.665693 0.004114
O45   O     O_2   0.448678 0.992994 0.728658 -0.224425
O46   O     O_2   0.264597 0.950369 0.621655 -0.338117
O47   O     O_3   0.253015 0.855567 0.713032 -0.441402
H48   H     H_    0.188958 0.895711 0.756616 0.404971
O48   O     O_3   0.689196 0.668207 0.466112 -0.693640
H49   H     H_    0.730562 0.662959 0.409717 0.257711
O49   O     O_3   0.055690 0.438689 0.121246 -0.679834
H50   H     H_    0.092412 0.406780 0.153503 0.339409
S7    S     S_3+6 0.708243 0.563728 0.889355 -0.100739
O50   O     O_2   0.745498 0.636641 0.964472 -0.340734
O51   O     O_2   0.604234 0.593183 0.842113 -0.346352
O52   O     O_3   0.600412 0.483252 0.918127 -0.463454
H51   H     H_    0.507310 0.509433 0.954003 0.359918
O53   O     O_3   0.106900 0.441795 0.634005 -0.701073
H52   H     H_    0.111803 0.378996 0.616641 0.281053

loop_
_geom_bond_atom_site_label_1
_geom_bond_atom_site_label_2
_ccdc_geom_bond_type
O6    P8    S    
C6    H20   S    
O53   H52   S    
C41   S2    S    
C23   H34   S    
O18   P6    S    
C34   C40   S    
C17   C18   D    
S3    O32   D    
O42   H45   S    
S2    O29   D    
C43   C44   S    
Ba1   O1    S    
C32   C39   A    
O31   H40   S    
C30   P3    S    
C3    H12   S    
C26   C27   A    
O3    P3    S    
C35   C36   A    
O2    P2    S    
C8    O44   S    
O16   P8    D    
C28   C29   A    
O15   P7    S    
O4    P4    D    
C34   H37   S    
C34   O7    S    
O25   H38   S    
Ba1   Ba2   S    
S6    O47   S    
S1    O26   D    
O43   H46   S    
Ba1   P2    S    
O5    P4    S    
C9    C13   S    
O52   H51   S    
Ba2   O14   S    
C34   H36   S    
C14   C15   S    
C2    H11   S    
S4    O37   S    
C21   C22   A    
Ba2   O5    S    
O20   P1    S    
C22   P1    S    
C4    S5    S    
C7    C8    S    
Ba1   O23   S    
C40   H1    S    
C8    H25   S    
C42   H6    S    
Ba1   O5    S    
S6    O46   D    
S6    O45   D    
C43   H7    S    
C6    H19   S    
Ba1   O8    S    
C10   H27   S    
C23   H35   S    
C12   H24   S    
S5    O42   S    
O17   P8    S    
O7    P4    S    
O9    P5    S    
C31   C32   A    
C27   S7    S    
C5    O43   S    
C1    H15   S    
C19   C21   A    
C36   C37   S    
Ba2   P4    S    
C3    H13   S    
S7    O52   S    
C13   P4    S    
C5    C6    S    
O39   H44   S    
C12   O3    S    
O12   P1    S    
C37   C38   T    
C41   H3    S    
S2    O31   S    
Ba1   P1    S    
C35   H31   S    
C18   H29   S    
C10   C24   A    
C1    S4    S    
S1    O28   S    
S7    O51   D    
O49   H50   S    
C44   H9    S    
Ba2   O6    S    
C43   O2    S    
C41   C42   S    
C7    H21   S    
C27   C28   A    
C4    H14   S    
C9    C14   D    
C29   C30   A    
Ba1   O12   S    
C5    H17   S    
C44   H8    S    
C15   C16   S    
O28   H39   S    
C28   C38   S    
Ba2   O4    S    
C1    O38   S    
C40   H2    S    
Ba2   O9    S    
C11   S6    S    
O47   H48   S    
C9    O48   S    
C6    H18   S    
C11   C16   S    
C42   H5    S    
C25   O53   S    
C7    O17   S    
C11   C13   D    
S4    O35   D    
O24   P3    D    
S5    O41   D    
O34   H41   S    
C14   P8    S    
Ba1   O18   S    
C31   O49   S    
O23   P3    S    
C42   H4    S    
C5    O11   S    
O22   P2    D    
O48   H49   S    
C33   C35   A    
C25   C30   A    
C21   H26   S    
C2    O25   S    
C17   H28   S    
C40   S1    S    
C18   C20   S    
O37   H42   S    
C41   O20   S    
Ba2   O12   S    
C39   H33   S    
S3    O33   D    
C26   P2    S    
C32   P7    S    
O13   P2    S    
C10   C22   A    
C31   C36   A    
O8    P7    S    
S7    O50   D    
Ba2   O13   S    
C7    H22   S    
O19   P6    D    
O44   H47   S    
C29   H30   S    
C3    C4    S    
Ba1   O13   S    
C2    O21   S    
O11   P5    S    
C15   C17   S    
C23   H16   S    
C12   H32   S    
C12   C23   S    
C4    O39   S    
Ba2   O8    S    
C33   C39   A    
S1    O27   D    
C24   P6    S    
S2    O30   D    
O38   H43   S    
O10   P5    D    
O21   P6    S    
C8    H23   S    
O1    P1    D    
C3    O15   S    
C20   C24   A    
C44   H10   S    
C25   C26   A    
S4    O36   D    
S5    O40   D    
C43   S3    S    
O14   P7    D    
C19   C20   A    
S3    O34   S    
C33   P5    S    
C1    C2    S    
Ba1   O22   S    
