data_mof_unit_3092.cif
_audit_creation_date              2012-12-10T18:38:02-0500
_audit_creation_method            fapswitch 2.2
_symmetry_space_group_name_H-M    P1
_symmetry_Int_Tables_number       1
_space_group_crystal_system       triclinic
_cell_length_a                    14.913039
_cell_length_b                    14.930842
_cell_length_c                    27.172728
_cell_angle_alpha                 90.233296
_cell_angle_beta                  104.265694
_cell_angle_gamma                 82.509446
_cell_volume                      5811.30353742

loop_
_atom_site_label
_atom_site_type_symbol
_atom_type_description
_atom_site_fract_x
_atom_site_fract_y
_atom_site_fract_z
_atom_type_partial_charge
C1    C     C_R   0.442155 0.664150 0.494652 0.870961
C2    C     C_R   0.557866 0.335852 0.508634 0.867346
C3    C     C_R   0.590784 0.406509 0.910581 -0.079725
C4    C     C_R   0.594890 0.400894 0.116117 -0.086329
C5    C     C_R   0.600081 0.490143 0.889542 0.001670
C6    C     C_R   0.536621 0.345620 0.131878 -0.006363
C7    C     C_R   0.628799 0.560559 0.921217 -0.130424
C8    C     C_R   0.496989 0.280330 0.099517 -0.127232
C9    C     C_R   0.563009 0.334574 0.878632 -0.051849
C10   C     C_R   0.635257 0.467137 0.148566 -0.057758
C11   C     C_R   0.513047 0.483208 0.649131 -0.027716
C12   C     C_R   0.507696 0.477472 0.354328 -0.085539
C13   C     C_R   0.657379 0.454684 0.048945 0.000432
C14   C     C_R   0.585214 0.318630 0.984810 -0.003994
C15   C     C_R   0.571271 0.324376 0.034694 0.104526
C16   C     C_R   0.640991 0.466243 0.995673 0.109582
C17   C     C_R   0.609414 0.392146 0.066956 0.042628
C18   C     C_R   0.606954 0.396451 0.963700 0.042985
C19   C     C_R   0.715774 0.505521 0.084453 -0.063929
C20   C     C_R   0.575449 0.240468 0.954908 -0.054782
C21   C     C_R   0.703996 0.513328 0.134729 0.107927
C22   C     C_R   0.563683 0.247987 0.901340 0.102957
C23   C     C_R   0.502141 0.497919 0.594635 0.872565
C24   C     C_R   0.500228 0.497153 0.405821 0.881247
C25   C     C_R   0.648891 0.548846 0.973484 -0.147711
C26   C     C_R   0.513178 0.270526 0.051477 -0.146010
C27   C     C_R   0.408728 0.758337 0.503878 -0.076247
C28   C     C_R   0.591969 0.241444 0.525532 -0.063456
C29   C     C_R   0.286415 0.873140 0.516716 -0.184702
C30   C     C_R   0.717619 0.123530 0.563102 -0.124204
C31   C     C_R   0.314373 0.786967 0.501188 -0.180452
C32   C     C_R   0.687424 0.210200 0.541464 -0.203833
C33   C     C_R   0.474302 0.816428 0.522942 -0.223386
C34   C     C_R   0.527508 0.185194 0.531749 -0.256721
C35   C     C_R   0.448868 0.899015 0.543570 0.093884
C36   C     C_R   0.556343 0.101990 0.558154 0.072723
C37   C     C_R   0.352913 0.931603 0.537014 0.039649
C38   C     C_R   0.652875 0.067845 0.571693 0.111988
C39   C     C_R   0.517331 0.953530 0.565993 0.023645
C40   C     C_R   0.489840 0.046725 0.564449 -0.022769
C41   C     C_R   0.396579 0.079029 0.566605 0.090619
C42   C     C_R   0.612088 0.919908 0.589674 0.062997
C43   C     C_R   0.326973 0.020171 0.552411 -0.055259
C44   C     C_R   0.681070 0.978212 0.591928 -0.089885
C45   C     C_R   0.579694 0.502128 0.837010 0.562482
C46   C     C_R   0.516906 0.358905 0.179221 0.495036
C47   C     C_R   0.848307 0.617020 0.589789 0.096914
C48   C     C_R   0.157290 0.352104 0.429621 0.053728
C49   C     C_R   0.755781 0.602116 0.570262 -0.028620
C50   C     C_R   0.247967 0.375738 0.442115 0.016960
C51   C     C_R   0.794180 0.519620 0.502184 -0.075207
C52   C     C_R   0.204601 0.494648 0.492722 -0.080648
C53   C     C_R   0.885229 0.543604 0.514728 -0.056633
C54   C     C_R   0.113423 0.472100 0.483476 -0.019710
C55   C     C_R   0.912888 0.593755 0.559343 0.085727
C56   C     C_R   0.085719 0.411329 0.444130 -0.016193
C57   C     C_R   0.951284 0.513168 0.486268 -0.011658
C58   C     C_R   0.047739 0.512364 0.509619 0.016210
C59   C     C_R   0.074148 0.553106 0.557686 0.060265
C60   C     C_R   0.924988 0.482704 0.435654 0.125118
C61   C     C_R   0.006190 0.612072 0.573561 -0.019017
C62   C     C_R   0.989624 0.420235 0.417946 -0.014449
C63   C     C_R   0.538871 0.352673 0.825336 0.558981
C64   C     C_R   0.605340 0.482983 0.193725 0.510830
C65   C     C_R   0.617831 0.443772 0.732303 0.026453
C66   C     C_R   0.443355 0.482492 0.262851 0.029824
C67   C     C_R   0.603556 0.464244 0.680763 -0.312496
C68   C     C_R   0.432274 0.499614 0.312107 -0.190274
C69   C     C_R   0.435732 0.482195 0.669510 -0.230081
C70   C     C_R   0.592817 0.433907 0.347920 -0.209650
C71   C     C_R   0.448851 0.464465 0.721281 -0.134485
C72   C     C_R   0.603956 0.415011 0.299797 -0.079655
C73   C     C_R   0.539292 0.445606 0.752832 0.316306
C74   C     C_R   0.530637 0.440094 0.257170 0.217094
H1    H     H_    0.365682 0.495939 0.645552 0.158677
H2    H     H_    0.650844 0.413975 0.380366 0.154586
H3    H     H_    0.453818 0.206377 0.515581 0.157109
H4    H     H_    0.545657 0.797659 0.520774 0.154845
H5    H     H_    0.738778 0.252483 0.536942 0.165914
H6    H     H_    0.262165 0.742593 0.487491 0.155304
H7    H     H_    0.212665 0.892290 0.513233 0.137580
H8    H     H_    0.791747 0.100711 0.572143 0.190441
H9    H     H_    0.225463 0.550869 0.515952 0.137092
H10   H     H_    0.772413 0.473692 0.472056 0.139223
H11   H     H_    0.303314 0.336418 0.429012 0.144445
H12   H     H_    0.703614 0.622945 0.590849 0.144865
H13   H     H_    0.388787 0.465998 0.737113 0.142587
H14   H     H_    0.670753 0.382659 0.295347 0.173042
H15   H     H_    0.634880 0.625613 0.905737 0.190140
H16   H     H_    0.450745 0.238392 0.110551 0.192914
H17   H     H_    0.366489 0.532664 0.317636 0.187510
H18   H     H_    0.663786 0.462518 0.664961 0.157701
H19   H     H_    0.665799 0.606844 0.996167 0.136890
H20   H     H_    0.475137 0.224037 0.026687 0.137617
N1    N     N_R   0.551173 0.433576 0.806360 -0.335551
N2    N     N_R   0.549490 0.427931 0.208271 -0.363294
N3    N     N_R   0.731710 0.552720 0.528410 -0.109261
N4    N     N_R   0.268290 0.447280 0.471590 -0.113586
O1    O     O_R   0.383110 0.605620 0.485680 -0.608564
O2    O     O_R   0.616890 0.394380 0.514320 -0.605450
O3    O     O_R   0.531900 0.639510 0.503910 -0.610111
O4    O     O_R   0.468100 0.360490 0.496090 -0.619842
O5    O     O_R   0.425620 0.483050 0.562130 -0.618039
O6    O     O_R   0.574380 0.516950 0.437870 -0.610740
O7    O     O_R   0.574410 0.516930 0.580360 -0.622120
O8    O     O_R   0.425590 0.483070 0.419640 -0.604963
O9    O     O_2   0.588571 0.581642 0.816373 -0.570193
O10   O     O_2   0.464573 0.304366 0.195934 -0.552524
O11   O     O_2   0.628345 0.554348 0.222355 -0.572416
O12   O     O_2   0.501742 0.291903 0.792355 -0.585663
Zn1   Zn    Zn3+2 0.400660 0.477380 0.487830 0.934495
Zn2   Zn    Zn3+2 0.599340 0.522620 0.512170 0.935897
C75   C     C_3   0.376446 0.166958 0.593279 -0.385399
C76   C     C_3   0.388604 0.148721 0.650022 -0.699627
H21   H     H_    0.344839 0.097748 0.656809 0.288935
H22   H     H_    0.462822 0.123414 0.668202 0.246068
H23   H     H_    0.368638 0.212399 0.668274 0.250920
H24   H     H_    0.424116 0.216555 0.590978 0.204200
H25   H     H_    0.305447 0.202002 0.575749 0.228738
C77   C     C_3   0.635839 0.830599 0.620732 -0.430207
C78   C     C_3   0.575963 0.826962 0.658819 -0.768455
H26   H     H_    0.580562 0.887197 0.683000 0.265464
H27   H     H_    0.501890 0.823957 0.639111 0.257818
H28   H     H_    0.601512 0.765329 0.683646 0.250262
H29   H     H_    0.629189 0.771327 0.596415 0.195017
H30   H     H_    0.708954 0.820808 0.643640 0.202223
C79   C     C_2   0.033476 0.696532 0.598740 0.341159
H31   H     H_    0.105841 0.701492 0.617177 0.093050
O13   O     O_2   0.975890 0.763393 0.596729 -0.576973
C80   C     C_2   0.959244 0.378189 0.367948 0.360580
H32   H     H_    0.004084 0.372325 0.341832 0.072101
O14   O     O_2   0.884760 0.348229 0.355930 -0.581567
C81   C     C_3   0.876213 0.645494 0.644868 -0.353318
C82   C     C_3   0.843890 0.585987 0.681188 -0.911169
H33   H     H_    0.767083 0.599124 0.675853 0.252904
H34   H     H_    0.864860 0.513365 0.675253 0.266948
H35   H     H_    0.876686 0.601498 0.721071 0.270694
H36   H     H_    0.952786 0.639722 0.659520 0.227245
H37   H     H_    0.846493 0.716839 0.647655 0.218812
C83   C     C_3   0.142755 0.260840 0.406172 -0.420284
C84   C     C_3   0.211255 0.183786 0.436859 -0.864152
H38   H     H_    0.282908 0.185419 0.432213 0.250181
H39   H     H_    0.212196 0.189035 0.477722 0.258218
H40   H     H_    0.189411 0.117751 0.423436 0.255028
H41   H     H_    0.072335 0.243969 0.405540 0.234931
H42   H     H_    0.151090 0.261898 0.366670 0.213591
C85   C     C_3   0.166991 0.523868 0.596144 -0.458539
C86   C     C_3   0.153319 0.493947 0.647367 -0.833096
H43   H     H_    0.124091 0.551937 0.666830 0.244920
H44   H     H_    0.105690 0.441390 0.641829 0.276549
H45   H     H_    0.221545 0.464950 0.672417 0.247260
H46   H     H_    0.206699 0.464185 0.583345 0.233168
H47   H     H_    0.210458 0.579819 0.601762 0.190516
C87   C     C_3   0.837859 0.530467 0.398084 -0.385595
C88   C     C_3   0.862470 0.585073 0.356819 -0.805039
H48   H     H_    0.912429 0.632077 0.374425 0.252868
H49   H     H_    0.893186 0.540849 0.330707 0.255191
H50   H     H_    0.798112 0.625482 0.333736 0.265624
H51   H     H_    0.790627 0.481398 0.380555 0.242603
H52   H     H_    0.797211 0.580870 0.416899 0.208824
C89   C     C_2   0.365632 0.511481 0.217888 0.458208
H53   H     H_    0.375185 0.502300 0.179812 0.070436
O15   O     O_2   0.289673 0.546341 0.222768 -0.561594
C90   C     C_2   0.715576 0.420116 0.762771 0.433528
H54   H     H_    0.772939 0.431342 0.746519 0.063585
O16   O     O_2   0.733824 0.385984 0.805411 -0.556161
C91   C     C_3   0.771706 0.561664 0.174032 -0.361644
C92   C     C_3   0.742048 0.663951 0.171489 -0.768067
H55   H     H_    0.742625 0.693293 0.134169 0.226427
H56   H     H_    0.670666 0.680710 0.177093 0.298416
H57   H     H_    0.791269 0.696055 0.201663 0.249222
H58   H     H_    0.780473 0.534450 0.213057 0.247150
H59   H     H_    0.843584 0.547346 0.168746 0.182684
C93   C     C_3   0.562075 0.162190 0.870473 -0.341486
C94   C     C_3   0.463524 0.136000 0.853403 -0.786059
H60   H     H_    0.437379 0.119578 0.886682 0.226842
H61   H     H_    0.414112 0.191792 0.831032 0.295400
H62   H     H_    0.464530 0.075633 0.829451 0.252373
H63   H     H_    0.592662 0.168166 0.837600 0.258123
H64   H     H_    0.609388 0.104780 0.892550 0.181130
C95   C     C_2   0.796645 0.539758 0.070989 0.384475
H65   H     H_    0.822456 0.600530 0.087289 0.077937
O17   O     O_2   0.836857 0.498541 0.041987 -0.518929
C96   C     C_2   0.590668 0.149416 0.980280 0.376589
H66   H     H_    0.551924 0.096034 0.962989 0.070872
O18   O     O_2   0.648696 0.132776 0.020645 -0.526913
C97   C     C_2   0.227043 0.052210 0.549791 0.372196
H67   H     H_    0.173825 0.042344 0.515716 0.066810
O19   O     O_2   0.202741 0.087622 0.585783 -0.550273
C98   C     C_2   0.781387 0.943316 0.612377 0.386638
H68   H     H_    0.808660 0.876374 0.602753 0.105008
O20   O     O_2   0.833333 0.987536 0.641536 -0.531873

loop_
_geom_bond_atom_site_label_1
_geom_bond_atom_site_label_2
_ccdc_geom_bond_type
C51   N3    A    
C66   C68   A    
C25   H19   S    
C98   H68   S    
C1    O3    A    
C88   H49   S    
C8    C26   A    
C62   C80   S    
C80   O14   D    
C85   C86   S    
C86   H45   S    
C19   C95   S    
C82   H35   S    
C89   H53   S    
C57   C58   A    
C31   H6    S    
C94   H61   S    
C95   H65   S    
C27   C33   A    
O3    Zn2   S    
C87   H52   S    
C12   C68   A    
C90   O16   D    
C89   O15   D    
O5    Zn1   S    
C90   H54   S    
C35   C37   A    
C86   H44   S    
C84   H39   S    
C34   H3    S    
C77   H30   S    
C9    C22   A    
C29   C37   A    
C2    O4    A    
C33   H4    S    
C23   O7    A    
C63   N1    A    
C68   H17   S    
C65   C73   A    
C96   H66   S    
C30   C38   A    
C3    C18   A    
C60   C62   A    
C11   C23   S    
C69   C71   A    
C14   C18   A    
C93   C94   S    
C78   H28   S    
C50   H11   S    
C44   C98   S    
C75   H25   S    
C80   H32   S    
O6    Zn2   S    
C92   H57   S    
C23   O5    A    
C52   C54   A    
C65   C67   A    
C46   O10   S    
C39   C42   A    
C91   H59   S    
C92   H56   S    
C28   C34   A    
C81   H36   S    
C47   C81   S    
C88   H50   S    
C41   C43   A    
C1    O1    A    
O4    Zn1   S    
C42   C44   A    
C28   C32   A    
C72   H14   S    
C11   C67   A    
C76   H21   S    
C94   H62   S    
C20   C96   S    
O8    Zn1   S    
C53   C55   A    
C10   C21   A    
C95   O17   D    
C54   C56   A    
C59   C61   A    
C78   H27   S    
C48   C83   S    
C27   C31   A    
C14   C20   A    
C36   C40   A    
C83   C84   S    
C64   N2    A    
C72   C74   A    
C22   C93   S    
C84   H40   S    
C83   H42   S    
C91   C92   S    
C5    C7    A    
N3    Zn2   S    
C53   C57   A    
C77   H29   S    
C15   C26   A    
C6    C8    A    
C58   C59   A    
C5    C45   A    
C70   C72   A    
C66   C89   S    
C24   O6    A    
C30   H8    S    
C52   H9    S    
C35   C39   A    
C79   O13   D    
C38   C44   A    
C3    C9    A    
C74   N2    S    
C96   O18   D    
C94   H60   S    
C2    O2    A    
C43   C97   S    
O1    Zn1   S    
C78   H26   S    
C61   C79   S    
C86   H43   S    
C48   C50   A    
C87   C88   S    
C82   H33   S    
C71   H13   S    
C4    C17   A    
C4    C6    A    
C40   C41   A    
O7    Zn2   S    
C20   C22   A    
C29   H7    S    
O2    Zn2   S    
C26   H20   S    
C70   H2    S    
C81   C82   S    
C56   C62   A    
C37   C43   A    
C24   O8    A    
C73   N1    S    
C4    C10   A    
C79   H31   S    
C45   N1    A    
C93   H64   S    
C39   C40   A    
C7    H15   S    
C77   C78   S    
C47   C55   A    
C75   C76   S    
C54   C58   A    
C16   C25   A    
C48   C56   A    
C12   C70   A    
C92   H55   S    
C98   O20   D    
N4    Zn1   S    
C6    C46   A    
C19   C21   A    
C9    C63   A    
C49   H12   S    
C10   C64   A    
C51   H10   S    
C41   C75   S    
C3    C5    A    
C21   C91   S    
C83   H41   S    
C8    H16   S    
C76   H22   S    
C11   C69   A    
C81   H37   S    
C91   H58   S    
C47   C49   A    
C12   C24   S    
C7    C25   A    
C13   C17   A    
C63   O12   S    
C36   C38   A    
C85   H46   S    
C87   H51   S    
C29   C31   A    
C84   H38   S    
C32   H5    S    
C30   C32   A    
C42   C77   S    
C64   O11   S    
C55   C61   A    
C65   C90   S    
C52   N4    A    
C67   H18   S    
C33   C35   A    
C82   H34   S    
C69   H1    S    
C34   C36   A    
C85   H47   S    
C60   C87   S    
C97   O19   D    
C76   H23   S    
C49   N3    A    
C75   H24   S    
C50   N4    A    
C57   C60   A    
C46   N2    A    
C97   H67   S    
C16   C18   A    
C13   C16   A    
C71   C73   A    
C88   H48   S    
C1    C27   S    
C13   C19   A    
C14   C15   A    
C2    C28   S    
C51   C53   A    
C15   C17   A    
C93   H63   S    
C45   O9    S    
C59   C85   S    
C66   C74   A    
