data_mof_unit_441.cif
_audit_creation_date              2012-12-10T20:48:21-0500
_audit_creation_method            fapswitch 2.2
_symmetry_space_group_name_H-M    P1
_symmetry_Int_Tables_number       1
_space_group_crystal_system       triclinic
_cell_length_a                    10.693429
_cell_length_b                    8.922901
_cell_length_c                    8.106632
_cell_angle_alpha                 90.000328
_cell_angle_beta                  90.162304
_cell_angle_gamma                 90.000345
_cell_volume                      773.502605503

loop_
_atom_site_label
_atom_site_type_symbol
_atom_type_description
_atom_site_fract_x
_atom_site_fract_y
_atom_site_fract_z
_atom_type_partial_charge
C1    C     C_R   0.499999 0.217995 0.500000 0.934362
C2    C     C_R   0.257111 0.499900 0.499678 0.859495
C3    C     C_R   0.742890 0.499909 0.500322 0.859517
C4    C     C_R   0.499995 0.781958 0.500000 0.911190
C5    C     C_1   0.499997 0.065175 0.500000 -0.198732
C6    C     C_3   0.071019 0.433419 0.658513 -0.459032
C7    C     C_3   0.070407 0.416727 0.351172 -0.459104
C8    C     C_3   0.929590 0.416567 0.648706 -0.459128
C9    C     C_3   0.928980 0.433595 0.341388 -0.459022
C10   C     C_1   0.499995 0.934753 0.500000 -0.204324
C11   C     C_3   0.074873 0.680657 0.487042 0.386085
C12   C     C_3   0.925138 0.680647 0.513187 0.386116
C13   C     C_3   0.121118 0.510444 0.498993 0.125685
C14   C     C_3   0.878884 0.510448 0.501012 0.125674
H1    H     H_    0.096384 0.497612 0.770976 0.191768
H2    H     H_    0.112250 0.449321 0.231084 0.201213
H3    H     H_    0.887746 0.449030 0.768837 0.201212
H4    H     H_    0.903616 0.497910 0.229009 0.191759
H5    H     H_    0.113251 0.320012 0.673489 0.181487
H6    H     H_    0.094495 0.296268 0.369009 0.180024
H7    H     H_    0.905498 0.296127 0.630706 0.180003
H8    H     H_    0.886747 0.320204 0.326261 0.181532
N1    N     N_1   0.500000 0.500030 0.073640 -0.039541
N2    N     N_1   0.500000 0.500030 0.926360 -0.039543
O1    O     O_R   0.500000 0.285340 0.636850 -0.614561
O2    O     O_R   0.500000 0.285340 0.363150 -0.614563
O3    O     O_R   0.314790 0.499970 0.636880 -0.625957
O4    O     O_R   0.314790 0.499970 0.363120 -0.633176
O5    O     O_R   0.685210 0.499970 0.636880 -0.633178
O6    O     O_R   0.685210 0.499970 0.363120 -0.625954
O7    O     O_R   0.500000 0.714650 0.636900 -0.615843
O8    O     O_R   0.500000 0.714650 0.363100 -0.615820
Zn1   Zn    Zn3+2 0.500000 0.499990 0.682780 0.965952
Zn2   Zn    Zn3+2 0.500000 0.499990 0.317220 0.965967
C15   C     C_3   0.144720 0.781261 0.615757 -0.890694
H9    H     H_    0.246178 0.787176 0.589150 0.238135
H10   H     H_    0.110151 0.898521 0.610050 0.235838
H11   H     H_    0.135860 0.740435 0.744021 0.231540
C16   C     C_3   0.113787 0.748731 0.316362 -0.902854
H12   H     H_    0.067760 0.693073 0.210391 0.226934
H13   H     H_    0.091064 0.869984 0.309606 0.240713
H14   H     H_    0.216157 0.741834 0.296694 0.254628
C17   C     C_3   0.886231 0.748547 0.683955 -0.902782
H15   H     H_    0.908978 0.869788 0.690872 0.240699
H16   H     H_    0.783859 0.741667 0.703611 0.254677
H17   H     H_    0.932246 0.692761 0.789856 0.226908
C18   C     C_3   0.855296 0.781387 0.384600 -0.890781
H18   H     H_    0.864158 0.740703 0.256284 0.231539
H19   H     H_    0.753839 0.787268 0.411208 0.238084
H20   H     H_    0.889865 0.898641 0.390460 0.235856

loop_
_geom_bond_atom_site_label_1
_geom_bond_atom_site_label_2
_ccdc_geom_bond_type
C3    O6    A    
C11   C16   S    
C9    C14   S    
O7    Zn1   S    
C2    O3    A    
N2    Zn1   S    
C18   H20   S    
C17   H16   S    
C8    H3    S    
C11   C12   S    
N1    Zn2   S    
C11   C15   S    
C8    H7    S    
O4    Zn2   S    
C5    C10   T    
C16   H13   S    
O3    Zn1   S    
C6    C13   S    
C1    O1    A    
C6    H5    S    
C11   C13   S    
C4    O8    A    
C3    C14   S    
C12   C18   S    
C1    C5    S    
C6    C8    S    
C7    H2    S    
C15   H10   S    
C12   C14   S    
C12   C17   S    
C7    C9    S    
C17   H15   S    
C1    O2    A    
C17   H17   S    
C9    H8    S    
C4    O7    A    
C2    O4    A    
O6    Zn2   S    
N1    N2    T    
C4    C10   S    
O5    Zn1   S    
C9    H4    S    
C7    C13   S    
C15   H11   S    
C18   H19   S    
C7    H6    S    
C16   H12   S    
C3    O5    A    
C2    C13   S    
C16   H14   S    
C8    C14   S    
C6    H1    S    
O2    Zn2   S    
C18   H18   S    
O1    Zn1   S    
C15   H9    S    
O8    Zn2   S    
