data_mof_unit_2488.cif
_audit_creation_date              2012-12-10T18:07:29-0500
_audit_creation_method            fapswitch 2.2
_symmetry_space_group_name_H-M    P1
_symmetry_Int_Tables_number       1
_space_group_crystal_system       triclinic
_cell_length_a                    11.471163
_cell_length_b                    12.76429
_cell_length_c                    13.246949
_cell_angle_alpha                 82.206664
_cell_angle_beta                  93.388878
_cell_angle_gamma                 101.833317
_cell_volume                      1879.89943895

loop_
_atom_site_label
_atom_site_type_symbol
_atom_type_description
_atom_site_fract_x
_atom_site_fract_y
_atom_site_fract_z
_atom_type_partial_charge
Br1   Br    Br    0.429546 0.936555 0.193614 -0.494569
Br2   Br    Br    0.222209 0.067694 0.231644 -0.514006
C1    C     C_R   0.482097 0.439509 0.690505 0.890952
C2    C     C_R   0.444224 0.659628 0.890050 -0.202914
C3    C     C_R   0.418733 0.574031 0.832634 -0.105594
C4    C     C_R   0.717365 0.500774 0.500837 0.890765
C5    C     C_R   0.485239 0.511826 0.138063 -0.221863
C6    C     C_R   0.529178 0.701126 0.157564 -0.247552
C7    C     C_R   0.468778 0.401776 0.799773 -0.257821
C8    C     C_R   0.348204 0.100295 0.331950 0.297060
C9    C     C_R   0.628571 0.794830 0.640252 0.660194
C10   C     C_R   0.634278 0.891119 0.681282 -0.404035
C11   C     C_R   0.580814 0.971096 0.629045 -0.208790
C12   C     C_R   0.510172 0.593185 0.200439 -0.175262
C13   C     C_R   0.527677 0.960462 0.531447 -0.026969
C14   C     C_R   0.509174 0.857362 0.497614 0.004679
C15   C     C_R   0.483597 0.046036 0.470643 -0.216338
C16   C     C_R   0.511085 0.559907 0.309485 0.898075
C17   C     C_R   0.417141 0.026482 0.379328 -0.107684
C18   C     C_R   0.420532 0.933215 0.339007 0.155910
C19   C     C_R   0.440046 0.842592 0.404931 0.432562
C20   C     C_R   0.508380 0.153777 0.491803 0.561945
C21   C     C_R   0.359547 0.197611 0.369178 -0.137173
C22   C     C_R   0.282568 0.498151 0.501627 0.871493
C23   C     C_R   0.487634 0.297522 0.839057 0.404793
C24   C     C_1   0.838499 0.501412 0.503667 -0.214148
C25   C     C_1   0.940574 0.498764 0.505742 -0.014261
C26   C     C_1   0.058734 0.494962 0.506291 -0.009139
C27   C     C_1   0.161107 0.494402 0.504790 -0.209083
C28   C     C_R   0.513505 0.726602 0.052157 0.513003
C29   C     C_3   0.712437 0.192885 0.511771 0.091581
C30   C     C_3   0.812565 0.211983 0.592661 -0.313477
C31   C     C_3   0.932590 0.206783 0.551655 -0.947187
C32   C     C_3   0.799692 0.746008 0.722605 0.058037
C33   C     C_3   0.882745 0.787695 0.632692 -0.366831
C34   C     C_R   0.514356 0.274802 0.942172 -0.284022
C35   C     C_3   0.012070 0.818959 0.669966 -0.961829
C36   C     C_3   0.261370 0.736214 0.347962 0.127098
C37   C     C_3   0.181585 0.770140 0.422341 -0.400067
C38   C     C_3   0.055309 0.764865 0.376991 -0.896415
C39   C     C_3   0.632662 0.875840 0.970074 0.064276
C40   C     C_3   0.722853 0.920497 0.051477 -0.347445
C41   C     C_3   0.840791 0.978217 0.004327 -0.932459
C42   C     C_3   0.386886 0.152519 0.763506 0.118010
C43   C     C_3   0.383140 0.045404 0.832427 -0.342109
C44   C     C_3   0.273364 0.961616 0.808196 -0.924156
C45   C     C_R   0.521591 0.352567 0.007463 0.411775
C46   C     C_3   0.688758 0.367724 0.110441 0.084484
C47   C     C_3   0.733402 0.347964 0.221060 -0.314739
C48   C     C_3   0.866879 0.392147 0.232846 -0.976117
C49   C     C_R   0.486572 0.452936 0.971491 -0.022739
C50   C     C_R   0.456098 0.475508 0.867280 -0.020710
C51   C     C_R   0.488205 0.534951 0.033746 0.030128
C52   C     C_R   0.484848 0.642007 0.990664 0.013423
H1    H     H_    0.551464 0.764601 0.205827 0.210878
H2    H     H_    0.714202 0.114963 0.483730 0.134759
H3    H     H_    0.817545 0.292056 0.618386 0.236428
H4    H     H_    0.793048 0.149524 0.659815 0.221775
H5    H     H_    0.931353 0.124575 0.532204 0.266740
H6    H     H_    0.003989 0.225597 0.610613 0.265581
H7    H     H_    0.953058 0.266189 0.482550 0.271637
H8    H     H_    0.829070 0.674464 0.765591 0.171608
H9    H     H_    0.809467 0.805552 0.777759 0.117382
H10   H     H_    0.875581 0.723711 0.582399 0.245131
H11   H     H_    0.856683 0.859662 0.587458 0.208490
H12   H     H_    0.580886 0.040074 0.667632 0.224678
H13   H     H_    0.020997 0.882962 0.720536 0.269976
H14   H     H_    0.069942 0.850427 0.603893 0.269191
H15   H     H_    0.042594 0.747683 0.712292 0.268571
H16   H     H_    0.224092 0.651236 0.336350 0.144147
H17   H     H_    0.254995 0.781633 0.271330 0.196142
H18   H     H_    0.179106 0.716843 0.495939 0.236688
H19   H     H_    0.216526 0.853998 0.438629 0.220706
H20   H     H_    0.056279 0.823203 0.306593 0.291613
H21   H     H_    0.997990 0.786020 0.432433 0.264032
H22   H     H_    0.016564 0.682574 0.357965 0.259760
H23   H     H_    0.676859 0.904311 0.754373 0.140303
H24   H     H_    0.622321 0.943831 0.910861 0.163090
H25   H     H_    0.667662 0.816674 0.931460 0.114857
H26   H     H_    0.686121 0.978216 0.089990 0.262962
H27   H     H_    0.740033 0.853534 0.109494 0.210727
H28   H     H_    0.879624 0.921706 0.965987 0.259323
H29   H     H_    0.904654 0.008794 0.064999 0.290354
H30   H     H_    0.827059 0.047683 0.947838 0.260124
H31   H     H_    0.377856 0.136144 0.682868 0.175698
H32   H     H_    0.308544 0.187886 0.776916 0.113499
H33   H     H_    0.463940 0.013634 0.821560 0.227200
H34   H     H_    0.426960 0.737677 0.857178 0.173524
H35   H     H_    0.381804 0.058438 0.913511 0.256082
H36   H     H_    0.191019 0.991006 0.819648 0.263091
H37   H     H_    0.273233 0.885320 0.859710 0.286452
H38   H     H_    0.274246 0.944776 0.728140 0.257049
H39   H     H_    0.710609 0.456124 0.084347 0.137765
H40   H     H_    0.735006 0.324747 0.062366 0.145556
H41   H     H_    0.685108 0.387827 0.270056 0.241124
H42   H     H_    0.714658 0.259828 0.247346 0.225161
H43   H     H_    0.917392 0.352853 0.185205 0.276958
H44   H     H_    0.896123 0.375439 0.313787 0.266627
H45   H     H_    0.455984 0.429308 0.170937 0.239932
H46   H     H_    0.887031 0.480823 0.209943 0.264207
H47   H     H_    0.538603 0.198297 0.970873 0.193006
H48   H     H_    0.373711 0.587700 0.759466 0.156409
H49   H     H_    0.308076 0.256393 0.335432 0.181810
H50   H     H_    0.730421 0.257124 0.445950 0.159019
N1    N     N_R   0.440320 0.222190 0.444690 -0.164299
N2    N     N_R   0.559060 0.776980 0.554780 -0.145633
O1    O     O_R   0.471500 0.366730 0.627160 -0.550904
O2    O     O_3   0.679554 0.711346 0.690050 -0.612876
O3    O     O_3   0.381940 0.741464 0.384224 -0.588468
O4    O     O_3   0.519266 0.833123 0.011483 -0.612786
O5    O     O_3   0.498389 0.222560 0.775673 -0.605110
O6    O     O_3   0.564562 0.327971 0.105673 -0.636504
O7    O     O_R   0.509620 0.544830 0.662520 -0.578664
O8    O     O_R   0.646490 0.410960 0.482310 -0.589306
O9    O     O_R   0.684610 0.589050 0.517670 -0.595477
O10   O     O_R   0.490380 0.455170 0.337480 -0.638496
O11   O     O_R   0.528500 0.633270 0.372840 -0.560199
O12   O     O_R   0.315390 0.410950 0.482330 -0.622426
O13   O     O_R   0.353510 0.589040 0.517690 -0.572719
O14   O     O_3   0.602509 0.194288 0.555090 -0.608234
Zn1   Zn    Zn3+2 0.474550 0.381080 0.476390 0.977205
Zn2   Zn    Zn3+2 0.525450 0.618920 0.523610 1.004330

loop_
_geom_bond_atom_site_label_1
_geom_bond_atom_site_label_2
_ccdc_geom_bond_type
C36   H16   S    
C40   H26   S    
C14   C19   A    
C35   H15   S    
C41   H29   S    
C39   C40   S    
C12   C16   S    
C17   C18   A    
C30   H4    S    
C7    C23   A    
C51   C52   A    
C20   O14   S    
C28   C52   A    
C24   C25   T    
C5    H45   S    
C28   O4    S    
C26   C27   T    
C43   H33   S    
C36   C37   S    
C44   H38   S    
C33   H11   S    
C45   O6    S    
C21   N1    A    
C35   H14   S    
C32   H8    S    
C34   C45   A    
C32   C33   S    
C22   C27   S    
C4    O8    A    
C36   H17   S    
O8    Zn1   S    
C5    C12   A    
C21   H49   S    
O7    Zn2   S    
C22   O13   A    
C37   H18   S    
C3    C50   A    
C33   H10   S    
C29   H2    S    
C43   H35   S    
C14   N2    A    
C31   H5    S    
O9    Zn2   S    
C41   H30   S    
C7    C50   A    
C30   H3    S    
C42   H32   S    
C6    H1    S    
C11   H12   S    
C29   O14   S    
C48   H44   S    
C46   H39   S    
C40   H27   S    
C49   C50   A    
C1    O7    A    
C16   O10   A    
C37   C38   S    
C45   C49   A    
C44   H37   S    
C1    O1    A    
C43   C44   S    
C38   H22   S    
C34   H47   S    
C49   C51   A    
O12   Zn1   S    
O11   Zn2   S    
C1    C7    S    
C29   C30   S    
C8    C17   A    
C10   H23   S    
N2    Zn2   S    
C9    N2    A    
N1    Zn1   S    
C47   H41   S    
C36   O3    S    
C16   O11   A    
C46   H40   S    
C44   H36   S    
C46   C47   S    
C46   O6    S    
C31   H6    S    
C39   O4    S    
C11   C13   A    
C40   C41   S    
C5    C51   A    
C42   H31   S    
Br2   C8    S    
C39   H24   S    
C42   C43   S    
C33   C35   S    
O13   Zn2   S    
C13   C15   A    
C3    H48   S    
C48   H43   S    
C6    C12   A    
C2    C52   A    
C18   C19   A    
C48   H46   S    
C2    C3    A    
Br1   C18   S    
C39   H25   S    
C19   O3    S    
C9    C10   A    
C2    H34   S    
C8    C21   A    
C20   N1    A    
C22   O12   A    
C15   C20   A    
C38   H21   S    
C6    C28   A    
C30   C31   S    
C32   O2    S    
C29   H50   S    
C4    C24   S    
C35   H13   S    
C32   H9    S    
C15   C17   A    
C38   H20   S    
C37   H19   S    
C47   H42   S    
C4    O9    A    
C23   O5    S    
C23   C34   A    
C42   O5    S    
C10   C11   A    
C31   H7    S    
C47   C48   S    
C9    O2    S    
C41   H28   S    
O1    Zn1   S    
O10   Zn1   S    
C13   C14   A    
C25   C26   S    
