data_mof_unit_348.cif
_audit_creation_date              2012-12-11T17:09:29-0500
_audit_creation_method            fapswitch 2.2
_symmetry_space_group_name_H-M    P1
_symmetry_Int_Tables_number       1
_space_group_crystal_system       triclinic
_cell_length_a                    14.828304
_cell_length_b                    6.973923
_cell_length_c                    13.49083
_cell_angle_alpha                 89.999789
_cell_angle_beta                  99.944222
_cell_angle_gamma                 90.000316
_cell_volume                      1374.14668594

loop_
_atom_site_label
_atom_site_type_symbol
_atom_type_description
_atom_site_fract_x
_atom_site_fract_y
_atom_site_fract_z
_atom_type_partial_charge
O1    O     O_R   0.586930 0.505770 0.416350 -0.526331
O2    O     O_R   0.413070 0.005770 0.583650 -0.526285
O3    O     O_R   0.397900 0.173100 0.389630 -0.536987
O4    O     O_R   0.602100 0.673100 0.610370 -0.537075
C1    C     C_R   0.364479 0.345382 0.362849 0.730555
C2    C     C_R   0.635521 0.845382 0.637151 0.730777
O5    O     O_R   0.585280 0.175870 0.404330 -0.551700
O6    O     O_R   0.414720 0.675870 0.595670 -0.551750
O7    O     O_R   0.601790 0.008380 0.598460 -0.531330
O8    O     O_R   0.398210 0.508380 0.401540 -0.531385
C3    C     C_R   0.612819 0.345210 0.380847 0.716070
C4    C     C_R   0.387182 0.845209 0.619153 0.716287
O9    O     O_3   0.505200 0.340120 0.563670 -0.348742
O10   O     O_3   0.494800 0.840120 0.436330 -0.348666
V1    V     V_3+5 0.499040 0.064180 0.488190 1.526801
V2    V     V_3+5 0.500960 0.564180 0.511810 1.526516
C5    C     C_R   0.268898 0.022720 0.695710 -0.032757
C6    C     C_R   0.731107 0.522718 0.304294 -0.032740
C7    C     C_R   0.318684 0.855668 0.687401 -0.069534
C8    C     C_R   0.681318 0.355669 0.312601 -0.069575
C9    C     C_R   0.301911 0.700421 0.747318 -0.096659
C10   C     C_R   0.698086 0.200422 0.252680 -0.096631
C11   C     C_R   0.235170 0.710377 0.809941 -0.124502
C12   C     C_R   0.764828 0.210376 0.190059 -0.124547
H1    H     H_    0.228729 0.592309 0.860019 0.143392
H2    H     H_    0.771266 0.092310 0.139978 0.143399
C13   C     C_R   0.181935 0.876787 0.813449 -0.069336
C14   C     C_R   0.818067 0.376782 0.186553 -0.069344
C15   C     C_R   0.198386 0.031082 0.752567 0.013516
C16   C     C_R   0.801619 0.531077 0.247436 0.013540
C17   C     C_3   0.223060 0.229852 0.786493 -0.447487
C18   C     C_3   0.776949 0.729848 0.213508 -0.447492
C19   C     C_3   0.304932 0.213879 0.733256 0.341100
C20   C     C_3   0.695081 0.713884 0.266749 0.341036
C21   C     C_1   0.783383 0.877225 0.783026 -0.170622
C22   C     C_1   0.216617 0.377225 0.216974 -0.170572
C23   C     C_1   0.716023 0.860116 0.716931 -0.163168
C24   C     C_1   0.283977 0.360116 0.283069 -0.163267
O11   O     O_R   0.101720 0.231700 0.098560 -0.534057
O12   O     O_R   0.898280 0.731700 0.901440 -0.534070
O13   O     O_R   0.914700 0.558980 0.095690 -0.539267
O14   O     O_R   0.085300 0.058980 0.904310 -0.539266
C25   C     C_R   0.885226 0.389762 0.116898 0.700362
C26   C     C_R   0.114775 0.889763 0.883102 0.700394
O15   O     O_R   0.102080 0.561590 0.110390 -0.537297
O16   O     O_R   0.897920 0.061590 0.889610 -0.537306
O17   O     O_R   0.086950 0.728940 0.916330 -0.545874
O18   O     O_R   0.913050 0.228940 0.083670 -0.545873
C27   C     C_R   0.136011 0.391986 0.137308 0.734489
C28   C     C_R   0.863989 0.891986 0.862692 0.734472
O19   O     O_3   0.994770 0.394510 0.936380 -0.371830
O20   O     O_3   0.005230 0.894510 0.063620 -0.371819
V3    V     V_3+5 0.000970 0.670520 0.011800 1.434408
V4    V     V_3+5 0.999030 0.170520 0.988200 1.434399
H3    H     H_    0.345665 0.578053 0.750703 0.179597
H4    H     H_    0.654327 0.078059 0.249291 0.179644
H5    H     H_    0.240065 0.242585 0.869837 0.217295
H6    H     H_    0.759942 0.742578 0.130164 0.217289
H7    H     H_    0.170623 0.333228 0.749964 0.122003
H8    H     H_    0.829390 0.833221 0.250034 0.122011
S1    S     S_3+6 0.411277 0.201503 0.822448 0.040234
O21   O     O_2   0.419662 0.372675 0.891118 -0.301201
O22   O     O_2   0.413468 0.022987 0.885350 -0.285275
O23   O     O_3   0.500513 0.199062 0.760912 -0.493267
H9    H     H_    0.555005 0.179451 0.813776 0.366034
S2    S     S_3+6 0.588732 0.701529 0.177564 0.040264
O24   O     O_2   0.580375 0.872626 0.108844 -0.300912
O25   O     O_2   0.586503 0.522936 0.114714 -0.285581
O26   O     O_3   0.499501 0.699279 0.239112 -0.493184
H10   H     H_    0.445075 0.678069 0.186369 0.365957
H11   H     H_    0.304556 0.314812 0.669629 0.011339
H12   H     H_    0.695463 0.814823 0.330374 0.011377

loop_
_geom_bond_atom_site_label_1
_geom_bond_atom_site_label_2
_ccdc_geom_bond_type
S2    O25   D    
C13   C15   A    
C5    C15   A    
O1    C3    A    
C18   H6    S    
O2    C4    A    
C20   S2    S    
C2    O7    A    
O5    C3    A    
C5    C19   S    
C7    C9    A    
C12   H2    S    
O11   V4    S    
C17   H7    S    
S1    O22   D    
C13   C26   S    
C17   C19   S    
C6    C16   A    
O10   V2    S    
C11   C13   A    
C25   O18   A    
C26   O17   A    
O17   V3    S    
O5    V1    S    
S2    O24   D    
O15   V3    S    
O6    V2    S    
C1    C24   S    
O13   C25   A    
S1    O21   D    
O14   C26   A    
O20   V4    S    
C9    C11   A    
C3    C8    S    
O4    C2    A    
C9    H3    S    
C10   H4    S    
O19   V3    S    
C18   C20   S    
O4    V2    S    
S1    O23   S    
O18   V4    S    
O15   C27   A    
O6    C4    A    
O16   V4    S    
C21   C28   S    
C2    C23   S    
O1    V2    S    
O2    V1    S    
C6    C20   S    
O13   V3    S    
O11   C27   A    
C8    C10   A    
O9    V1    S    
C10   C12   A    
C18   H8    S    
C20   H12   S    
O3    V1    S    
O20   V3    S    
C21   C23   T    
C12   C14   A    
O3    C1    A    
O16   C28   A    
C14   C25   S    
O19   V4    S    
O23   H9    S    
C17   H5    S    
C22   C24   T    
O7    V1    S    
C1    O8    A    
C15   C17   S    
O8    V2    S    
O14   V4    S    
C16   C18   S    
O12   C28   A    
C4    C7    S    
C14   C16   A    
C5    C7    A    
C6    C8    A    
C11   H1    S    
O26   H10   S    
C19   H11   S    
S2    O26   S    
C19   S1    S    
O12   V3    S    
O9    V2    S    
O10   V1    S    
C22   C27   S    
