data_mof_unit_2811.cif
_audit_creation_date              2013-03-05T16:04:29-0500
_audit_creation_method            fapswitch 2.2
_symmetry_space_group_name_H-M    P1
_symmetry_Int_Tables_number       1
_space_group_crystal_system       triclinic
_cell_length_a                    10.807547
_cell_length_b                    9.511405
_cell_length_c                    15.080868
_cell_angle_alpha                 90.042388
_cell_angle_beta                  90.268997
_cell_angle_gamma                 90.086125
_cell_volume                      1550.21790233

loop_
_atom_site_label
_atom_site_type_symbol
_atom_site_description
_atom_site_fract_x
_atom_site_fract_y
_atom_site_fract_z
_atom_type_partial_charge
O1    O     O_R   0.319640 0.618740 0.499990 -0.563280
O2    O     O_R   0.680360 0.381260 0.500010 -0.563276
O3    O     O_R   0.680360 0.618740 0.500010 -0.558118
O4    O     O_R   0.319640 0.381260 0.499990 -0.558133
C1    C     C_R   0.262358 0.499845 0.499578 0.949661
C2    C     C_R   0.737642 0.500155 0.500421 0.949579
O5    O     O_R   0.499970 0.618800 0.370260 -0.571888
O6    O     O_R   0.500030 0.381200 0.629740 -0.571899
O7    O     O_R   0.500030 0.618800 0.629740 -0.611310
O8    O     O_R   0.499970 0.381200 0.370260 -0.611308
C3    C     C_R   0.499979 0.499962 0.328530 0.879239
C4    C     C_R   0.500024 0.500038 0.671470 0.879234
Cu1   Cu    Cu3+1 0.500000 0.640660 0.500000 1.037118
Cu2   Cu    Cu3+1 0.500000 0.359340 0.500000 1.037113
C5    C     C_R   0.500344 0.627949 0.814786 -0.215891
C6    C     C_R   0.499663 0.372051 0.185214 -0.215892
C7    C     C_R   0.500117 0.500060 0.768341 -0.035762
C8    C     C_R   0.499888 0.499940 0.231659 -0.035765
C9    C     C_R   0.499970 0.372144 0.814644 -0.143951
C10   C     C_R   0.500037 0.627856 0.185356 -0.143944
C11   C     C_R   0.499913 0.371213 0.907020 0.096824
C12   C     C_R   0.500096 0.628787 0.092980 0.096823
C13   C     C_R   0.500052 0.500012 0.953523 0.067486
C14   C     C_R   0.499957 0.499988 0.046477 0.067486
C15   C     C_R   0.500287 0.628834 0.907168 0.109151
C16   C     C_R   0.499721 0.371166 0.092831 0.109151
C17   C     C_R   0.499686 0.243742 0.953628 -0.168242
C18   C     C_R   0.500324 0.756258 0.046372 -0.168240
C19   C     C_R   0.499580 0.243718 0.046073 -0.173637
C20   C     C_R   0.500429 0.756282 0.953927 -0.173638
H1    H     H_    0.500543 0.726968 0.779192 0.158361
H2    H     H_    0.499463 0.273032 0.220808 0.158364
H3    H     H_    0.499871 0.273137 0.778941 0.162983
H4    H     H_    0.500135 0.726863 0.221058 0.162987
H5    H     H_    0.499578 0.144212 0.918601 0.143331
H6    H     H_    0.500432 0.855788 0.081399 0.143332
H7    H     H_    0.499399 0.144166 0.080982 0.142878
H8    H     H_    0.500610 0.855834 0.919018 0.142877
C21   C     C_R   0.065135 0.410648 0.558296 0.234136
C22   C     C_R   0.934864 0.589352 0.441699 0.234168
C23   C     C_R   0.936031 0.411622 0.559596 0.234554
C24   C     C_R   0.063969 0.588373 0.440393 0.234508
C25   C     C_R   0.871544 0.500738 0.500930 -0.351309
C26   C     C_R   0.128456 0.499262 0.499064 -0.351311
C27   C     C_R   0.426749 0.074246 0.442212 0.023803
C28   C     C_R   0.573251 0.925754 0.557788 0.023839
C29   C     C_R   0.573168 0.074636 0.557832 0.026465
C30   C     C_R   0.426830 0.925364 0.442168 0.026439
H9    H     H_    0.368037 0.130245 0.395964 0.138149
H10   H     H_    0.631962 0.869755 0.604036 0.138150
H11   H     H_    0.631601 0.130956 0.604218 0.171605
H12   H     H_    0.368395 0.869044 0.395784 0.171592
N1    N     N_R   0.500000 0.852070 0.500000 -0.180492
N2    N     N_R   0.500000 0.147930 0.500000 -0.180497
N3    N     N_R   0.131965 0.327756 0.621816 0.170462
O9    O     O_R   0.193006 0.389173 0.685558 -0.361685
O10   O     O_R   0.144989 0.193257 0.609290 -0.280136
N4    N     N_R   0.868031 0.672246 0.378182 0.170491
O11   O     O_R   0.807054 0.610833 0.314408 -0.361646
O12   O     O_R   0.854912 0.806719 0.390751 -0.280170
N5    N     N_R   0.871010 0.329397 0.624403 0.151524
O13   O     O_R   0.888308 0.194307 0.629455 -0.297627
O14   O     O_R   0.794750 0.389694 0.679002 -0.384353
N6    N     N_R   0.128989 0.670591 0.375580 0.151505
O15   O     O_R   0.111597 0.805656 0.370459 -0.297572
O16   O     O_R   0.205320 0.610308 0.321030 -0.384394

loop_
_geom_bond_atom_site_label_1
_geom_bond_atom_site_label_2
_geom_bond_distance
_ccdc_geom_bond_type
C4    C7    1.460900 S    
O5    Cu1   1.967454 S    
O6    Cu2   1.967454 S    
C13   C14   1.401846 A    
C3    C8    1.460900 S    
C5    C7    1.403200 A    
C21   C26   1.407744 A    
C23   N5    1.437561 S    
C30   N1    1.366771 A    
C6    H2    1.084386 S    
C28   H10   1.081750 S    
C8    C10   1.403261 A    
O3    Cu1   1.960677 S    
C27   H9    1.081751 S    
O6    C4    1.293296 A    
O3    C2    1.287461 A    
C10   H4    1.084406 S    
N6    O15   1.300920 A    
N3    O9    1.300991 A    
C18   C20   1.394163 A    
C11   C17   1.401892 A    
C21   C23   1.395571 A    
C12   C18   1.401892 A    
Cu1   Cu2   2.675748 S    
O5    C3    1.293298 A    
C23   C25   1.408559 A    
C20   H8    1.083736 S    
O2    C2    1.288408 A    
C24   C26   1.408579 A    
C29   N2    1.366769 A    
O1    C1    1.288408 A    
C28   N1    1.366874 A    
C22   C24   1.395582 A    
Cu2   N2    2.010807 S    
C1    C26   1.447138 S    
C10   C12   1.393144 A    
C27   N2    1.366876 A    
Cu1   N1    2.010806 S    
C2    C25   1.447139 S    
N3    O10   1.300950 A    
C11   C13   1.411130 A    
O4    Cu2   1.960678 S    
N5    O13   1.300934 A    
O2    Cu2   1.960054 S    
O7    C4    1.293472 A    
C12   C14   1.411130 A    
C5    C15   1.393229 A    
C17   C19   1.394164 A    
O8    C3    1.293471 A    
N4    O12   1.300920 A    
C24   N6    1.437582 S    
O1    Cu1   1.960055 S    
C30   H12   1.081387 S    
C13   C15   1.411130 A    
C22   N4    1.434308 S    
C18   H6    1.083736 S    
C16   C19   1.401934 A    
C6    C8    1.403201 A    
O8    Cu2   1.967760 S    
C27   C30   1.416080 A    
C19   H7    1.083736 S    
C15   C20   1.401933 A    
N5    O14   1.301249 A    
O7    Cu1   1.967760 S    
C28   C29   1.416080 A    
C7    C9    1.403260 A    
C29   H11   1.081384 S    
C17   H5    1.083736 S    
N4    O11   1.300984 A    
C5    H1    1.084386 S    
C22   C25   1.407742 A    
C21   N3    1.434316 S    
C14   C16   1.411130 A    
C9    H3    1.084406 S    
O4    C1    1.287461 A    
C9    C11   1.393143 A    
C6    C16   1.393228 A    
N6    O16   1.301222 A    
