data_mof_unit_4564.cif
_audit_creation_date              2012-10-26T21:32:57-0400
_audit_creation_method            fapswitch 2.2
_symmetry_space_group_name_H-M    P1
_symmetry_Int_Tables_number       1
_space_group_crystal_system       triclinic
_cell_length_a                    28.216604
_cell_length_b                    18.489951
_cell_length_c                    17.078846
_cell_angle_alpha                 90.095809
_cell_angle_beta                  60.756236
_cell_angle_gamma                 90.157788
_cell_volume                      7774.76488951

loop_
_atom_site_label
_atom_site_type_symbol
_atom_type_description
_atom_site_fract_x
_atom_site_fract_y
_atom_site_fract_z
_atom_type_partial_charge
C1    C     C_R   0.702027 0.269146 0.675678 0.916726
C2    C     C_R   0.934124 0.628636 0.555176 0.503632
C3    C     C_R   0.074072 0.900425 0.933936 0.912138
C4    C     C_R   0.574229 0.599412 0.933838 0.909886
C5    C     C_R   0.426045 0.400242 0.065912 0.915092
C6    C     C_R   0.425811 0.599419 0.066185 0.911355
C7    C     C_R   0.574093 0.400456 0.933925 0.914396
C8    C     C_R   0.547518 0.000824 0.507846 -0.155414
C9    C     C_R   0.452009 0.999950 0.493073 -0.166532
C10   C     C_R   0.034915 0.497132 0.548598 -0.167579
C11   C     C_R   0.934792 0.498076 0.550136 -0.176521
C12   C     C_R   0.508941 0.056748 0.548848 0.037417
C13   C     C_R   0.925305 0.368392 0.574089 0.373272
C14   C     C_R   0.490635 0.944128 0.452051 0.040441
C15   C     C_R   0.462457 0.058832 0.536387 -0.004058
C16   C     C_R   0.537013 0.942104 0.464540 0.048017
C17   C     C_R   0.017543 0.559860 0.522559 0.052718
C18   C     C_R   0.953749 0.432990 0.568722 0.051510
C19   C     C_R   0.963135 0.563196 0.539776 0.020591
C20   C     C_R   0.000729 0.435623 0.580210 0.042886
C21   C     C_R   0.630668 0.941465 0.486272 0.017942
C22   C     C_R   0.368310 0.058274 0.515858 -0.076995
C23   C     C_R   0.391750 0.939401 0.446824 0.036750
C24   C     C_R   0.056048 0.614416 0.474061 0.373602
C25   C     C_R   0.607937 0.060809 0.554076 0.035096
C26   C     C_R   0.103345 0.435707 0.573551 0.031305
C27   C     C_R   0.865718 0.564828 0.532241 -0.070855
C28   C     C_R   0.862100 0.433937 0.539765 0.029765
C29   C     C_R   0.120411 0.557818 0.512135 0.022211
C30   C     C_R   0.672404 0.938602 0.510102 -0.068295
C31   C     C_R   0.327269 0.061347 0.490400 -0.101032
C32   C     C_R   0.339773 0.936837 0.452296 -0.046580
C33   C     C_R   0.660069 0.063228 0.548115 -0.045226
C34   C     C_R   0.157746 0.435057 0.558283 -0.050729
C35   C     C_R   0.571515 0.880939 0.440425 0.387670
C36   C     C_R   0.825714 0.563921 0.503022 -0.092094
C37   C     C_R   0.823383 0.435399 0.508101 -0.071302
C38   C     C_R   0.166907 0.560967 0.524251 -0.066088
C39   C     C_R   0.688102 0.000165 0.536400 -0.343324
C40   C     C_R   0.311798 0.999852 0.463627 -0.309730
C41   C     C_R   0.185303 0.499214 0.545363 -0.339868
C42   C     C_R   0.807403 0.499564 0.488254 -0.317326
C43   C     C_R   0.595091 0.000852 0.516340 -0.100247
C44   C     C_R   0.404268 0.999336 0.485116 -0.059891
C45   C     C_R   0.085783 0.497171 0.545876 -0.092323
C46   C     C_R   0.427324 0.119555 0.561720 0.515230
C47   C     C_R   0.888235 0.498708 0.538943 -0.049901
C48   C     C_R   0.065823 0.379316 0.618317 0.292206
C49   C     C_R   0.882450 0.627517 0.560991 0.321616
C50   C     C_R   0.875159 0.371720 0.573922 0.312109
C51   C     C_R   0.109109 0.609958 0.463091 0.325613
C52   C     C_R   0.622184 0.886400 0.437358 0.312177
C53   C     C_R   0.376894 0.113665 0.564868 0.313648
C54   C     C_R   0.432668 0.888595 0.397737 0.288659
C55   C     C_R   0.567150 0.111825 0.603041 0.292322
C56   C     C_R   0.484379 0.897161 0.391536 0.412459
C57   C     C_R   0.515297 0.103257 0.609667 0.399820
C58   C     C_R   0.721618 0.266593 0.952609 -0.035704
C59   C     C_R   0.277315 0.731030 0.048372 -0.058235
C60   C     C_R   0.279883 0.263131 0.046336 -0.037704
C61   C     C_R   0.298104 0.731150 0.324243 0.912205
C62   C     C_R   0.723410 0.730690 0.950449 -0.065513
C63   C     C_R   0.220993 0.765136 0.952951 -0.035618
C64   C     C_R   0.777835 0.232279 0.048120 -0.062316
C65   C     C_R   0.779404 0.764488 0.046422 -0.038461
C66   C     C_R   0.223697 0.229946 0.950424 -0.065542
C67   C     C_R   0.777741 0.280846 0.914095 0.471459
C68   C     C_R   0.220808 0.716307 0.086566 0.471124
C69   C     C_R   0.223640 0.276282 0.085582 0.471942
C70   C     C_R   0.779614 0.714586 0.913091 0.475398
C71   C     C_R   0.277258 0.778577 0.913873 0.471948
C72   C     C_R   0.298216 0.268669 0.324172 0.908467
C73   C     C_R   0.721376 0.217234 0.086073 0.470851
C74   C     C_R   0.723599 0.779991 0.084080 0.474281
C75   C     C_R   0.280242 0.215680 0.911840 0.469219
C76   C     C_R   0.805213 0.263485 0.962105 -0.338594
C77   C     C_R   0.193464 0.735104 0.039457 -0.267973
C78   C     C_R   0.196225 0.259654 0.037258 -0.341059
C79   C     C_R   0.806799 0.732980 0.960697 -0.269184
C80   C     C_R   0.304739 0.761529 0.961966 -0.344735
C81   C     C_R   0.694121 0.235947 0.038786 -0.269256
C82   C     C_R   0.696211 0.762805 0.035894 -0.338426
C83   C     C_R   0.701855 0.731253 0.675775 0.868528
C84   C     C_R   0.307513 0.233946 0.959331 -0.265605
C85   C     C_R   0.644150 0.327439 0.945628 -0.212564
C86   C     C_R   0.355284 0.671553 0.054999 -0.190201
C87   C     C_R   0.356924 0.325213 0.053572 -0.212443
C88   C     C_R   0.645224 0.671232 0.944443 -0.189590
C89   C     C_R   0.143726 0.826631 0.945931 -0.212949
C90   C     C_R   0.855607 0.172200 0.054753 -0.188002
C91   C     C_R   0.856668 0.825788 0.053635 -0.209558
C92   C     C_R   0.145431 0.170801 0.944249 -0.191620
C93   C     C_R   0.616838 0.347635 0.898234 -0.072441
C94   C     C_R   0.201921 0.768940 0.675715 0.896683
C95   C     C_R   0.383031 0.652181 0.101925 -0.074746
C96   C     C_R   0.383764 0.346606 0.101336 -0.069598
C97   C     C_R   0.617166 0.652064 0.897924 -0.072280
C98   C     C_R   0.116624 0.847306 0.898360 -0.069941
C99   C     C_R   0.883170 0.152402 0.101841 -0.071589
C100  C     C_R   0.883609 0.846859 0.101359 -0.069584
C101  C     C_R   0.117225 0.151972 0.897875 -0.077059
C102  C     C_R   0.633585 0.322716 0.813022 -0.255282
C103  C     C_R   0.366658 0.677791 0.186750 -0.246948
C104  C     C_R   0.366925 0.322085 0.186738 -0.258606
C105  C     C_R   0.798185 0.231313 0.324217 0.898021
C106  C     C_R   0.633386 0.677742 0.813227 -0.254316
C107  C     C_R   0.133403 0.822523 0.813067 -0.260346
C108  C     C_R   0.866742 0.177844 0.186765 -0.255964
C109  C     C_R   0.866670 0.822394 0.186791 -0.263717
C110  C     C_R   0.133329 0.177899 0.813321 -0.244647
C111  C     C_R   0.680165 0.282612 0.770417 -0.073714
C112  C     C_R   0.320139 0.718059 0.229335 -0.051875
C113  C     C_R   0.320624 0.281158 0.229110 -0.086853
C114  C     C_R   0.680015 0.717986 0.770471 -0.063771
C115  C     C_R   0.179775 0.781978 0.770625 -0.083732
C116  C     C_R   0.798029 0.769044 0.324242 0.917697
C117  C     C_R   0.820400 0.218482 0.229210 -0.060597
C118  C     C_R   0.820086 0.782060 0.229368 -0.078521
C119  C     C_R   0.180013 0.218026 0.770528 -0.058834
C120  C     C_R   0.708785 0.262089 0.815900 -0.092834
C121  C     C_R   0.291490 0.738548 0.183855 -0.182825
C122  C     C_R   0.292636 0.259094 0.183059 -0.106943
C123  C     C_R   0.708998 0.738287 0.815531 -0.197975
C124  C     C_R   0.208038 0.760742 0.816408 -0.108720
C125  C     C_R   0.792029 0.239529 0.183499 -0.193578
C126  C     C_R   0.791693 0.760834 0.183626 -0.095228
C127  C     C_R   0.201845 0.231275 0.675801 0.884109
C128  C     C_R   0.209079 0.238139 0.815545 -0.186462
C129  C     C_R   0.690846 0.284575 0.904446 0.137511
C130  C     C_R   0.308749 0.714680 0.095993 0.083054
C131  C     C_R   0.310633 0.281384 0.094457 0.141077
C132  C     C_R   0.691899 0.714246 0.903125 0.083938
C133  C     C_R   0.190175 0.783271 0.904911 0.140334
C134  C     C_R   0.809247 0.215669 0.095665 0.085580
C135  C     C_R   0.810009 0.782698 0.094775 0.140060
C136  C     C_R   0.192107 0.213832 0.903043 0.080221
C137  C     C_R   0.691280 0.129375 0.535327 0.956153
C138  C     C_R   0.012929 0.382354 0.627400 0.411866
C139  C     C_R   0.308681 0.870652 0.464800 0.952126
C140  C     C_R   0.302274 0.127813 0.485180 0.901952
C141  C     C_R   0.697912 0.872190 0.514165 0.969051
C142  C     C_R   0.195872 0.627483 0.519377 0.951349
C143  C     C_R   0.800964 0.371247 0.489983 0.945886
C144  C     C_R   0.802837 0.628198 0.485219 0.889665
C145  C     C_R   0.190755 0.369886 0.538153 0.966234
C146  C     C_R   0.074250 0.099383 0.933813 0.909785
C147  C     C_R   0.926075 0.900211 0.065863 0.915824
C148  C     C_R   0.925821 0.099437 0.066179 0.911233
H1    H     H_    0.723935 0.999740 0.544419 0.200355
H2    H     H_    0.848186 0.275349 0.932711 0.165832
H3    H     H_    0.849648 0.720584 0.931334 0.187444
H4    H     H_    0.153171 0.270847 0.067144 0.159423
H5    H     H_    0.630667 0.347619 0.012843 0.160093
H6    H     H_    0.368281 0.650485 0.988317 0.159130
H7    H     H_    0.370369 0.345317 0.986373 0.160637
H8    H     H_    0.632329 0.650174 0.011058 0.159792
H9    H     H_    0.130301 0.846833 0.013118 0.159775
H10   H     H_    0.868595 0.151226 0.988031 0.160294
H11   H     H_    0.870326 0.845599 0.986247 0.161303
H12   H     H_    0.276276 0.000312 0.454736 0.196942
H13   H     H_    0.132635 0.149436 0.010693 0.159427
H14   H     H_    0.612250 0.338730 0.777482 0.184215
H15   H     H_    0.388149 0.662053 0.222131 0.180860
H16   H     H_    0.387822 0.339202 0.222693 0.181808
H17   H     H_    0.611671 0.662127 0.778074 0.178984
H18   H     H_    0.112312 0.839032 0.777308 0.182706
H19   H     H_    0.888029 0.161690 0.222330 0.178371
H20   H     H_    0.887786 0.839047 0.222561 0.182555
H21   H     H_    0.111497 0.162527 0.778274 0.182228
H22   H     H_    0.745475 0.230080 0.782185 0.175711
H23   H     H_    0.223662 0.500012 0.545591 0.199816
H24   H     H_    0.254780 0.770542 0.217495 0.178893
H25   H     H_    0.256230 0.226317 0.216535 0.177316
H26   H     H_    0.745824 0.770255 0.781790 0.191030
H27   H     H_    0.244501 0.728283 0.782850 0.177543
H28   H     H_    0.755483 0.271855 0.216991 0.178073
H29   H     H_    0.754876 0.728861 0.217363 0.172430
H30   H     H_    0.245881 0.270150 0.781800 0.192079
H31   H     H_    0.059260 0.281065 0.662040 0.345672
H32   H     H_    0.809420 0.660946 0.638516 0.336678
H33   H     H_    0.846632 0.288056 0.653490 0.359303
H34   H     H_    0.779243 0.499492 0.462094 0.193370
H35   H     H_    0.142862 0.663543 0.350220 0.366455
H36   H     H_    0.655584 0.815594 0.340628 0.370088
H37   H     H_    0.300757 0.135535 0.641383 0.322207
H38   H     H_    0.448384 0.795556 0.337804 0.345973
H39   H     H_    0.551345 0.204678 0.663395 0.346844
H40   H     H_    0.979080 0.327015 0.738898 0.333054
H41   H     H_    0.931273 0.732135 0.579515 0.376333
H42   H     H_    0.931422 0.264310 0.552711 0.328350
H43   H     H_    0.063809 0.711551 0.426725 0.350347
H44   H     H_    0.574341 0.775315 0.437878 0.330701
H45   H     H_    0.651090 0.224282 0.068736 0.184873
H46   H     H_    0.418121 0.224072 0.583302 0.374008
H47   H     H_    0.523005 0.858621 0.269429 0.336604
H48   H     H_    0.477149 0.140521 0.732469 0.342952
H49   H     H_    0.843354 0.320208 0.813806 0.355510
H50   H     H_    0.215756 0.655490 0.183201 0.345040
H51   H     H_    0.157744 0.313220 0.187330 0.335921
H52   H     H_    0.784400 0.654776 0.815479 0.339598
H53   H     H_    0.343125 0.816252 0.812557 0.336178
H54   H     H_    0.716166 0.156976 0.183392 0.342346
H55   H     H_    0.658479 0.821448 0.182971 0.351824
H56   H     H_    0.347784 0.772983 0.932250 0.159504
H57   H     H_    0.285491 0.156060 0.813947 0.348306
H58   H     H_    0.350647 0.223084 0.928854 0.188803
H59   H     H_    0.653447 0.775529 0.064675 0.164802
H60   H     H_    0.150360 0.723837 0.069735 0.186256
O1    O     O_R   0.746490 0.236330 0.638080 -0.610807
O2    O     O_R   0.325830 0.813840 0.483730 -0.582741
O3    O     O_R   0.325830 0.186160 0.483730 -0.590442
O4    O     O_R   0.674170 0.813840 0.516270 -0.589694
O5    O     O_R   0.174170 0.686160 0.516270 -0.576588
O6    O     O_R   0.825830 0.313840 0.483730 -0.585595
O7    O     O_R   0.825830 0.686160 0.483730 -0.589674
O8    O     O_R   0.174170 0.313840 0.516270 -0.584516
O9    O     O_R   0.739960 0.127620 0.525000 -0.650585
O10   O     O_R   0.260040 0.872380 0.475000 -0.651684
O11   O     O_R   0.260040 0.127620 0.475000 -0.643226
O12   O     O_R   0.253510 0.763670 0.361920 -0.621012
O13   O     O_R   0.739960 0.872380 0.525000 -0.648827
O14   O     O_R   0.239960 0.627620 0.525000 -0.651251
O15   O     O_R   0.760040 0.372380 0.475000 -0.649328
O16   O     O_R   0.760040 0.627620 0.475000 -0.637949
O17   O     O_R   0.239960 0.372380 0.525000 -0.649271
O18   O     O_R   0.680700 0.294870 0.629350 -0.629294
O19   O     O_R   0.319300 0.705130 0.370650 -0.625421
O20   O     O_R   0.319300 0.294870 0.370650 -0.625891
O21   O     O_R   0.680700 0.705130 0.629350 -0.635009
O22   O     O_R   0.180700 0.794870 0.629350 -0.629158
O23   O     O_R   0.253510 0.236330 0.361920 -0.630969
O24   O     O_R   0.819300 0.205130 0.370650 -0.628897
O25   O     O_R   0.819300 0.794870 0.370650 -0.633317
O26   O     O_R   0.180700 0.205130 0.629350 -0.625355
O27   O     O_R   0.062020 0.072840 0.007170 -0.626890
O28   O     O_R   0.937980 0.927160 0.992830 -0.624011
O29   O     O_R   0.937980 0.072840 0.992830 -0.625107
O30   O     O_R   0.062020 0.927160 0.007170 -0.625174
O31   O     O_R   0.562020 0.572840 0.007170 -0.625842
O32   O     O_R   0.437980 0.427160 0.992830 -0.624133
O33   O     O_R   0.437980 0.572840 0.992830 -0.626603
O34   O     O_R   0.746490 0.763670 0.638080 -0.618302
O35   O     O_R   0.562020 0.427160 0.007170 -0.625395
O36   O     O_R   0.947860 0.073950 0.109290 -0.622762
O37   O     O_R   0.052140 0.926050 0.890710 -0.623189
O38   O     O_R   0.052140 0.073950 0.890710 -0.622710
O39   O     O_R   0.947860 0.926050 0.109290 -0.622731
O40   O     O_R   0.447860 0.573950 0.109290 -0.621762
O41   O     O_R   0.552140 0.426050 0.890710 -0.622932
O42   O     O_R   0.552140 0.573950 0.890710 -0.623492
O43   O     O_R   0.447860 0.426050 0.109290 -0.623453
O44   O     O_3   0.079617 0.325561 0.659554 -0.772857
O45   O     O_R   0.246490 0.736330 0.638080 -0.633375
O46   O     O_3   0.846573 0.681775 0.609678 -0.731944
O47   O     O_3   0.836090 0.319093 0.617305 -0.728520
O48   O     O_3   0.151870 0.648896 0.397082 -0.755889
O49   O     O_3   0.664804 0.841741 0.382058 -0.739231
O50   O     O_3   0.336140 0.159998 0.621458 -0.734659
O51   O     O_3   0.423854 0.836981 0.347652 -0.772559
O52   O     O_3   0.576128 0.163436 0.652942 -0.773084
O53   O     O_3   0.970844 0.340887 0.690855 -0.732095
O54   O     O_3   0.952761 0.689610 0.578815 -0.721833
O55   O     O_3   0.948961 0.302295 0.570937 -0.726491
O56   O     O_R   0.753510 0.263670 0.361920 -0.632076
O57   O     O_3   0.042947 0.667178 0.430716 -0.739617
O58   O     O_3   0.552641 0.814214 0.430716 -0.732453
O59   O     O_3   0.444520 0.185910 0.576274 -0.707886
O60   O     O_3   0.530386 0.868826 0.319418 -0.729830
O61   O     O_3   0.469308 0.130310 0.682980 -0.696201
O62   O     O_3   0.804543 0.313874 0.831100 -0.766938
O63   O     O_3   0.190897 0.681837 0.167948 -0.770202
O64   O     O_3   0.196622 0.307484 0.169723 -0.767321
O65   O     O_3   0.809373 0.679437 0.832067 -0.735900
O66   O     O_3   0.304247 0.810370 0.830105 -0.768401
O67   O     O_R   0.753510 0.736330 0.361920 -0.612569
O68   O     O_3   0.691382 0.182717 0.167464 -0.758436
O69   O     O_3   0.697076 0.814132 0.166360 -0.769661
O70   O     O_3   0.310266 0.182315 0.829678 -0.712867
O71   O     O_R   0.246490 0.263670 0.638080 -0.621003
O72   O     O_R   0.674170 0.186160 0.516270 -0.583979
Zn1   Zn    Zn3+2 0.792340 0.208750 0.507670 0.987195
Zn2   Zn    Zn3+2 0.494040 0.500000 0.919480 0.954818
Zn3   Zn    Zn3+2 0.005960 1.000000 0.080520 0.953973
Zn4   Zn    Zn3+2 0.994040 0.000000 0.919480 0.958500
Zn5   Zn    Zn3+2 0.207660 0.791250 0.492330 0.997861
Zn6   Zn    Zn3+2 0.207660 0.208750 0.492330 0.989125
Zn7   Zn    Zn3+2 0.792340 0.791250 0.507670 1.008446
Zn8   Zn    Zn3+2 0.292340 0.708750 0.507670 0.992932
Zn9   Zn    Zn3+2 0.707660 0.291250 0.492330 0.994032
Zn10  Zn    Zn3+2 0.707660 0.708750 0.492330 0.982305
Zn11  Zn    Zn3+2 0.292340 0.291250 0.507670 0.998341
Zn12  Zn    Zn3+2 0.505960 0.500000 0.080520 0.955551

loop_
_geom_bond_atom_site_label_1
_geom_bond_atom_site_label_2
_ccdc_geom_bond_type
C28   C47   A    
C72   O23   A    
C24   O57   S    
O2    Zn8   S    
C36   C42   A    
C137  O72   A    
C124  H27   S    
C61   O19   A    
C13   C18   A    
C63   C133  S    
C6    O40   A    
C16   C35   A    
C90   C134  A    
C62   C70   A    
C55   O52   S    
C37   C42   A    
C82   H59   S    
O14   Zn8   S    
C50   O47   S    
C85   C129  A    
C113  C122  A    
C33   C137  S    
C46   O59   S    
C116  O25   A    
C6    O33   A    
O8    Zn6   S    
C91   C100  A    
C88   C97   A    
C119  C128  A    
C24   C51   A    
C70   C79   A    
C100  C109  A    
C8    C16   A    
C70   O65   S    
C83   C114  S    
C102  C111  A    
C51   O48   S    
C73   C81   A    
C109  C118  A    
C7    C93   S    
C64   C134  S    
O41   Zn2   S    
O40   Zn12  S    
C62   C132  S    
C32   C139  S    
C101  C110  A    
C145  O17   A    
C72   C113  S    
O27   Zn3   S    
C29   C45   A    
C103  C112  A    
C48   O44   S    
C138  O53   S    
C57   O61   S    
O37   Zn4   S    
H48   O61   S    
H47   O60   S    
C13   O55   S    
C65   C135  S    
C66   C136  S    
C124  C133  A    
C63   C71   A    
C55   C57   A    
C123  H26   S    
C68   C77   A    
O11   Zn6   S    
C53   O50   S    
C2    C19   A    
C25   C55   A    
C142  O5    A    
C59   C80   A    
C104  H16   S    
C94   C115  S    
C89   H9    S    
O72   Zn9   S    
C48   C138  A    
C86   H6    S    
H31   O44   S    
C3    C98   S    
C2    O54   S    
O5    Zn5   S    
C46   C53   A    
C4    O31   A    
O16   Zn10  S    
H41   O54   S    
C38   C142  S    
C9    C15   A    
C86   C95   A    
C81   H45   S    
C110  H21   S    
C84   H58   S    
C58   C67   A    
C137  O9    A    
O12   Zn5   S    
C73   O68   S    
C140  O3    A    
C141  O13   A    
C1    O18   A    
C11   C18   A    
C65   C79   A    
C5    O32   A    
C123  C132  A    
C139  O10   A    
C121  C130  A    
C25   C43   A    
C80   H56   S    
C99   C108  A    
C41   H23   S    
C83   O34   A    
C30   C141  S    
C61   C112  S    
C75   C84   A    
C52   O49   S    
C58   C129  S    
H52   O65   S    
O1    Zn1   S    
C87   C131  A    
O13   Zn7   S    
C26   C45   A    
C67   O62   S    
C85   C93   A    
C116  C118  S    
C29   C38   A    
C64   C73   A    
O23   Zn6   S    
O24   Zn1   S    
C147  O28   A    
O10   Zn5   S    
O32   Zn2   S    
C4    C97   S    
H43   O57   S    
O7    Zn7   S    
C95   C103  A    
C89   C133  A    
O31   Zn12  S    
C1    O1    A    
C120  C129  A    
C105  O24   A    
C38   C41   A    
C10   C20   A    
C86   C130  A    
C85   H5    S    
H40   O53   S    
C65   C74   A    
H42   O55   S    
C109  H20   S    
C145  O8    A    
H37   O50   S    
C76   H2    S    
H38   O51   S    
C8    C12   A    
C10   C45   A    
C101  C146  S    
C114  C123  A    
H54   O68   S    
O6    Zn1   S    
C12   C57   A    
C122  C131  A    
C94   O22   A    
C29   C51   A    
C27   C47   A    
C146  O27   A    
C108  C117  A    
O67   Zn10  S    
C110  C119  A    
C39   H1    S    
C89   C98   A    
C112  C121  A    
C69   O64   S    
C49   O46   S    
C60   C69   A    
O22   Zn5   S    
C30   C39   A    
O20   Zn11  S    
C14   C16   A    
O56   Zn9   S    
C56   O60   S    
C3    O30   A    
C104  C113  A    
C121  H24   S    
C6    C95   S    
C148  O36   A    
C15   C46   A    
C127  O71   A    
C31   C140  S    
C36   C144  S    
C125  H28   S    
C117  C125  A    
C27   C49   A    
C25   C33   A    
C119  C127  S    
C125  C134  A    
C92   H13   S    
O43   Zn12  S    
C90   C99   A    
C11   C47   A    
O28   Zn4   S    
C8    C43   A    
O33   Zn2   S    
O45   Zn8   S    
C42   H34   S    
C11   C19   A    
C7    O41   A    
C88   H8    S    
C128  C136  A    
C100  C147  S    
O18   Zn9   S    
C31   C40   A    
C20   C138  A    
O29   Zn4   S    
O3    Zn11  S    
O39   Zn3   S    
O30   Zn3   S    
O17   Zn11  S    
O38   Zn4   S    
C91   H11   S    
C26   C48   A    
C62   C82   A    
C54   O51   S    
C105  C117  S    
C92   C136  A    
C34   C41   A    
C74   C82   A    
C60   C131  S    
C139  O2    A    
C66   C78   A    
C75   O70   S    
C148  O29   A    
C106  H17   S    
H35   O48   S    
C68   O63   S    
C58   C81   A    
H32   O46   S    
C83   O21   A    
C23   C44   A    
C116  O67   A    
C9    C14   A    
C140  O11   A    
C12   C15   A    
C102  H14   S    
C92   C101  A    
C97   C106  A    
C126  C135  A    
C94   O45   A    
C5    C96   S    
O35   Zn12  S    
O36   Zn3   S    
C115  C124  A    
C37   C143  S    
C40   H12   S    
H46   O59   S    
C93   C102  A    
C27   C36   A    
C21   C30   A    
C146  O38   A    
C23   C32   A    
O19   Zn8   S    
C1    C111  S    
C120  H22   S    
O25   Zn7   S    
H55   O69   S    
C105  O56   A    
C66   C75   A    
C74   O69   S    
C98   C107  A    
C91   C135  A    
C72   O20   A    
C35   C52   A    
C3    O37   A    
H49   O62   S    
H51   O64   S    
C14   C56   A    
C99   C148  S    
C59   C130  S    
C5    O43   A    
C61   O12   A    
C78   H4    S    
C33   C39   A    
C106  C114  A    
C28   C37   A    
O21   Zn10  S    
C143  O15   A    
C34   C145  S    
C10   C17   A    
C71   O66   S    
C126  H29   S    
H33   O47   S    
C21   C43   A    
C28   C50   A    
C26   C34   A    
C22   C44   A    
H57   O70   S    
H53   O66   S    
C107  H18   S    
C147  O39   A    
O42   Zn2   S    
C69   C78   A    
C71   C80   A    
C22   C53   A    
C54   C56   A    
H39   O52   S    
C17   C24   A    
C22   C31   A    
C77   H60   S    
O26   Zn6   S    
C13   C50   A    
C111  C120  A    
C90   H10   S    
C2    C49   A    
C59   C68   A    
O9    Zn1   S    
C87   C96   A    
C64   C76   A    
H44   O58   S    
C9    C44   A    
C141  O4    A    
C107  C115  A    
H50   O63   S    
C143  O6    A    
C108  H19   S    
O71   Zn11  S    
O15   Zn9   S    
C87   H7    S    
C128  H30   S    
C88   C132  A    
O4    Zn10  S    
C23   C54   A    
C79   H3    S    
C63   C77   A    
C127  O26   A    
C144  O7    A    
C122  H25   S    
C103  H15   S    
H36   O49   S    
C96   C104  A    
C4    O42   A    
C60   C84   A    
C17   C19   A    
C18   C20   A    
C32   C40   A    
C35   O58   S    
O34   Zn7   S    
C144  O16   A    
C7    O35   A    
C67   C76   A    
C118  C126  A    
C142  O14   A    
C21   C52   A    
