data_mof_unit_4712.cif
_audit_creation_date              2012-12-10T19:00:01-0500
_audit_creation_method            fapswitch 2.2
_symmetry_space_group_name_H-M    P1
_symmetry_Int_Tables_number       1
_space_group_crystal_system       triclinic
_cell_length_a                    10.719742
_cell_length_b                    10.639482
_cell_length_c                    9.986275
_cell_angle_alpha                 91.543097
_cell_angle_beta                  90.964392
_cell_angle_gamma                 89.987856
_cell_volume                      1138.38529864

loop_
_atom_site_label
_atom_site_type_symbol
_atom_type_description
_atom_site_fract_x
_atom_site_fract_y
_atom_site_fract_z
_atom_type_partial_charge
C1    C     C_R   0.498783 0.260438 0.498751 0.842543
C2    C     C_R   0.501423 0.739536 0.501394 0.851715
C3    C     C_R   0.873330 0.470921 0.506410 -0.186924
C4    C     C_R   0.124910 0.518112 0.497888 -0.176467
C5    C     C_R   0.939304 0.498426 0.626270 -0.060669
C6    C     C_R   0.058743 0.487100 0.378890 -0.096518
C7    C     C_R   0.555373 0.061503 0.393904 -0.215227
C8    C     C_R   0.446511 0.938418 0.607535 -0.209258
C9    C     C_R   0.558821 0.932908 0.396748 -0.219168
C10   C     C_R   0.443671 0.067059 0.604985 -0.204349
C11   C     C_R   0.503583 0.872191 0.503099 0.003698
C12   C     C_R   0.497866 0.127739 0.497909 0.002247
C13   C     C_R   0.522801 0.607157 0.075925 -0.194164
C14   C     C_R   0.477065 0.392743 0.923734 -0.183195
C15   C     C_R   0.520822 0.608542 0.933364 0.282802
C16   C     C_R   0.473898 0.391937 0.067241 0.274038
C17   C     C_R   0.259945 0.510297 0.499313 0.889426
C18   C     C_R   0.739417 0.487949 0.501421 0.892077
C19   C     C_R   0.162931 0.728932 0.137063 0.284279
C20   C     C_R   0.793863 0.289423 0.879625 0.272614
C21   C     C_R   0.105288 0.672411 0.244896 -0.162438
C22   C     C_R   0.850456 0.330958 0.763911 -0.192929
C23   C     C_R   0.100369 0.540942 0.252726 0.110480
C24   C     C_R   0.891182 0.456136 0.755852 0.152238
C25   C     C_R   0.146157 0.465280 0.148053 -0.138417
C26   C     C_R   0.879525 0.538107 0.867331 -0.138362
C27   C     C_R   0.199782 0.521026 0.038450 -0.158648
C28   C     C_R   0.820897 0.497204 0.982062 -0.205408
C29   C     C_R   0.211466 0.651925 0.034616 -0.193188
C30   C     C_R   0.776238 0.373987 0.986985 -0.141876
C31   C     C_R   0.936279 0.446608 0.387271 0.178130
C32   C     C_R   0.061763 0.537064 0.618994 0.162672
H1    H     H_    0.260159 0.693626 0.953133 0.120371
H2    H     H_    0.727778 0.343951 0.074430 0.178165
H3    H     H_    0.066606 0.730178 0.324929 0.128464
H4    H     H_    0.861360 0.266044 0.679373 0.115609
H5    H     H_    0.143754 0.363794 0.153194 0.115487
H6    H     H_    0.910413 0.634741 0.863777 0.161942
H7    H     H_    0.235468 0.461910 0.958358 0.135732
H8    H     H_    0.808450 0.561500 0.066634 0.163253
H9    H     H_    0.598739 0.108939 0.312215 0.176826
H10   H     H_    0.402414 0.890984 0.688920 0.156756
H11   H     H_    0.604003 0.881069 0.316194 0.149337
H12   H     H_    0.398518 0.118893 0.685566 0.144709
H13   H     H_    0.540169 0.693646 0.132478 0.151324
H14   H     H_    0.456529 0.308741 0.864698 0.170259
N1    N     N_R   0.499970 0.499970 0.857200 -0.106983
N2    N     N_R   0.500030 0.500030 0.142800 -0.113544
O1    O     O_R   0.499990 0.316750 0.614620 -0.637150
O2    O     O_R   0.500010 0.683250 0.385380 -0.635133
O3    O     O_R   0.499990 0.316780 0.385290 -0.609444
O4    O     O_R   0.500010 0.683220 0.614710 -0.589473
O5    O     O_R   0.316760 0.500000 0.614660 -0.631147
O6    O     O_R   0.683240 0.500000 0.385340 -0.585286
O7    O     O_R   0.316760 0.500020 0.385330 -0.607324
O8    O     O_R   0.683240 0.499980 0.614670 -0.616056
Zn1   Zn    Zn3+2 0.500000 0.499980 0.653120 0.943491
Zn2   Zn    Zn3+2 0.500000 0.500020 0.346880 0.955242
N3    N     N_2   0.531686 0.726243 0.871370 -0.274926
H15   H     H_    0.481482 0.796560 0.919040 0.191326
C33   C     C_3   0.658337 0.765112 0.847871 -0.754583
H16   H     H_    0.657821 0.859222 0.802395 0.234159
H17   H     H_    0.703151 0.698555 0.776439 0.275159
H18   H     H_    0.712771 0.770645 0.943556 0.203357
N4    N     N_2   0.436379 0.281471 0.133382 -0.265821
H19   H     H_    0.358396 0.294077 0.191102 0.249247
C34   C     C_3   0.441623 0.160485 0.063655 -0.896798
H20   H     H_    0.364961 0.152069 0.987714 0.230281
H21   H     H_    0.430311 0.084691 0.136274 0.258881
H22   H     H_    0.533530 0.147131 0.015889 0.273294
N5    N     N_2   0.169865 0.862372 0.129959 -0.320951
H23   H     H_    0.197580 0.894654 0.038589 0.211406
C35   C     C_3   0.232676 0.926211 0.241783 -0.801209
H24   H     H_    0.229463 0.029306 0.227617 0.241557
H25   H     H_    0.331544 0.895511 0.247784 0.252063
H26   H     H_    0.186266 0.907246 0.337595 0.242043
N6    N     N_2   0.753349 0.162996 0.888006 -0.330594
H27   H     H_    0.713882 0.127549 0.799908 0.229413
C36   C     C_3   0.847449 0.079724 0.941151 -0.833204
H28   H     H_    0.805052 0.987038 0.960272 0.245625
H29   H     H_    0.887043 0.118255 0.037110 0.255234
H30   H     H_    0.923879 0.066467 0.868250 0.241129
N7    N     N_2   0.879625 0.372318 0.282069 -0.286874
H31   H     H_    0.927902 0.370252 0.194228 0.231615
C37   C     C_3   0.846531 0.246130 0.319986 -0.797662
H32   H     H_    0.797378 0.196837 0.235436 0.235567
H33   H     H_    0.782927 0.247901 0.406529 0.233658
H34   H     H_    0.931971 0.192190 0.346006 0.232663
N8    N     N_2   0.112126 0.613604 0.725337 -0.302752
H35   H     H_    0.186590 0.575676 0.775146 0.256504
C38   C     C_3   0.127571 0.744606 0.693319 -0.822173
H36   H     H_    0.151857 0.800467 0.785383 0.226548
H37   H     H_    0.039108 0.782733 0.651273 0.245847
H38   H     H_    0.203264 0.755335 0.619847 0.233791

loop_
_geom_bond_atom_site_label_1
_geom_bond_atom_site_label_2
_ccdc_geom_bond_type
C27   C29   A    
C35   H24   S    
C19   N5    S    
C15   N1    A    
C16   N2    A    
O1    Zn1   S    
C14   H14   S    
C20   C30   A    
N6    H27   S    
C20   N6    S    
C19   C21   A    
C8    H10   S    
N1    Zn1   S    
C28   H8    S    
C29   H1    S    
C31   N7    S    
O8    Zn1   S    
C3    C18   S    
C33   H17   S    
C2    O2    A    
C25   H5    S    
C32   N8    S    
C27   H7    S    
N4    C34   S    
N8    C38   S    
C17   O7    A    
C18   O8    A    
C5    C32   A    
N6    C36   S    
C6    C31   A    
N3    H15   S    
C35   H25   S    
C1    C12   S    
C2    C11   S    
C10   C12   A    
C37   H33   S    
C21   C23   A    
C7    C12   A    
C9    H11   S    
N3    C33   S    
C30   H2    S    
C10   H12   S    
C34   H20   S    
O2    Zn2   S    
C4    C6    A    
C38   H36   S    
C36   H29   S    
O5    Zn1   S    
C26   H6    S    
C37   H32   S    
C34   H21   S    
C13   N2    A    
C33   H18   S    
C38   H37   S    
C1    O3    A    
N7    H31   S    
O3    Zn2   S    
C3    C31   A    
C9    C11   A    
C4    C32   A    
C2    O4    A    
C4    C17   S    
N7    C37   S    
C20   C22   A    
C13   C15   A    
C35   H26   S    
C14   C16   A    
C19   C29   A    
C17   O5    A    
N5    C35   S    
O6    Zn2   S    
C37   H34   S    
C7    C9    A    
C15   N3    S    
C24   C26   A    
C3    C5    A    
C36   H30   S    
N2    Zn2   S    
C14   N1    A    
C21   H3    S    
C25   C27   A    
C22   H4    S    
C26   C28   A    
C34   H22   S    
C28   C30   A    
N5    H23   S    
C38   H38   S    
C13   H13   S    
C5    C24   S    
C8    C11   A    
C6    C23   S    
C22   C24   A    
C7    H9    S    
C33   H16   S    
O4    Zn1   S    
C18   O6    A    
C36   H28   S    
C23   C25   A    
C8    C10   A    
N4    H19   S    
O7    Zn2   S    
C16   N4    S    
N8    H35   S    
C1    O1    A    
