data_mof_unit_1131.cif
_audit_creation_date              2012-10-26T20:17:39-0400
_audit_creation_method            fapswitch 2.2
_symmetry_space_group_name_H-M    P1
_symmetry_Int_Tables_number       1
_space_group_crystal_system       triclinic
_cell_length_a                    27.785324
_cell_length_b                    8.885643
_cell_length_c                    7.577613
_cell_angle_alpha                 103.450069
_cell_angle_beta                  92.332943
_cell_angle_gamma                 92.327712
_cell_volume                      1815.60464624

loop_
_atom_site_label
_atom_site_type_symbol
_atom_type_description
_atom_site_fract_x
_atom_site_fract_y
_atom_site_fract_z
_atom_type_partial_charge
C1    C     C_R   0.498739 0.201127 0.454222 0.542530
C2    C     C_R   0.870185 0.422647 0.301866 0.022629
C3    C     C_R   0.354918 0.513102 0.512720 -0.012474
C4    C     C_R   0.644194 0.505192 0.475327 0.030400
C5    C     C_R   0.970894 0.405015 0.374628 0.030787
C6    C     C_R   0.026068 0.689588 0.501736 0.028953
C7    C     C_R   0.974479 0.691208 0.497210 -0.019700
C8    C     C_R   0.022716 0.401358 0.395578 -0.027087
C9    C     C_R   0.947906 0.548391 0.428758 -0.024249
C10   C     C_R   0.049609 0.545802 0.457780 -0.027489
C11   C     C_R   0.939865 0.272236 0.299932 -0.148728
C12   C     C_R   0.501248 0.798947 0.545868 0.582720
C13   C     C_R   0.055768 0.826745 0.553471 -0.152195
C14   C     C_R   0.892173 0.283916 0.243666 -0.171183
C15   C     C_R   0.105028 0.825786 0.580850 -0.169876
C16   C     C_R   0.407815 0.502322 0.505029 0.566355
C17   C     C_R   0.591890 0.497995 0.494035 0.602154
C18   C     C_R   0.049570 0.262736 0.345841 0.239613
C19   C     C_R   0.947573 0.827066 0.564480 0.234001
C20   C     C_2   0.496020 0.034533 0.429462 0.143889
C21   C     C_2   0.503127 0.965663 0.571127 0.183960
C22   C     C_R   0.176908 0.420091 0.451940 0.414451
C23   C     C_R   0.101119 0.548393 0.473386 -0.086980
C24   C     C_R   0.821519 0.649054 0.520214 0.395314
C25   C     C_R   0.178690 0.693364 0.516750 0.436742
C26   C     C_R   0.820921 0.436490 0.266351 0.428639
C27   C     C_R   0.284645 0.651103 0.637447 0.271108
C28   C     C_R   0.716336 0.376205 0.358926 0.293521
C29   C     C_R   0.333929 0.616295 0.655778 0.166858
C30   C     C_R   0.667192 0.369595 0.397325 0.187667
C31   C     C_R   0.325380 0.427616 0.365715 0.180354
C32   C     C_R   0.668235 0.650693 0.499283 0.213900
C33   C     C_R   0.276776 0.457763 0.351318 -0.133616
C34   C     C_R   0.896827 0.548269 0.412387 -0.083034
C35   C     C_R   0.716802 0.656455 0.450227 -0.122687
C36   C     C_R   0.255053 0.561277 0.490532 0.155415
C37   C     C_R   0.742664 0.521922 0.393741 0.147272
C38   C     C_3   0.330794 0.165466 0.268470 -0.008527
C39   C     C_3   0.361293 0.129749 0.424733 -0.351024
C40   C     C_3   0.668012 0.923200 0.591526 -0.022622
C41   C     C_3   0.636923 0.053981 0.677684 -0.303680
C42   C     C_3   0.132112 0.028379 0.298756 0.019277
C43   C     C_3   0.161846 0.917460 0.167759 -0.326396
C44   C     C_3   0.857845 0.033196 0.594996 -0.013963
C45   C     C_R   0.126050 0.412098 0.425894 0.000796
C46   C     C_3   0.844028 0.181469 0.724859 -0.349454
C47   C     C_3   0.624466 0.174012 0.193254 -0.020517
C48   C     C_3   0.608287 0.004137 0.163129 -0.300836
C49   C     C_3   0.346572 0.635611 0.959735 0.007030
C50   C     C_3   0.377670 0.716036 0.126479 -0.287145
C51   C     C_3   0.753542 0.147351 0.344234 0.006382
C52   C     C_3   0.759125 0.992380 0.210649 -0.350676
C53   C     C_3   0.287532 0.913241 0.761299 0.033835
C54   C     C_3   0.258080 0.044201 0.861821 -0.341312
C55   C     C_3   0.021467 0.044897 0.137552 -0.034795
C56   C     C_R   0.871920 0.671097 0.509693 -0.002202
C57   C     C_3   0.997192 0.883773 0.112564 -0.372838
C58   C     C_3   0.974087 0.064449 0.742994 -0.010372
C59   C     C_3   0.978087 0.235994 0.745117 -0.362519
C60   C     C_R   0.100689 0.271590 0.349276 0.273993
C61   C     C_R   0.897533 0.810569 0.590345 0.275956
C62   C     C_R   0.128395 0.689573 0.528724 0.024620
Cl1   Cl    Cl    0.438265 0.345158 0.918517 -0.422508
Cl2   Cl    Cl    0.563542 0.645438 0.078263 -0.462988
Cl3   Cl    Cl    0.481453 0.933843 0.200677 -0.549623
Cl4   Cl    Cl    0.517232 0.067144 0.800149 -0.531706
Cu1   Cu    Cu3+1 0.505380 0.517380 0.684380 1.219357
Cu2   Cu    Cu3+1 0.494620 0.482620 0.315620 1.180565
H1    H     H_    0.255069 0.392857 0.234185 0.165616
H2    H     H_    0.354072 0.007343 0.430721 0.088032
H3    H     H_    0.400029 0.147818 0.403002 0.197337
H4    H     H_    0.677657 0.940410 0.456880 0.148314
H5    H     H_    0.700559 0.928870 0.684132 0.150716
H6    H     H_    0.624283 0.034222 0.806648 0.163277
H7    H     H_    0.658181 0.166276 0.705596 0.139207
H8    H     H_    0.605122 0.058910 0.586778 0.199135
H9    H     H_    0.097649 0.965961 0.308342 0.162606
H10   H     H_    0.151402 0.059437 0.434052 0.200548
H11   H     H_    0.200280 0.958735 0.186697 0.178947
H12   H     H_    0.735697 0.765942 0.457727 0.133553
H13   H     H_    0.158633 0.799821 0.193929 0.131211
H14   H     H_    0.148887 0.909385 0.025000 0.159179
H15   H     H_    0.825619 0.980139 0.509990 0.135172
H16   H     H_    0.885476 0.063763 0.505422 0.159936
H17   H     H_    0.839835 0.275424 0.652189 0.100289
H18   H     H_    0.872510 0.220998 0.834835 0.179447
H19   H     H_    0.809578 0.159846 0.786272 0.200168
H20   H     H_    0.651769 0.185028 0.093069 0.172140
H21   H     H_    0.592712 0.238900 0.167518 0.201044
H22   H     H_    0.586150 0.986237 0.275338 0.206868
H23   H     H_    0.870996 0.180087 0.175015 0.138671
H24   H     H_    0.586108 0.965270 0.034642 0.216246
H25   H     H_    0.639958 0.931656 0.157197 0.154716
H26   H     H_    0.349543 0.508098 0.937869 0.188115
H27   H     H_    0.308700 0.663758 0.988976 0.160024
H28   H     H_    0.379145 0.842860 0.138824 0.179358
H29   H     H_    0.362238 0.692287 0.250329 0.085310
H30   H     H_    0.414653 0.674014 0.114387 0.240875
H31   H     H_    0.731059 0.131033 0.456618 0.128972
H32   H     H_    0.789706 0.194686 0.401618 0.124597
H33   H     H_    0.784708 0.007719 0.106517 0.196177
H34   H     H_    0.125137 0.934949 0.633097 0.133461
H35   H     H_    0.772920 0.905317 0.279969 0.081073
H36   H     H_    0.723839 0.947059 0.141084 0.166620
H37   H     H_    0.290898 0.926909 0.619661 0.154562
H38   H     H_    0.323966 0.928255 0.830170 0.177411
H39   H     H_    0.221574 0.040606 0.795901 0.206920
H40   H     H_    0.254298 0.034317 0.003274 0.130511
H41   H     H_    0.276701 0.157632 0.863690 0.121582
H42   H     H_    0.055564 0.032197 0.066086 0.173719
H43   H     H_    0.998553 0.117198 0.074202 0.109434
H44   H     H_    0.961990 0.890372 0.177329 0.179040
H45   H     H_    0.949343 0.156377 0.290142 0.199657
H46   H     H_    0.990931 0.828894 0.965644 0.098317
H47   H     H_    0.020742 0.809686 0.173900 0.164869
H48   H     H_    0.008883 0.034295 0.796135 0.103721
H49   H     H_    0.945982 0.046883 0.836935 0.174791
H50   H     H_    0.946230 0.269212 0.672898 0.168095
H51   H     H_    0.980079 0.305827 0.887530 0.095820
H52   H     H_    0.011441 0.262454 0.680753 0.175833
H53   H     H_    0.043775 0.939295 0.559231 0.211562
H54   H     H_    0.337251 0.076327 0.144020 0.160779
H55   H     H_    0.291778 0.153226 0.293935 0.144600
H56   H     H_    0.352330 0.205161 0.556614 0.151861
N1    N     N_R   0.202701 0.559697 0.489001 -0.367408
N2    N     N_R   0.795442 0.536528 0.390397 -0.392095
N3    N     N_2   0.486510 0.456430 0.038510 0.079296
N4    N     N_2   0.513490 0.543570 0.961490 0.087438
O1    O     O_R   0.503500 0.286120 0.619780 -0.462683
O2    O     O_2   0.799718 0.735997 0.661684 -0.476759
O3    O     O_2   0.800069 0.355807 0.107383 -0.465216
O4    O     O_2   0.202672 0.828760 0.521524 -0.536106
O5    O     O_3   0.344255 0.311869 0.235901 -0.524372
O6    O     O_3   0.641753 0.780388 0.568531 -0.542255
O7    O     O_3   0.125013 0.160572 0.230292 -0.560705
O8    O     O_3   0.874167 0.930513 0.698141 -0.535861
O9    O     O_3   0.642747 0.227164 0.374532 -0.607225
O10   O     O_3   0.362387 0.688406 0.808475 -0.544894
O11   O     O_3   0.733367 0.246879 0.245760 -0.507850
O12   O     O_R   0.496500 0.713880 0.380220 -0.480297
O13   O     O_3   0.264971 0.767688 0.765237 -0.537982
O14   O     O_3   0.027744 0.116556 0.323928 -0.571132
O15   O     O_3   0.965690 0.974588 0.563997 -0.565055
O16   O     O_R   0.494410 0.256780 0.308360 -0.444742
O17   O     O_R   0.505590 0.743220 0.691640 -0.429761
O18   O     O_R   0.434810 0.514700 0.655690 -0.454716
O19   O     O_R   0.565190 0.485300 0.344310 -0.495175
O20   O     O_R   0.425720 0.485350 0.344280 -0.482173
O21   O     O_R   0.574280 0.514650 0.655720 -0.471700
O22   O     O_2   0.200401 0.289180 0.443863 -0.516649

loop_
_geom_bond_atom_site_label_1
_geom_bond_atom_site_label_2
_ccdc_geom_bond_type
C44   O8    S    
C24   N2    A    
C22   O22   S    
C45   C60   A    
C34   C56   A    
C59   H52   S    
C23   C45   A    
C21   Cl4   S    
C27   C29   A    
C36   N1    S    
C31   O5    S    
C44   H15   S    
C52   H35   S    
C53   C54   S    
C29   O10   S    
C54   H39   S    
C35   C37   A    
C37   N2    S    
C1    O1    A    
C38   C39   S    
C11   C14   A    
C57   H44   S    
Cu1   O21   S    
C43   H11   S    
C35   H12   S    
C33   C36   A    
C40   H5    S    
C17   O19   A    
C16   O18   A    
C26   N2    A    
C38   O5    S    
C3    C29   A    
C25   N1    A    
C41   H6    S    
C53   H38   S    
C39   H2    S    
C23   C62   A    
Cl2   N4    S    
Cu1   O17   S    
C59   H51   S    
C31   C33   A    
C49   H26   S    
C38   H55   S    
Cu2   O20   S    
C33   H1    S    
C46   H17   S    
C2    C34   A    
C30   O9    S    
C48   H22   S    
C49   O10   S    
C58   H48   S    
C47   H21   S    
Cu1   O1    S    
C28   O11   S    
C2    C14   A    
C58   O15   S    
C44   C46   S    
C51   H31   S    
C52   H33   S    
C50   H30   S    
C48   H25   S    
Cu1   Cu2   S    
C32   C35   A    
C20   Cl3   S    
C18   O14   S    
C57   H47   S    
C22   N1    A    
C44   H16   S    
C58   C59   S    
C40   O6    S    
C12   C21   S    
C58   H49   S    
C8    C18   A    
C39   H56   S    
C51   C52   S    
C54   H41   S    
C42   O7    S    
C12   O17   A    
C5    C9    A    
C24   O2    S    
C41   H7    S    
C13   H53   S    
C47   C48   S    
C60   O7    S    
C47   O9    S    
Cu1   O18   S    
C12   O12   A    
C2    C26   A    
C4    C32   A    
C49   H27   S    
C3    C31   A    
Cu2   N3    S    
C38   H54   S    
Cu2   O19   S    
C4    C17   S    
C18   C60   A    
C40   C41   S    
C42   H10   S    
C59   H50   S    
C7    C19   A    
C55   C57   S    
C55   H42   S    
C9    C34   A    
C43   H13   S    
Cu2   O12   S    
C42   C43   S    
N3    N4    D    
C46   H19   S    
C51   H32   S    
C7    C9    A    
C52   H36   S    
C50   H29   S    
C19   O15   S    
C40   H4    S    
C55   H43   S    
C17   O21   A    
C1    C20   S    
C6    C10   A    
C5    C8    A    
C5    C11   A    
C6    C7    A    
C10   C23   A    
C24   C56   A    
C54   H40   S    
C16   O20   A    
C27   C36   A    
C47   H20   S    
C13   C15   A    
C1    O16   A    
Cu1   N4    S    
C6    C13   A    
C32   O6    S    
C50   H28   S    
C57   H46   S    
C28   C37   A    
C19   C61   A    
C28   C30   A    
C27   O13   S    
C15   C62   A    
Cu2   O16   S    
C53   O13   S    
C25   C62   A    
C15   H34   S    
C11   H45   S    
C4    C30   A    
C14   H23   S    
C3    C16   S    
C53   H37   S    
C22   C45   A    
C20   C21   D    
C42   H9    S    
C8    C10   A    
C49   C50   S    
C48   H24   S    
C55   O14   S    
C43   H14   S    
C39   H3    S    
C56   C61   A    
C46   H18   S    
C25   O4    S    
Cl1   N3    S    
C26   O3    S    
C61   O8    S    
C41   H8    S    
C51   O11   S    
