data_mof_unit_4792.cif
_audit_creation_date              2012-12-10T19:49:59-0500
_audit_creation_method            fapswitch 2.2
_symmetry_space_group_name_H-M    P1
_symmetry_Int_Tables_number       1
_space_group_crystal_system       triclinic
_cell_length_a                    14.150499
_cell_length_b                    14.972714
_cell_length_c                    15.340131
_cell_angle_alpha                 89.934453
_cell_angle_beta                  67.23702
_cell_angle_gamma                 90.571142
_cell_volume                      2996.79953513

loop_
_atom_site_label
_atom_site_type_symbol
_atom_type_description
_atom_site_fract_x
_atom_site_fract_y
_atom_site_fract_z
_atom_type_partial_charge
C1    C     C_R   0.500497 0.671791 0.499816 0.921289
C2    C     C_R   0.411702 0.184938 0.562355 -0.093211
C3    C     C_R   0.502716 0.767239 0.496324 -0.125902
C4    C     C_R   0.498238 0.231777 0.499002 -0.169888
C5    C     C_R   0.505329 0.814350 0.574289 0.182373
C6    C     C_R   0.583901 0.186953 0.434198 0.211557
C7    C     C_R   0.503594 0.906636 0.572713 -0.220791
C8    C     C_R   0.582292 0.093987 0.435706 -0.192629
C9    C     C_R   0.499102 0.951166 0.494542 0.025995
C10   C     C_R   0.496498 0.047554 0.497199 0.011331
C11   C     C_R   0.862562 0.537212 0.578248 0.131228
C12   C     C_R   0.499370 0.327885 0.500249 0.873117
C13   C     C_R   0.112046 0.418873 0.482664 0.135539
C14   C     C_R   0.764274 0.538073 0.573545 -0.034288
C15   C     C_R   0.212279 0.422554 0.481607 -0.059361
C16   C     C_R   0.435460 0.499513 0.677268 0.916722
C17   C     C_R   0.564370 0.499300 0.322589 0.894697
C18   C     C_R   0.825742 0.461097 0.428187 -0.006655
C19   C     C_R   0.196837 0.576381 0.517632 0.004335
C20   C     C_R   0.925198 0.460971 0.427387 -0.279546
C21   C     C_R   0.097719 0.576773 0.517434 -0.330002
C22   C     C_R   0.945389 0.498669 0.502517 0.070675
C23   C     C_R   0.367879 0.451164 0.114871 -0.292924
C24   C     C_R   0.052798 0.497624 0.500937 0.087392
C25   C     C_R   0.392255 0.490425 0.780935 -0.142988
C26   C     C_R   0.604359 0.486716 0.219290 -0.135990
C27   C     C_R   0.251262 0.488802 0.936064 0.148404
C28   C     C_R   0.733160 0.440542 0.067333 0.147091
C29   C     C_R   0.287625 0.503080 0.837333 0.177438
C30   C     C_R   0.706837 0.464987 0.163360 0.146722
C31   C     C_R   0.458911 0.464534 0.822726 -0.310328
C32   C     C_R   0.532158 0.488142 0.178616 -0.273618
C33   C     C_R   0.425826 0.450134 0.919722 0.030062
C34   C     C_R   0.596257 0.395859 0.905658 -0.275470
C35   C     C_R   0.552095 0.452345 0.089844 0.027928
C36   C     C_R   0.320924 0.463801 0.978687 0.028623
C37   C     C_R   0.653802 0.426996 0.032747 0.005253
C38   C     C_R   0.498635 0.430525 0.959242 0.048356
C39   C     C_R   0.472628 0.445432 0.055639 0.065993
C40   C     C_3   0.145225 0.363808 0.164514 -0.833056
C41   C     C_3   0.820405 0.354989 0.794164 -0.795948
C42   C     C_3   0.798029 0.617553 0.732711 -0.841909
C43   C     C_3   0.000699 0.292379 0.550366 -0.774480
C44   C     C_3   0.830355 0.553386 0.200855 -0.744898
C45   C     C_R   0.291960 0.455571 0.077832 0.234370
C46   C     C_3   0.220971 0.624881 0.774554 -0.733556
C47   C     C_3   0.118119 0.593256 0.029987 -0.763973
C48   C     C_3   0.873810 0.512143 0.939951 -0.760300
C49   C     C_1   0.489742 0.952171 0.336174 0.171226
C50   C     C_1   0.321056 0.041951 0.622124 0.167114
C51   C     C_1   0.497577 0.761127 0.336169 0.172463
C52   C     C_1   0.325605 0.231961 0.630936 0.192725
C53   C     C_3   0.601845 0.760636 0.662670 -0.782806
C54   C     C_3   0.760839 0.192161 0.307964 -0.802023
C55   C     C_R   0.672282 0.389982 0.942641 0.230030
C56   C     C_R   0.496655 0.904555 0.415907 -0.014842
C57   C     C_R   0.410454 0.091915 0.560428 -0.016825
C58   C     C_R   0.498727 0.811375 0.416706 -0.106921
H1    H     H_    0.699893 0.567393 0.629480 0.152750
H2    H     H_    0.611825 0.366865 0.837021 0.169132
H3    H     H_    0.504821 0.943898 0.632867 0.151265
H4    H     H_    0.646293 0.056334 0.388035 0.156454
H5    H     H_    0.173364 0.490852 0.201767 0.226088
H6    H     H_    0.061495 0.367562 0.206398 0.232928
H7    H     H_    0.181592 0.327934 0.206753 0.246783
H8    H     H_    0.157364 0.325796 0.098913 0.249547
H9    H     H_    0.795325 0.303156 0.931073 0.243674
H10   H     H_    0.821980 0.293320 0.753650 0.245241
H11   H     H_    0.900161 0.373747 0.783795 0.248761
H12   H     H_    0.257528 0.362555 0.467359 0.141315
H13   H     H_    0.788039 0.409909 0.766034 0.243277
H14   H     H_    0.925137 0.533201 0.681523 0.237503
H15   H     H_    0.828024 0.644652 0.784440 0.250858
H16   H     H_    0.733543 0.570821 0.770374 0.238183
H17   H     H_    0.771142 0.674707 0.702667 0.254186
H18   H     H_    0.127347 0.292819 0.424108 0.219715
H19   H     H_    0.971554 0.229655 0.530672 0.242529
H20   H     H_    0.934214 0.335867 0.587188 0.252107
H21   H     H_    0.039368 0.275866 0.599022 0.242295
H22   H     H_    0.832071 0.414596 0.186807 0.199592
H23   H     H_    0.811027 0.430025 0.371058 0.155271
H24   H     H_    0.879580 0.571661 0.127083 0.233715
H25   H     H_    0.879328 0.550510 0.242429 0.226403
H26   H     H_    0.771752 0.605680 0.231691 0.252461
H27   H     H_    0.145210 0.504846 0.826766 0.234601
H28   H     H_    0.191657 0.663729 0.841085 0.232028
H29   H     H_    0.171805 0.638022 0.734523 0.229128
H30   H     H_    0.300104 0.647997 0.730902 0.239119
H31   H     H_    0.099992 0.452086 0.026128 0.246008
H32   H     H_    0.084761 0.589325 0.108355 0.243009
H33   H     H_    0.059672 0.621053 0.006176 0.232298
H34   H     H_    0.229171 0.637696 0.531755 0.146381
H35   H     H_    0.185520 0.639373 0.007332 0.242280
H36   H     H_    0.889972 0.418867 0.033168 0.222180
H37   H     H_    0.953984 0.500933 0.890250 0.229567
H38   H     H_    0.871031 0.574661 0.979562 0.231815
H39   H     H_    0.825939 0.520237 0.897882 0.263102
H40   H     H_    0.448740 0.793606 0.718170 0.224759
H41   H     H_    0.631359 0.827450 0.672147 0.235089
H42   H     H_    0.657659 0.729339 0.597842 0.262139
H43   H     H_    0.594051 0.717838 0.724280 0.234461
H44   H     H_    0.647558 0.288982 0.334452 0.220749
H45   H     H_    0.986326 0.431534 0.368044 0.167321
H46   H     H_    0.745429 0.148430 0.256394 0.238752
H47   H     H_    0.791973 0.152651 0.351956 0.250901
H48   H     H_    0.819599 0.242833 0.268118 0.230301
H49   H     H_    0.056238 0.638966 0.530136 0.178963
H50   H     H_    0.458247 0.516605 0.218604 0.185612
H51   H     H_    0.539348 0.459757 0.778491 0.176123
H52   H     H_    0.342557 0.447503 0.190931 0.150201
N1    N     N_R   0.747530 0.500020 0.500000 -0.102810
N2    N     N_2   0.838340 0.436823 0.004205 -0.311294
N3    N     N_1   0.484246 0.990231 0.272628 -0.201585
N4    N     N_1   0.249854 0.002057 0.671256 -0.207141
N5    N     N_1   0.496685 0.721012 0.272038 -0.209690
N6    N     N_1   0.257114 0.269495 0.685498 -0.206132
N7    N     N_2   0.502887 0.768744 0.656582 -0.318923
N8    N     N_2   0.668037 0.236833 0.367321 -0.284154
N9    N     N_R   0.252470 0.499980 0.500000 -0.092524
N10   N     N_2   0.187661 0.453158 0.141798 -0.303145
N11   N     N_2   0.761003 0.338050 0.893504 -0.284939
N12   N     N_2   0.879075 0.571502 0.658486 -0.314587
N13   N     N_2   0.072028 0.335927 0.466054 -0.316525
N14   N     N_2   0.781915 0.467245 0.203979 -0.304157
N15   N     N_2   0.218670 0.530249 0.794994 -0.274384
N16   N     N_2   0.145727 0.504972 0.990446 -0.306821
O1    O     O_R   0.420530 0.630930 0.499990 -0.630816
O2    O     O_R   0.579470 0.369070 0.500010 -0.597622
O3    O     O_R   0.579480 0.630940 0.499990 -0.607928
O4    O     O_R   0.420520 0.369060 0.500010 -0.623584
O5    O     O_R   0.375120 0.499990 0.632240 -0.572092
O6    O     O_R   0.624880 0.500010 0.367760 -0.591105
O7    O     O_R   0.534080 0.500000 0.632240 -0.632164
O8    O     O_R   0.465920 0.500000 0.367760 -0.616960
Zn1   Zn    Zn3+2 0.393860 0.499990 0.500000 0.957021
Zn2   Zn    Zn3+2 0.606140 0.500010 0.500000 0.950220

loop_
_geom_bond_atom_site_label_1
_geom_bond_atom_site_label_2
_ccdc_geom_bond_type
C25   C31   A    
C49   N3    T    
C55   N11   S    
C26   C32   A    
C23   C45   A    
C48   H37   S    
C29   N15   S    
C27   C29   A    
C46   N15   S    
H27   N15   S    
O4    Zn1   S    
C44   H25   S    
C18   H23   S    
C2    C57   A    
C20   H45   S    
C28   N2    S    
C43   H20   S    
C48   H39   S    
C42   H17   S    
C12   O4    A    
H40   N7    S    
C17   C26   S    
C54   H46   S    
C19   C21   A    
O1    Zn1   S    
C44   H24   S    
O2    Zn2   S    
C38   C39   A    
C13   N13   S    
C27   N16   S    
C53   N7    S    
N1    Zn2   S    
C43   H21   S    
C33   C36   A    
C41   N11   S    
C15   H12   S    
C16   O5    A    
C7    H3    S    
C19   H34   S    
C53   H43   S    
O7    Zn2   S    
C31   C33   A    
C4    C12   S    
C9    C10   S    
H44   N8    S    
C41   H13   S    
C1    O3    A    
C19   N9    A    
C34   C55   A    
C40   H8    S    
C17   O6    A    
C34   H2    S    
C50   C57   S    
C16   O7    A    
H9    N11   S    
C15   N9    A    
C41   H10   S    
C46   H30   S    
H31   N16   S    
C52   N6    T    
C53   H42   S    
C25   C29   A    
C14   N1    A    
C42   H16   S    
C54   H48   S    
C53   H41   S    
C32   C35   A    
C10   C57   A    
C18   N1    A    
C4    C6    A    
C5    C7    A    
C6    C8    A    
C3    C5    A    
C44   N14   S    
N9    Zn1   S    
C13   C24   A    
C5    N7    S    
C1    C3    S    
C2    C4    A    
C14   H1    S    
O3    Zn2   S    
O6    Zn2   S    
C31   H51   S    
C36   C45   A    
C9    C56   A    
C21   H49   S    
C2    C52   S    
C45   N10   S    
C48   N2    S    
C30   N14   S    
C26   C30   A    
C40   H7    S    
C54   N8    S    
C47   H32   S    
C22   C24   S    
C11   N12   S    
C51   C58   S    
C40   N10   S    
C43   N13   S    
C42   N12   S    
C47   N16   S    
C41   H11   S    
C46   H29   S    
H22   N14   S    
C35   C37   A    
C16   C25   S    
C7    C9    A    
C23   H52   S    
C42   H15   S    
C48   H38   S    
C54   H47   S    
H14   N12   S    
C34   C38   A    
H18   N13   S    
C47   H33   S    
C1    O1    A    
C20   C22   A    
C44   H26   S    
O8    Zn1   S    
C12   O2    A    
C27   C36   A    
C43   H19   S    
C49   C56   S    
C11   C22   A    
O5    Zn1   S    
C33   C38   A    
C40   H6    S    
C13   C15   A    
H5    N10   S    
C28   C37   A    
C23   C39   A    
C35   C39   A    
C28   C30   A    
C11   C14   A    
C56   C58   A    
C18   C20   A    
C51   N5    T    
C47   H35   S    
C37   C55   A    
C3    C58   A    
C8    C10   A    
C32   H50   S    
C21   C24   A    
C17   O8    A    
C50   N4    T    
C6    N8    S    
H36   N2    S    
C8    H4    S    
C46   H28   S    
