data_mof_unit_4099.cif
_audit_creation_date              2012-12-11T16:58:19-0500
_audit_creation_method            fapswitch 2.2
_symmetry_space_group_name_H-M    P1
_symmetry_Int_Tables_number       1
_space_group_crystal_system       triclinic
_cell_length_a                    16.914422
_cell_length_b                    7.263298
_cell_length_c                    16.830728
_cell_angle_alpha                 90.011988
_cell_angle_beta                  100.391818
_cell_angle_gamma                 89.984849
_cell_volume                      2033.81387619

loop_
_atom_site_label
_atom_site_type_symbol
_atom_type_description
_atom_site_fract_x
_atom_site_fract_y
_atom_site_fract_z
_atom_type_partial_charge
O1    O     O_R   0.413450 0.494370 0.415710 -0.535408
O2    O     O_R   0.586550 0.994370 0.584290 -0.535398
O3    O     O_R   0.578420 0.819350 0.429360 -0.539695
O4    O     O_R   0.421580 0.319350 0.570640 -0.539835
C1    C     C_R   0.605167 0.656823 0.414379 0.696348
C2    C     C_R   0.394818 0.156892 0.585606 0.696391
O5    O     O_R   0.413570 0.823780 0.406240 -0.540998
O6    O     O_R   0.586430 0.323780 0.593760 -0.540980
O7    O     O_R   0.420530 0.998740 0.561000 -0.536101
O8    O     O_R   0.579470 0.498740 0.439000 -0.536053
C3    C     C_R   0.386067 0.655392 0.383717 0.685636
C4    C     C_R   0.613933 0.155390 0.616284 0.685779
O9    O     O_3   0.502480 0.662320 0.550800 -0.377340
O10   O     O_3   0.497520 0.162320 0.449200 -0.377277
V1    V     V_3+5 0.499540 0.935370 0.490580 1.387842
V2    V     V_3+5 0.500460 0.435370 0.509420 1.387760
C5    C     C_R   0.695902 0.989129 0.734972 0.114732
C6    C     C_R   0.304100 0.489089 0.265031 0.114725
C7    C     C_R   0.680993 0.146984 0.686677 -0.109623
C8    C     C_R   0.319008 0.646982 0.313325 -0.109540
C9    C     C_R   0.731241 0.300170 0.709291 -0.187582
C10   C     C_R   0.268760 0.800197 0.290708 -0.187666
H1    H     H_    0.721974 0.426109 0.674736 0.142795
H2    H     H_    0.278027 0.926168 0.325260 0.142790
C11   C     C_R   0.797497 0.288460 0.773380 -0.189378
C12   C     C_R   0.202506 0.788483 0.226618 -0.189260
H3    H     H_    0.836524 0.406753 0.786422 0.139498
H4    H     H_    0.163481 0.906806 0.213571 0.139561
C13   C     C_R   0.815806 0.122849 0.816809 -0.107944
C14   C     C_R   0.184195 0.622842 0.183192 -0.107989
C15   C     C_R   0.761239 0.977473 0.798232 0.114869
C16   C     C_R   0.238762 0.477427 0.201772 0.114826
C17   C     C_3   0.775196 0.779870 0.781257 -0.428992
C18   C     C_3   0.224808 0.279858 0.218753 -0.428987
C19   C     C_3   0.703778 0.792620 0.712148 -0.408533
C20   C     C_3   0.296227 0.292615 0.287860 -0.408564
H5    H     H_    0.763941 0.688900 0.831138 0.173692
H6    H     H_    0.236063 0.188817 0.168875 0.173715
H7    H     H_    0.833308 0.756605 0.760704 0.171169
H8    H     H_    0.166697 0.256678 0.239310 0.171260
H9    H     H_    0.651484 0.708883 0.722256 0.177033
H10   H     H_    0.348522 0.208813 0.277754 0.177032
H11   H     H_    0.720588 0.776656 0.651602 0.167797
H12   H     H_    0.279420 0.276737 0.348408 0.167833
C21   C     C_R   0.330505 0.161158 0.635145 -0.061521
C22   C     C_R   0.669520 0.660839 0.364892 -0.061300
C23   C     C_R   0.165365 0.110316 0.860297 -0.087839
C24   C     C_R   0.834587 0.610596 0.139623 -0.087696
C25   C     C_R   0.273149 0.938082 0.815000 -0.200044
C26   C     C_R   0.726159 0.439549 0.184226 -0.199222
C27   C     C_R   0.219717 0.961743 0.868190 -0.231315
C28   C     C_R   0.779711 0.463085 0.131152 -0.231226
C29   C     C_R   0.166130 0.239760 0.797614 0.214407
C30   C     C_R   0.834287 0.739041 0.202799 0.214705
C31   C     C_R   0.220228 0.214356 0.742384 0.085479
C32   C     C_R   0.780050 0.713786 0.257895 0.085230
C33   C     C_R   0.273744 0.061649 0.751551 0.124256
C34   C     C_R   0.725977 0.562152 0.248136 0.123909
C35   C     C_R   0.327959 0.035283 0.697739 -0.219630
C36   C     C_R   0.671653 0.535874 0.301835 -0.219345
C37   C     C_R   0.275921 0.309068 0.625031 -0.162423
C38   C     C_R   0.724590 0.807727 0.375543 -0.162417
C39   C     C_R   0.221441 0.334945 0.677216 -0.191240
C40   C     C_R   0.779217 0.833422 0.323497 -0.190626
H13   H     H_    0.370186 0.921612 0.706558 0.118184
H14   H     H_    0.629018 0.423034 0.292589 0.117896
H15   H     H_    0.276198 0.407763 0.576807 0.121006
H16   H     H_    0.724595 0.905722 0.424112 0.120614
H17   H     H_    0.313643 0.821201 0.823123 0.129150
H18   H     H_    0.685232 0.323494 0.175648 0.129115
H19   H     H_    0.180999 0.451018 0.665890 0.126630
H20   H     H_    0.820083 0.948635 0.335271 0.126427
H21   H     H_    0.220381 0.861085 0.915812 0.144306
H22   H     H_    0.778740 0.363181 0.083159 0.143838
O11   O     O_R   0.920630 0.775410 0.061150 -0.510900
O12   O     O_R   0.079370 0.275410 0.938850 -0.510715
O13   O     O_R   0.086500 0.441450 0.093690 -0.539395
O14   O     O_R   0.913500 0.941450 0.906310 -0.539405
C41   C     C_R   0.113828 0.610234 0.116325 0.676184
C42   C     C_R   0.886173 0.110236 0.883673 0.675905
O15   O     O_R   0.921670 0.445960 0.070740 -0.546881
O16   O     O_R   0.078330 0.945960 0.929260 -0.546971
O17   O     O_R   0.913380 0.271130 0.915780 -0.538053
O18   O     O_R   0.086620 0.771130 0.084220 -0.537876
C43   C     C_R   0.896188 0.613145 0.086448 0.718662
C44   C     C_R   0.103813 0.113086 0.913543 0.718303
O19   O     O_3   0.997500 0.603030 0.949220 -0.371913
O20   O     O_3   0.002500 0.103030 0.050780 -0.371833
V3    V     V_3+5 0.000470 0.329940 0.009420 1.419672
V4    V     V_3+5 0.999530 0.829940 0.990580 1.419673
N1    N     N_2   0.111804 0.391411 0.790207 -0.507952
H23   H     H_    0.136209 0.516587 0.778903 0.251631
C45   C     C_3   0.034075 0.356330 0.740709 -0.523938
H24   H     H_    0.040406 0.332980 0.676922 0.179545
H25   H     H_    0.994227 0.476837 0.743314 0.189648
H26   H     H_    0.005464 0.233986 0.763239 0.184601
N2    N     N_2   0.889293 0.889405 0.210862 -0.508005
H27   H     H_    0.865441 0.014915 0.222721 0.251665
C46   C     C_3   0.966838 0.851761 0.260253 -0.525098
H28   H     H_    0.960356 0.827301 0.323914 0.179948
H29   H     H_    0.007226 0.971479 0.258226 0.189636
H30   H     H_    0.994923 0.729253 0.237176 0.184612

loop_
_geom_bond_atom_site_label_1
_geom_bond_atom_site_label_2
_ccdc_geom_bond_type
C45   H24   S    
C2    C21   S    
C29   C31   A    
C20   H10   S    
O1    C3    A    
O2    C4    A    
C2    O7    A    
N2    H27   S    
O14   V4    S    
C24   C30   A    
O13   V3    S    
C17   H7    S    
C22   C38   A    
C18   H8    S    
C7    C9    A    
C28   H22   S    
C41   O18   A    
O14   C42   A    
C33   C35   A    
C34   C36   A    
C25   C33   A    
C37   C39   A    
C38   C40   A    
O11   V4    S    
C5    C7    A    
O11   C43   A    
C25   C27   A    
C31   C39   A    
C29   N1    S    
C26   C28   A    
C32   C40   A    
C30   N2    S    
C19   H11   S    
C18   C20   S    
O12   V3    S    
C23   C29   A    
O15   V3    S    
O5    V1    S    
C36   H14   S    
C45   H25   S    
C25   H17   S    
O18   V4    S    
C42   O17   A    
N2    C46   S    
O13   C41   A    
C11   C13   A    
O17   V3    S    
C30   C32   A    
C3    C8    S    
C26   C34   A    
C23   C44   S    
O4    C2    A    
N1    H23   S    
C23   C27   A    
O16   C44   A    
C17   H5    S    
C16   C18   S    
O4    V2    S    
O5    C3    A    
N1    C45   S    
C37   H15   S    
C46   H28   S    
O6    C4    A    
C15   C17   S    
O1    V2    S    
O2    V1    S    
C14   C41   S    
C46   H29   S    
C39   H19   S    
C12   C14   A    
C45   H26   S    
C31   C33   A    
C5    C15   A    
C10   H2    S    
C20   H12   S    
C6    C16   A    
O12   C44   A    
O3    V1    S    
C9    C11   A    
C21   C35   A    
C22   C36   A    
C18   H6    S    
C24   C43   S    
C27   H21   S    
C8    C10   A    
O3    C1    A    
O9    V2    S    
C11   H3    S    
C1    C22   S    
C12   H4    S    
O16   V4    S    
C38   H16   S    
C9    H1    S    
C26   H18   S    
C1    O8    A    
C13   C15   A    
O8    V2    S    
C35   H13   S    
C14   C16   A    
C13   C42   S    
C4    C7    S    
C21   C37   A    
C17   C19   S    
C32   C34   A    
C6    C8    A    
C40   H20   S    
O7    V1    S    
C19   H9    S    
C24   C28   A    
C46   H30   S    
O20   V3    S    
O6    V2    S    
C10   C12   A    
O19   V4    S    
O10   V1    S    
C5    C19   S    
C6    C20   S    
O15   C43   A    
