data_mof_unit_3431.cif
_audit_creation_date              2013-03-05T16:11:43-0500
_audit_creation_method            fapswitch 2.2
_symmetry_space_group_name_H-M    P1
_symmetry_Int_Tables_number       1
_space_group_crystal_system       triclinic
_cell_length_a                    10.724499
_cell_length_b                    9.953573
_cell_length_c                    10.527103
_cell_angle_alpha                 88.479559
_cell_angle_beta                  92.910917
_cell_angle_gamma                 88.084186
_cell_volume                      1121.21152402

loop_
_atom_site_label
_atom_site_type_symbol
_atom_site_description
_atom_site_fract_x
_atom_site_fract_y
_atom_site_fract_z
_atom_type_partial_charge
O1    O     O_R   0.316770 0.614620 0.499990 -0.578972
O2    O     O_R   0.683230 0.385380 0.500010 -0.575606
O3    O     O_R   0.683230 0.614620 0.500010 -0.559253
O4    O     O_R   0.316770 0.385380 0.499990 -0.576647
C1    C     C_R   0.871816 0.497224 0.499684 -0.359324
C2    C     C_R   0.127428 0.506404 0.510034 -0.353628
C3    C     C_R   0.260228 0.502152 0.502808 1.039864
C4    C     C_R   0.739401 0.498447 0.499632 0.973853
O5    O     O_R   0.499970 0.614650 0.313950 -0.592163
O6    O     O_R   0.500030 0.385350 0.686050 -0.595261
O7    O     O_R   0.500030 0.614650 0.686050 -0.591594
O8    O     O_R   0.499970 0.385350 0.313950 -0.568576
C5    C     C_R   0.501284 0.501332 0.257848 0.908428
C6    C     C_R   0.499398 0.498489 0.742244 0.931444
Zn1   Zn    Zn3+2 0.500000 0.653120 0.500000 1.081970
Zn2   Zn    Zn3+2 0.500000 0.346880 0.500000 1.089968
N1    N     N_R   0.500000 0.857200 0.500000 -0.218786
N2    N     N_R   0.500000 0.142800 0.500000 -0.222065
C7    C     C_3   0.524621 0.625969 0.037048 -0.154840
C8    C     C_3   0.476399 0.372888 0.963167 -0.107760
C9    C     C_3   0.613099 0.535861 0.960789 -0.326402
C10   C     C_3   0.387883 0.463264 0.039536 -0.228272
C11   C     C_3   0.412990 0.583874 0.952139 0.380536
C12   C     C_3   0.588178 0.414895 0.048065 0.334449
H1    H     H_    0.546784 0.728114 0.067930 0.249688
H2    H     H_    0.455222 0.269995 0.932799 0.248179
H3    H     H_    0.704847 0.565403 0.927342 0.194867
H4    H     H_    0.295742 0.436810 0.074796 0.212191
C13   C     C_3   0.499424 0.495893 0.877083 -0.157716
C14   C     C_3   0.501752 0.503093 0.123148 -0.182732
C15   C     C_R   0.566373 0.065834 0.592247 0.216610
C16   C     C_R   0.442774 0.934110 0.401397 0.170504
C17   C     C_R   0.436039 0.077332 0.405988 0.236225
C18   C     C_R   0.562048 0.922899 0.595120 0.249833
C19   C     C_R   0.071526 0.403034 0.577814 0.389714
C20   C     C_R   0.928382 0.598326 0.430368 0.368604
C21   C     C_R   0.941916 0.406210 0.580486 0.347815
C22   C     C_R   0.055565 0.611164 0.447232 0.354306
N3    N     N_R   0.649454 0.127050 0.681522 0.267353
O9    O     O_R   0.768046 0.097682 0.676278 -0.313627
O10   O     O_R   0.607932 0.161451 0.790141 -0.355812
N4    N     N_R   0.399215 0.872438 0.287109 0.250394
O11   O     O_R   0.441846 0.909776 0.178788 -0.305554
O12   O     O_R   0.309242 0.788828 0.287952 -0.298727
N5    N     N_R   0.357645 0.152935 0.314054 0.259980
O13   O     O_R   0.241500 0.178347 0.337347 -0.413513
O14   O     O_R   0.393486 0.172472 0.199107 -0.293883
N6    N     N_R   0.627576 0.847721 0.696696 0.260062
O15   O     O_R   0.591640 0.859262 0.812180 -0.322591
O16   O     O_R   0.737397 0.794235 0.679205 -0.362079
N7    N     N_R   0.315595 0.674822 0.894503 0.228421
O17   O     O_R   0.318008 0.803125 0.914267 -0.286697
O18   O     O_R   0.225489 0.627724 0.823265 -0.422742
N8    N     N_R   0.684963 0.321904 0.104275 0.219474
O19   O     O_R   0.802211 0.343782 0.089270 -0.433527
O20   O     O_R   0.654543 0.214226 0.166322 -0.283955
O21   O     O_3   0.145223 0.312790 0.654584 -0.585714
C23   C     C_3   0.119462 0.178554 0.624473 -0.066362
H5    H     H_    0.083560 0.166501 0.524309 0.159513
H6    H     H_    0.052271 0.137459 0.690908 0.221239
H7    H     H_    0.207457 0.116806 0.637971 0.156241
O22   O     O_3   0.859076 0.694028 0.356514 -0.560789
C24   C     C_3   0.837505 0.643253 0.234000 -0.108209
H8    H     H_    0.778054 0.554098 0.237119 0.132161
H9    H     H_    0.926718 0.618160 0.188835 0.188255
H10   H     H_    0.786315 0.721777 0.173259 0.197622
O23   O     O_3   0.883774 0.323947 0.664774 -0.559170
C25   C     C_3   0.878199 0.389250 0.781559 -0.094637
H11   H     H_    0.834777 0.492242 0.769250 0.115054
H12   H     H_    0.972680 0.393478 0.829696 0.198406
H13   H     H_    0.818960 0.330429 0.844066 0.245616
O24   O     O_3   0.109289 0.721939 0.394378 -0.521776
C26   C     C_3   0.097930 0.829492 0.478520 -0.067735
H14   H     H_    0.144960 0.804080 0.573275 0.154872
H15   H     H_    0.998452 0.860139 0.489646 0.189944
H16   H     H_    0.144447 0.917719 0.438353 0.183040

loop_
_geom_bond_atom_site_label_1
_geom_bond_atom_site_label_2
_geom_bond_distance
_ccdc_geom_bond_type
C24   H9    1.113713 S    
C1    C21   1.399289 A    
C17   N5    1.430438 S    
C26   H14   1.113719 S    
N3    O10   1.298196 A    
N5    O13   1.299571 A    
C11   C13   1.518979 S    
C7    C9    1.551747 S    
O7    C6    1.285094 A    
C23   H6    1.109679 S    
C1    C20   1.399994 A    
C2    C19   1.404609 A    
O5    C5    1.286981 A    
O7    Zn1   1.985632 S    
C8    C12   1.534653 S    
C25   H11   1.113310 S    
C2    C22   1.405806 A    
O1    Zn1   2.014599 S    
O2    Zn2   2.014598 S    
C23   H7    1.109729 S    
N6    O16   1.299920 A    
C9    H3    1.107991 S    
C24   H10   1.109182 S    
C10   H4    1.110429 S    
C26   H15   1.112549 S    
N4    O12   1.295340 A    
O4    C3    1.294624 A    
C20   O22   1.385282 S    
C22   O24   1.378320 S    
C8    C13   1.537951 S    
N5    O14   1.299835 A    
N8    O20   1.299870 A    
O23   C25   1.408835 S    
O8    Zn2   1.985633 S    
C5    C14   1.417912 S    
O3    C4    1.286055 A    
O6    C6    1.285856 A    
N3    O9    1.299691 A    
C23   H5    1.114927 S    
C9    C13   1.537172 S    
N7    O17   1.300240 A    
N7    O18   1.300511 A    
O4    Zn2   1.989448 S    
C7    C11   1.533788 S    
O22   C24   1.408687 S    
C11   N7    1.456674 S    
C15   C18   1.424593 A    
C25   H12   1.112250 S    
N6    O15   1.300658 A    
C8    C10   1.554178 S    
C26   H16   1.108994 S    
C18   N6    1.429432 S    
N1    C18   1.367218 A    
C6    C13   1.418994 S    
O3    Zn1   1.989447 S    
Zn1   N1    2.031325 S    
N8    O19   1.300053 A    
C10   C14   1.537819 S    
C19   C21   1.391039 A    
O1    C3    1.291208 A    
O2    C4    1.294141 A    
O24   C26   1.413523 S    
C1    C4    1.419704 S    
C2    C3    1.429371 S    
C19   O21   1.390608 S    
C16   C17   1.427208 A    
C20   C22   1.377147 A    
O5    Zn1   2.005581 S    
O6    Zn2   2.005579 S    
O21   C23   1.414312 S    
C8    H2    1.108255 S    
C25   H13   1.107371 S    
C21   O23   1.377804 S    
C15   N3    1.424791 S    
C7    H1    1.105318 S    
N2    C17   1.367398 A    
C12   C14   1.520314 S    
C24   H8    1.110632 S    
O8    C5    1.283542 A    
Zn2   N2    2.031325 S    
N4    O11   1.299710 A    
C9    C12   1.533963 S    
N1    C16   1.379079 A    
C16   N4    1.429628 S    
C10   C11   1.532426 S    
N2    C15   1.374930 A    
C7    C14   1.536663 S    
C12   N8    1.458953 S    
