data_mof_unit_4098.cif
_audit_creation_date              2012-12-10T17:02:31-0500
_audit_creation_method            fapswitch 2.2
_symmetry_space_group_name_H-M    P1
_symmetry_Int_Tables_number       1
_space_group_crystal_system       triclinic
_cell_length_a                    10.76299
_cell_length_b                    11.014967
_cell_length_c                    9.939391
_cell_angle_alpha                 110.996235
_cell_angle_beta                  98.068655
_cell_angle_gamma                 92.441289
_cell_volume                      1083.71242928

loop_
_atom_site_label
_atom_site_type_symbol
_atom_type_description
_atom_site_fract_x
_atom_site_fract_y
_atom_site_fract_z
_atom_type_partial_charge
C1    C     C_R   0.490243 0.254315 0.440708 0.836902
C2    C     C_R   0.509756 0.745685 0.559292 0.836902
C3    C     C_2   0.484556 0.114524 0.407634 -0.357871
C4    C     C_2   0.515444 0.885475 0.592366 -0.357871
C5    C     C_2   0.503221 0.069678 0.516064 -0.140642
C6    C     C_2   0.496779 0.930322 0.483936 -0.140641
C7    C     C_2   0.511843 0.511136 0.080406 0.292615
C8    C     C_2   0.488157 0.488864 0.919594 0.292615
C9    C     C_R   0.263396 0.500270 0.500992 0.790170
C10   C     C_R   0.736604 0.499730 0.499008 0.790170
C11   C     C_R   0.146181 0.737602 0.552071 -0.132731
C12   C     C_R   0.853819 0.262398 0.447929 -0.132730
C13   C     C_R   0.089381 0.853153 0.575307 -0.136039
C14   C     C_R   0.910619 0.146847 0.424695 -0.136039
C15   C     C_R   0.959949 0.852688 0.573101 -0.127623
C16   C     C_R   0.040051 0.147312 0.426901 -0.127623
C17   C     C_R   0.886863 0.736660 0.547577 -0.099859
C18   C     C_R   0.113138 0.263340 0.452425 -0.099860
C19   C     C_R   0.942641 0.618013 0.523400 0.075228
C20   C     C_R   0.057359 0.381987 0.476600 0.075227
C21   C     C_R   0.073802 0.618537 0.525965 0.064642
C22   C     C_R   0.926198 0.381463 0.474035 0.064642
C23   C     C_R   0.870323 0.499457 0.497326 -0.155162
C24   C     C_R   0.129677 0.500543 0.502674 -0.155162
Cu1   Cu    Cu3+1 0.521920 0.521810 0.644910 0.997907
Cu2   Cu    Cu3+1 0.478080 0.478190 0.355090 0.997907
H1    H     H_    0.084020 0.057447 0.408447 0.142738
H2    H     H_    0.915980 0.942554 0.591557 0.142738
H3    H     H_    0.247044 0.742718 0.555170 0.122521
H4    H     H_    0.752956 0.257282 0.444830 0.122521
H5    H     H_    0.146135 0.943374 0.595470 0.152145
H6    H     H_    0.853865 0.056626 0.404532 0.152145
H7    H     H_    0.786588 0.741040 0.547009 0.137948
H8    H     H_    0.213412 0.258960 0.452993 0.137949
H9    H     H_    0.476459 0.864058 0.370277 0.212057
H10   H     H_    0.523542 0.135942 0.629723 0.212057
H11   H     H_    0.535072 0.952129 0.705854 0.163739
H12   H     H_    0.464928 0.047871 0.294146 0.163739
H13   H     H_    0.626174 0.623957 0.928851 0.221828
H14   H     H_    0.373826 0.376043 0.071149 0.221828
N1    N     N_2   0.445130 0.445420 0.137360 -0.291540
N2    N     N_2   0.554870 0.554580 0.862640 -0.291540
O1    O     O_R   0.511700 0.332340 0.577400 -0.539111
O2    O     O_R   0.488300 0.667660 0.422600 -0.539111
O3    O     O_R   0.474680 0.295500 0.332650 -0.580121
O4    O     O_R   0.525320 0.704500 0.667350 -0.580121
O5    O     O_R   0.338170 0.518410 0.622370 -0.526460
O6    O     O_R   0.661830 0.481590 0.377630 -0.526460
O7    O     O_R   0.301150 0.481570 0.377630 -0.576453
O8    O     O_R   0.698850 0.518430 0.622370 -0.576453
Br1   Br    Br    0.353398 0.357742 0.798354 -0.546830
Br2   Br    Br    0.646602 0.642258 0.201646 -0.546829

loop_
_geom_bond_atom_site_label_1
_geom_bond_atom_site_label_2
_ccdc_geom_bond_type
Cu1   N2    S    
C19   C23   A    
C3    H12   S    
C9    C24   S    
C19   C21   A    
C10   C23   S    
C11   C13   A    
Cu1   O5    S    
C2    C4    S    
Cu2   O6    S    
C3    C5    D    
Cu1   O1    S    
C16   H1    S    
C7    N1    D    
Cu2   O2    S    
C7    C8    S    
C2    O4    A    
C18   H8    S    
C8    Br1   S    
C1    O3    A    
C15   H2    S    
C17   H7    S    
C16   C18   A    
H14   N1    S    
C17   C19   A    
C8    N2    D    
C7    Br2   S    
C9    O5    A    
H13   N2    S    
C18   C20   A    
C13   C15   A    
C10   O6    A    
C5    C6    S    
C14   C16   A    
Cu2   O7    S    
C20   C22   A    
C11   C21   A    
C10   O8    A    
C5    H10   S    
C12   C22   A    
C9    O7    A    
C6    H9    S    
C11   H3    S    
C4    C6    D    
C21   C24   A    
C14   H6    S    
C15   C17   A    
C13   H5    S    
Cu1   O8    S    
Cu2   O3    S    
C12   H4    S    
Cu1   Cu2   S    
C22   C23   A    
Cu1   O4    S    
C1    O1    A    
C2    O2    A    
C20   C24   A    
Cu2   N1    S    
C12   C14   A    
C4    H11   S    
C1    C3    S    
