data_mof_unit_2818.cif
_audit_creation_date              2013-03-05T15:55:01-0500
_audit_creation_method            fapswitch 2.2
_symmetry_space_group_name_H-M    P1
_symmetry_Int_Tables_number       1
_space_group_crystal_system       triclinic
_cell_length_a                    23.386175
_cell_length_b                    10.7044
_cell_length_c                    9.980078
_cell_angle_alpha                 92.278961
_cell_angle_beta                  90.268393
_cell_angle_gamma                 91.967483
_cell_volume                      2494.86903059

loop_
_atom_site_label
_atom_site_type_symbol
_atom_site_description
_atom_site_fract_x
_atom_site_fract_y
_atom_site_fract_z
_atom_type_partial_charge
O1    O     O_R   0.500000 0.316780 0.614690 -0.625992
O2    O     O_R   0.500000 0.316750 0.385360 -0.595508
C1    C     C_R   0.503837 0.260118 0.497280 1.035483
O3    O     O_R   0.416160 0.499970 0.614690 -0.592980
O4    O     O_R   0.416150 0.499950 0.385360 -0.682284
C2    C     C_R   0.389871 0.498848 0.499886 1.033130
Zn1   Zn    Zn3+2 0.500000 0.500020 0.653130 1.025451
Zn2   Zn    Zn3+2 0.500000 0.499980 0.346870 1.048570
O5    O     O_R   0.500000 0.683250 0.614640 -0.602528
O6    O     O_R   0.500000 0.683220 0.385310 -0.587470
O7    O     O_R   0.583850 0.500050 0.614640 -0.622828
O8    O     O_R   0.583840 0.500030 0.385310 -0.553967
C3    C     C_R   0.494599 0.739152 0.503282 0.912170
C4    C     C_R   0.610163 0.499157 0.499817 0.973141
C5    C     C_R   0.881241 0.567941 0.613053 0.570434
N1    N     N_R   0.852619 0.540767 0.494879 -0.354061
C6    C     C_R   0.881516 0.512256 0.379463 0.546872
C7    C     C_R   0.940259 0.491186 0.383745 -0.142734
C8    C     C_R   0.970804 0.525239 0.502515 -0.136442
C9    C     C_R   0.941388 0.569612 0.617280 -0.146822
C10   C     C_R   0.968450 0.432793 0.274479 0.395496
C11   C     C_R   0.027834 0.419713 0.278593 0.233957
C12   C     C_R   0.059533 0.464875 0.392912 -0.163423
C13   C     C_R   0.030631 0.514815 0.506387 -0.128048
C14   C     C_R   0.061583 0.556118 0.622997 -0.190808
C15   C     C_R   0.032472 0.610385 0.733506 0.440870
C16   C     C_R   0.972404 0.611199 0.733467 0.392569
C17   C     C_R   0.119553 0.465258 0.396776 0.563117
N2    N     N_R   0.148386 0.503240 0.511107 -0.337378
C18   C     C_R   0.121188 0.544621 0.623944 0.636054
O9    O     O_2   0.851487 0.589498 0.726596 -0.510714
O10   O     O_2   0.853195 0.504310 0.261075 -0.494056
O11   O     O_2   0.149551 0.432580 0.286416 -0.522634
O12   O     O_2   0.152170 0.574497 0.735784 -0.465553
C19   C     C_R   0.241530 0.616312 0.505193 0.498212
C20   C     C_R   0.301125 0.612912 0.499756 0.374069
C21   C     C_R   0.328053 0.497256 0.500606 -0.349484
C22   C     C_R   0.295524 0.383159 0.502740 0.152153
C23   C     C_R   0.236056 0.388743 0.507610 -0.298346
H1    H     H_    0.209764 0.303542 0.509519 0.218926
C24   C     C_R   0.209299 0.503215 0.509988 0.059816
C25   C     C_R   0.763401 0.424855 0.432535 -0.173447
H2    H     H_    0.788646 0.351406 0.387793 0.183445
C26   C     C_R   0.703811 0.412441 0.428225 0.262712
C27   C     C_R   0.672008 0.503911 0.498592 -0.128156
C28   C     C_R   0.699629 0.608984 0.560826 -0.238342
H3    H     H_    0.675174 0.681309 0.610577 0.161596
C29   C     C_R   0.758643 0.624577 0.554361 -0.045218
H4    H     H_    0.779053 0.708925 0.598263 0.175908
C30   C     C_R   0.791134 0.530955 0.493380 0.209472
C31   C     C_R   0.562089 0.117991 0.707712 0.371115
C32   C     C_R   0.562578 0.068496 0.837230 0.309581
C33   C     C_R   0.525536 0.966114 0.865079 0.122387
C34   C     C_R   0.492477 0.906904 0.759996 0.170721
C35   C     C_R   0.500449 0.946145 0.627471 -0.123619
C36   C     C_R   0.524076 0.064989 0.608660 -0.136160
C37   C     C_R   0.507764 0.125564 0.491511 -0.105271
C38   C     C_R   0.482457 0.055390 0.382385 0.355149
H5    H     H_    0.460766 0.873016 0.303519 0.215253
C39   C     C_R   0.475233 0.928319 0.391116 -0.190151
C40   C     C_R   0.486212 0.872241 0.510931 -0.075655
C41   C     C_R   0.414471 0.362072 0.130379 -0.233453
H6    H     H_    0.416168 0.344245 0.234568 0.252004
C42   C     C_R   0.369799 0.301158 0.056676 0.472343
C43   C     C_R   0.373175 0.291803 0.917137 0.431310
C44   C     C_R   0.417905 0.353992 0.853308 -0.285853
H7    H     H_    0.420964 0.335305 0.748309 0.260286
C45   C     C_R   0.458105 0.432092 0.924372 0.089819
C46   C     C_R   0.457473 0.433741 0.068216 0.020779
N3    N     N_R   0.499460 0.498800 0.142780 -0.154670
C47   C     C_R   0.542775 0.558039 0.073207 0.343454
H8    H     H_    0.576073 0.607352 0.878741 0.170569
C48   C     C_R   0.541994 0.558775 0.930689 -0.113263
N4    N     N_R   0.499440 0.498720 0.857170 -0.104309
O13   O     O_3   0.938032 0.384169 0.163893 -0.586374
C49   C     C_3   0.919839 0.260195 0.188694 -0.145308
H9    H     H_    0.895139 0.221826 0.100323 0.200821
H10   H     H_    0.891121 0.256323 0.277168 0.144403
H11   H     H_    0.956834 0.199313 0.202627 0.165210
N5    N     N_R   0.677470 0.307559 0.352665 0.200817
O14   O     O_R   0.626101 0.265621 0.378938 -0.400148
O15   O     O_R   0.706210 0.249014 0.259659 -0.352470
N6    N     N_R   0.463596 0.109903 0.262281 0.218592
O16   O     O_R   0.412048 0.082919 0.218148 -0.314760
O17   O     O_R   0.501323 0.155747 0.180813 -0.363556
O18   O     O_3   0.600261 0.213682 0.675826 -0.595709
C50   C     C_3   0.654442 0.162684 0.653696 -0.190235
H12   H     H_    0.653192 0.094522 0.566449 0.191239
H13   H     H_    0.670991 0.117744 0.743915 0.185763
H14   H     H_    0.685373 0.239595 0.631197 0.182362
O19   O     O_3   0.599221 0.117670 0.937378 -0.551165
C51   C     C_3   0.587171 0.243700 0.969313 0.016779
H15   H     H_    0.540816 0.262292 0.962141 0.118849
H16   H     H_    0.612244 0.307466 0.905177 0.169094
H17   H     H_    0.600700 0.266063 0.074465 0.229449
N7    N     N_R   0.520708 0.925666 0.000153 0.267281
O20   O     O_R   0.565968 0.921256 0.075819 -0.260934
O21   O     O_R   0.470605 0.907827 0.053230 -0.311339
N8    N     N_R   0.444716 0.823781 0.788435 0.273178
O22   O     O_R   0.396061 0.835566 0.727329 -0.274915
O23   O     O_R   0.449642 0.733884 0.870938 -0.352502
N9    N     N_R   0.591588 0.613822 0.142024 0.223892
O24   O     O_R   0.642654 0.585551 0.102532 -0.379402
O25   O     O_R   0.585885 0.709460 0.224413 -0.302868
N10   N     N_R   0.054483 0.353195 0.169193 0.261121
O26   O     O_R   0.077527 0.246523 0.189262 -0.363805
O27   O     O_R   0.048057 0.388661 0.047035 -0.349206
O28   O     O_3   0.325624 0.240252 0.121525 -0.530901
C52   C     C_3   0.287775 0.331227 0.170138 -0.172772
H18   H     H_    0.268123 0.381489 0.087158 0.138792
H19   H     H_    0.309612 0.401131 0.239579 0.132013
H20   H     H_    0.252734 0.283846 0.225267 0.249334
O29   O     O_3   0.337932 0.208686 0.842683 -0.530160
C53   C     C_3   0.284243 0.261461 0.823265 -0.111586
H21   H     H_    0.287290 0.363686 0.805347 0.123696
H22   H     H_    0.255696 0.242026 0.908774 0.185912
H23   H     H_    0.263650 0.214499 0.733686 0.211709
O30   O     O_3   0.062250 0.661574 0.843753 -0.553474
C54   C     C_3   0.071786 0.790630 0.825514 -0.143661
H24   H     H_    0.096859 0.807728 0.733020 0.164541
H25   H     H_    0.097121 0.831074 0.911938 0.202248
H26   H     H_    0.030812 0.840325 0.822700 0.163036
O31   O     O_3   0.944618 0.667581 0.840952 -0.600094
C55   C     C_3   0.942476 0.585246 0.947793 0.010917
H27   H     H_    0.927663 0.488809 0.914547 0.180782
H28   H     H_    0.911317 0.620256 0.022604 0.208653
H29   H     H_    0.984597 0.583461 0.999128 0.197589
O32   O     O_3   0.216196 0.731498 0.516270 -0.550257
C56   C     C_3   0.183642 0.752652 0.400090 -0.246040
H30   H     H_    0.137562 0.734135 0.420039 0.160429
H31   H     H_    0.196604 0.696967 0.308993 0.149073
H32   H     H_    0.188990 0.852856 0.376911 0.217547
O33   O     O_3   0.333251 0.723965 0.502800 -0.537621
C57   C     C_3   0.339431 0.764509 0.370683 -0.149478
H33   H     H_    0.298064 0.765158 0.315490 0.153100
H34   H     H_    0.370019 0.706078 0.313628 0.146041
H35   H     H_    0.356870 0.862164 0.375566 0.233018
N11   N     N_R   0.321029 0.261836 0.493854 0.237304
O34   O     O_R   0.374808 0.248195 0.520593 -0.426040
O35   O     O_R   0.289679 0.162095 0.462145 -0.344572

loop_
_geom_bond_atom_site_label_1
_geom_bond_atom_site_label_2
_geom_bond_distance
_ccdc_geom_bond_type
C44   C45   1.406555 A    
C35   C36   1.389462 A    
C7    C10   1.412559 A    
C48   N4    1.361506 A    
C8    C9    1.413244 A    
C49   H11   1.112381 S    
C50   H12   1.113171 S    
O32   C56   1.414130 S    
C57   H35   1.108117 S    
C53   H21   1.115699 S    
O31   C55   1.410118 S    
C23   C24   1.394303 A    
C33   C34   1.416055 A    
O28   C52   1.411680 S    
Zn1   O7    1.999958 S    
N10   O27   1.300787 A    
C15   C16   1.405092 A    
N2    C18   1.362098 A    
C20   C21   1.408430 A    
C49   H10   1.113080 S    
C7    C8    1.409962 A    
C52   H19   1.109146 S    
C22   C23   1.395069 A    
N5    O14   1.299520 A    
O7    C4    1.303106 A    
C38   C39   1.371164 A    
C5    N1    1.369509 A    
C36   C37   1.416324 A    
C31   C36   1.414906 A    
O5    C3    1.290706 A    
O30   C54   1.410863 S    
C41   C42   1.401964 A    
N9    O24   1.301097 A    
C28   H3    1.084193 S    
C19   C20   1.396679 A    
N1    C6    1.367514 A    
N7    O21   1.299417 A    
C12   C13   1.417397 A    
N3    C47   1.381246 A    
C4    C27   1.445585 S    
C56   H32   1.109266 S    
N2    C24   1.424618 S    
C29   C30   1.400058 A    
C44   H7    1.062185 S    
H5    C39   1.082363 S    
C10   C11   1.401144 A    
C20   O33   1.383517 S    
C33   N7    1.435942 S    
C19   O32   1.386878 S    
C25   C26   1.395634 A    
O3    Zn1   1.996090 S    
C31   O18   1.383177 S    
C42   O28   1.380137 S    
Zn1   N4    2.037036 S    
C54   H25   1.109203 S    
C5    C9    1.406514 A    
C28   C29   1.386578 A    
C18   O12   1.349507 S    
C31   C32   1.416474 A    
C26   N5    1.445485 S    
C49   H9    1.109202 S    
N5    O15   1.301750 A    
C52   H20   1.108753 S    
C23   H1    1.083138 S    
C47   C48   1.422716 A    
C16   O31   1.385332 S    
O18   C50   1.411668 S    
C45   C46   1.435137 A    
C57   H34   1.110562 S    
C14   C15   1.414397 A    
C27   C28   1.399604 A    
C51   H17   1.109237 S    
C41   C46   1.405532 A    
C39   C40   1.385964 A    
O1    C1    1.302748 A    
O13   C49   1.411294 S    
C21   C22   1.417481 A    
N6    O16   1.300651 A    
Zn2   O8    1.996087 S    
N7    O20   1.300609 A    
C41   H6    1.065415 S    
C51   H16   1.109147 S    
C6    C7    1.400500 A    
C22   N11   1.447323 S    
C2    C21   1.445264 S    
C12   C17   1.403841 A    
C13   C14   1.415282 A    
N9    O25   1.298221 A    
N11   O35   1.301837 A    
C25   C30   1.403624 A    
C55   H29   1.109293 S    
C1    C37   1.445269 S    
O3    C2    1.297171 A    
C29   H4    1.082598 S    
N6    O17   1.299637 A    
C47   N9    1.429902 S    
O8    C4    1.296026 A    
C17   O11   1.349459 S    
C50   H13   1.111705 S    
O33   C57   1.410945 S    
C34   N8    1.440359 S    
C25   H2    1.082837 S    
O19   C51   1.411996 S    
C32   C33   1.410688 A    
C55   H28   1.109255 S    
O29   C53   1.410090 S    
C54   H26   1.112617 S    
C14   C18   1.403595 A    
Zn1   O5    2.013565 S    
C34   C35   1.414780 A    
C17   N2    1.363463 A    
N8    O23   1.298834 A    
O1    Zn1   1.983610 S    
C43   O29   1.383595 S    
O2    Zn2   2.013564 S    
C26   C27   1.416072 A    
C15   O30   1.383644 S    
N1    C30   1.438112 S    
H8    C48   1.082217 S    
O6    C3    1.308103 A    
O4    Zn2   1.999960 S    
C53   H22   1.107770 S    
C54   H24   1.113808 S    
C5    O9    1.348733 S    
C57   H33   1.111368 S    
C9    C16   1.413425 A    
C11   N10   1.436139 S    
N10   O26   1.301466 A    
C10   O13   1.384387 S    
Zn2   N3    2.036348 S    
N8    O22   1.300781 A    
C42   C43   1.395035 A    
O2    C1    1.296081 A    
C56   H30   1.109352 S    
C52   H18   1.111470 S    
C37   C38   1.413869 A    
O4    C2    1.300533 A    
C35   C40   1.412292 A    
C51   H15   1.111394 S    
C8    C13   1.407852 A    
C46   N3    1.381257 A    
C19   C24   1.406539 A    
C53   H23   1.107920 S    
N11   O34   1.298798 A    
C3    C40   1.443810 S    
Zn2   O6    1.983612 S    
C43   C44   1.391159 A    
C50   H14   1.107610 S    
C6    O10   1.350080 S    
C11   C12   1.417243 A    
C32   O19   1.389081 S    
C38   N6    1.428343 S    
C45   N4    1.374667 A    
C55   H27   1.114842 S    
C56   H31   1.116091 S    
