data_mof_unit_873.cif
_audit_creation_date              2013-03-05T15:42:40-0500
_audit_creation_method            fapswitch 2.2
_symmetry_space_group_name_H-M    P1
_symmetry_Int_Tables_number       1
_space_group_crystal_system       triclinic
_cell_length_a                    18.855797
_cell_length_b                    11.16449
_cell_length_c                    18.601208
_cell_angle_alpha                 89.969378
_cell_angle_beta                  90.825386
_cell_angle_gamma                 90.065435
_cell_volume                      3915.43055588

loop_
_atom_site_label
_atom_site_type_symbol
_atom_site_description
_atom_site_fract_x
_atom_site_fract_y
_atom_site_fract_z
_atom_type_partial_charge
O1    O     O_R   0.788190 0.043000 0.172520 -0.556280
O2    O     O_R   0.211810 0.043000 0.827480 -0.547153
O3    O     O_R   0.288190 0.543000 0.172520 -0.547114
O4    O     O_R   0.711810 0.543000 0.827480 -0.554999
O5    O     O_R   0.766240 0.292300 0.176860 -0.496269
O6    O     O_R   0.233760 0.292300 0.823140 -0.505519
O7    O     O_R   0.266240 0.792300 0.176860 -0.500018
O8    O     O_R   0.733760 0.792300 0.823140 -0.504330
C1    C     C_R   0.711573 0.330675 0.138507 0.586997
C2    C     C_R   0.288007 0.331614 0.861389 0.566120
C3    C     C_R   0.211780 0.831355 0.138613 0.582744
C4    C     C_R   0.788076 0.831381 0.861433 0.581313
O9    O     O_R   0.670310 0.409160 0.168720 -0.427882
O10   O     O_R   0.329690 0.409160 0.831280 -0.436791
O11   O     O_R   0.170310 0.909160 0.168720 -0.437779
O12   O     O_R   0.829690 0.909160 0.831280 -0.427667
O13   O     O_R   0.556160 0.251900 0.173380 -0.466314
O14   O     O_R   0.443840 0.251900 0.826620 -0.466961
O15   O     O_R   0.056160 0.751900 0.173380 -0.472758
O16   O     O_R   0.943840 0.751900 0.826620 -0.471879
C5    C     C_R   0.532432 0.154093 0.145227 0.584677
C6    C     C_R   0.439245 0.150226 0.862536 0.552152
C7    C     C_R   0.033924 0.654011 0.144148 0.571770
C8    C     C_R   0.966100 0.654047 0.855830 0.577334
O17   O     O_R   0.545410 0.050140 0.168240 -0.448393
O18   O     O_R   0.454590 0.050140 0.831760 -0.442587
O19   O     O_R   0.045410 0.550140 0.168240 -0.456218
O20   O     O_R   0.954590 0.550140 0.831760 -0.453568
O21   O     O_R   0.681530 0.958350 0.176970 -0.504983
O22   O     O_R   0.318470 0.958350 0.823030 -0.515169
O23   O     O_R   0.181530 0.458350 0.176970 -0.503931
O24   O     O_R   0.818470 0.458350 0.823030 -0.507425
C9    C     C_R   0.744156 0.963753 0.151914 0.532638
C10   C     C_R   0.255661 0.963901 0.848055 0.539555
C11   C     C_R   0.244071 0.464219 0.151793 0.546334
C12   C     C_R   0.755625 0.463256 0.847834 0.530547
O25   O     O_R   0.788610 0.044480 0.334450 -0.541702
O26   O     O_R   0.211390 0.044480 0.665550 -0.533272
O27   O     O_R   0.288610 0.544480 0.334450 -0.531900
O28   O     O_R   0.711390 0.544480 0.665550 -0.543727
O29   O     O_R   0.766630 0.293670 0.326970 -0.494020
O30   O     O_R   0.233370 0.293670 0.673030 -0.523091
O31   O     O_R   0.266630 0.793670 0.326970 -0.522680
O32   O     O_R   0.733370 0.793670 0.673030 -0.497002
C13   C     C_R   0.709177 0.329871 0.361740 0.552759
C14   C     C_R   0.265777 0.388932 0.650708 0.546139
C15   C     C_R   0.234244 0.888686 0.349367 0.546076
C16   C     C_R   0.791325 0.828678 0.638422 0.570121
O33   O     O_R   0.670730 0.410640 0.330640 -0.531303
O34   O     O_R   0.329270 0.410640 0.669360 -0.526763
O35   O     O_R   0.170730 0.910640 0.330640 -0.529652
O36   O     O_R   0.829270 0.910640 0.669360 -0.529827
O37   O     O_R   0.556550 0.253260 0.323480 -0.529067
O38   O     O_R   0.443450 0.253260 0.676520 -0.504428
O39   O     O_R   0.056550 0.753260 0.323480 -0.510000
O40   O     O_R   0.943450 0.753260 0.676520 -0.535217
C17   C     C_R   0.559018 0.151689 0.360992 0.532587
C18   C     C_R   0.469461 0.157857 0.649117 0.528518
C19   C     C_R   0.031927 0.658244 0.352087 0.520675
C20   C     C_R   0.966756 0.654472 0.646269 0.538009
O41   O     O_R   0.545830 0.051610 0.330160 -0.520157
O42   O     O_R   0.454170 0.051610 0.669840 -0.532164
O43   O     O_R   0.045830 0.551610 0.330160 -0.531269
O44   O     O_R   0.954170 0.551610 0.669840 -0.526633
O45   O     O_R   0.681920 0.959720 0.327070 -0.525377
O46   O     O_R   0.318080 0.959720 0.672930 -0.502960
O47   O     O_R   0.181920 0.459720 0.327070 -0.503547
O48   O     O_R   0.818080 0.459720 0.672930 -0.501842
C21   C     C_R   0.746649 0.961360 0.351353 0.527185
C22   C     C_R   0.272475 0.027087 0.636155 0.568985
C23   C     C_R   0.227578 0.527261 0.363828 0.566861
C24   C     C_R   0.753584 0.461589 0.648742 0.532733
Cr1   Cr    Cr6+3 0.772820 0.169820 0.252640 0.999267
Cr2   Cr    Cr6+3 0.227180 0.169820 0.747360 0.996656
Cr3   Cr    Cr6+3 0.272820 0.669820 0.252640 1.008974
Cr4   Cr    Cr6+3 0.727180 0.669820 0.747360 0.997969
Cr5   Cr    Cr6+3 0.615040 0.323610 0.249150 1.046029
Cr6   Cr    Cr6+3 0.384960 0.323610 0.750850 1.041708
Cr7   Cr    Cr6+3 0.115040 0.823610 0.249150 1.040891
Cr8   Cr    Cr6+3 0.884960 0.823610 0.750850 1.045393
Cr9   Cr    Cr6+3 0.616720 0.011130 0.250660 1.026444
Cr10  Cr    Cr6+3 0.383280 0.011130 0.749340 1.022921
Cr11  Cr    Cr6+3 0.116720 0.511130 0.250660 1.027345
Cr12  Cr    Cr6+3 0.883280 0.511130 0.749340 1.029907
O49   O     O_3   0.668190 0.168190 0.250820 -0.320647
O50   O     O_3   0.331810 0.168190 0.749180 -0.319948
O51   O     O_3   0.168190 0.668190 0.250820 -0.308327
O52   O     O_3   0.831810 0.668190 0.749180 -0.307129
C25   C     C_3   0.509534 0.250573 0.971480 -0.132161
C26   C     C_3   0.459270 0.249316 0.037589 -0.146962
C27   C     C_3   0.027878 0.752146 0.969331 -0.140503
C28   C     C_3   0.972019 0.751839 0.030641 -0.141519
C29   C     C_3   0.557169 0.155678 0.007940 -0.143342
C30   C     C_3   0.413961 0.148634 0.002107 -0.177251
C31   C     C_3   0.071269 0.654293 0.009109 -0.146020
C32   C     C_3   0.928774 0.653725 0.990843 -0.146925
H1    H     H_    0.615934 0.156512 0.012310 0.133381
H2    H     H_    0.355228 0.143249 0.998728 0.125357
H3    H     H_    0.129483 0.651590 0.018559 0.127577
H4    H     H_    0.870561 0.650759 0.981363 0.127507
H5    H     H_    0.530199 0.322561 0.936846 0.166286
H6    H     H_    0.442359 0.322458 0.073322 0.151843
H7    H     H_    0.047452 0.824435 0.934294 0.151594
H8    H     H_    0.952381 0.823919 0.065686 0.149549
C33   C     C_3   0.506194 0.154981 0.071934 0.013468
C34   C     C_3   0.464649 0.151266 0.937301 0.001033
C35   C     C_3   0.014531 0.655043 0.068563 0.012277
C36   C     C_3   0.985512 0.655111 0.931396 0.011721
C37   C     C_3   0.462772 0.054887 0.037184 0.226240
C38   C     C_3   0.512260 0.056813 0.973263 0.238962
C39   C     C_3   0.972573 0.557491 0.029501 0.227475
C40   C     C_3   0.027631 0.557827 0.970405 0.227357
H9    H     H_    0.863618 0.976150 0.083588 0.122958
H10   H     H_    0.136141 0.978661 0.916943 0.125411
H11   H     H_    0.361656 0.483705 0.081637 0.124305
H12   H     H_    0.633952 0.467331 0.913765 0.126253
C41   C     C_R   0.779273 0.846353 0.940024 0.002765
C42   C     C_R   0.220095 0.846397 0.059928 0.005026
C43   C     C_R   0.278981 0.347756 0.939664 0.007272
C44   C     C_R   0.719381 0.342901 0.059102 0.003501
C45   C     C_R   0.718516 0.799201 0.977918 0.019093
C46   C     C_R   0.280305 0.798864 0.021626 0.011989
C47   C     C_R   0.218700 0.299807 0.977867 0.016981
C48   C     C_R   0.780320 0.296690 0.021281 0.020939
C49   C     C_R   0.713833 0.818029 0.053305 0.022027
C50   C     C_R   0.284465 0.817396 0.946211 0.015124
C51   C     C_R   0.214173 0.318895 0.053193 0.016443
C52   C     C_R   0.785468 0.316347 0.945935 0.020877
C53   C     C_R   0.823696 0.926829 0.053261 -0.183369
C54   C     C_R   0.175790 0.928397 0.946995 -0.184221
C55   C     C_R   0.322252 0.432371 0.051896 -0.184128
C56   C     C_R   0.674244 0.419916 0.944708 -0.178502
C57   C     C_R   0.834538 0.905027 0.981028 -0.014219
C58   C     C_R   0.164918 0.905750 0.019192 -0.014908
C59   C     C_R   0.333591 0.408750 0.980119 -0.008866
C60   C     C_R   0.663607 0.398827 0.017255 -0.018378
C61   C     C_R   0.660155 0.737808 0.945065 -0.031777
C62   C     C_R   0.338689 0.737458 0.054015 -0.036076
C63   C     C_R   0.160604 0.237526 0.945379 -0.032606
C64   C     C_R   0.838617 0.235847 0.054245 -0.031892
C65   C     C_R   0.101819 0.204031 0.984590 -0.082674
C66   C     C_R   0.898038 0.203911 0.015636 -0.082532
C67   C     C_R   0.601548 0.702845 0.984130 -0.081963
C68   C     C_R   0.397124 0.703521 0.014478 -0.084858
C69   C     C_R   0.602131 0.711578 0.058122 -0.051407
C70   C     C_R   0.395703 0.711736 0.940489 -0.046598
C71   C     C_R   0.102363 0.213714 0.058528 -0.052287
C72   C     C_R   0.898233 0.214187 0.941735 -0.051682
C73   C     C_R   0.659494 0.762882 0.092820 -0.049634
C74   C     C_R   0.337921 0.761581 0.906220 -0.051305
C75   C     C_R   0.160190 0.263505 0.092995 -0.053671
C76   C     C_R   0.840553 0.263264 0.906722 -0.051289
C77   C     C_R   0.762008 0.894868 0.087492 -0.003476
C78   C     C_R   0.237090 0.895365 0.912432 -0.005073
C79   C     C_R   0.261689 0.397152 0.086882 -0.004954
C80   C     C_R   0.737059 0.392010 0.911408 -0.003061
H13   H     H_    0.653647 0.717235 0.889552 0.189845
H14   H     H_    0.345458 0.716763 0.109494 0.196872
H15   H     H_    0.154205 0.216146 0.889963 0.192778
H16   H     H_    0.844329 0.213445 0.109544 0.191689
H17   H     H_    0.056447 0.165991 0.956940 0.114648
H18   H     H_    0.943303 0.166302 0.043676 0.115548
H19   H     H_    0.556260 0.664572 0.956344 0.116154
H20   H     H_    0.442741 0.665660 0.041795 0.117655
H21   H     H_    0.058812 0.179643 0.089642 0.162805
H22   H     H_    0.942150 0.180738 0.911013 0.163230
H23   H     H_    0.558747 0.676366 0.089048 0.163839
H24   H     H_    0.439032 0.677655 0.909171 0.171191
H25   H     H_    0.660342 0.759809 0.150904 0.141033
H26   H     H_    0.336439 0.758223 0.848128 0.139906
H27   H     H_    0.161329 0.260055 0.151071 0.139069
H28   H     H_    0.840070 0.260242 0.848637 0.141078
H29   H     H_    0.473714 0.311023 0.423488 0.142742
H30   H     H_    0.441279 0.320284 0.548596 0.152514
H31   H     H_    0.064621 0.829611 0.448040 0.156967
H32   H     H_    0.043919 0.821537 0.577099 0.128901
C81   C     C_R   0.505355 0.167845 0.581144 -0.001065
C82   C     C_R   0.535305 0.149145 0.435349 0.005490
C83   C     C_R   0.992430 0.649586 0.572216 0.004943
C84   C     C_R   0.002474 0.670145 0.423320 -0.001215
C85   C     C_R   0.547080 0.071816 0.557432 0.019452
C86   C     C_R   0.552734 0.052375 0.483010 0.023145
C87   C     C_R   0.973186 0.550846 0.526021 0.039065
C88   C     C_R   0.965956 0.572642 0.452079 0.017093
C89   C     C_R   0.494527 0.243894 0.460158 -0.142006
C90   C     C_R   0.477925 0.251232 0.531983 -0.139775
C91   C     C_R   0.032839 0.757069 0.469092 -0.134220
C92   C     C_R   0.024473 0.749895 0.542847 -0.158448
C93   C     C_R   0.574162 0.985420 0.606196 -0.068462
C94   C     C_R   0.568398 0.933652 0.460674 -0.103723
C95   C     C_R   0.964546 0.430057 0.548837 -0.090209
C96   C     C_R   0.931834 0.487580 0.407193 -0.071320
C97   C     C_R   0.939370 0.342258 0.501615 -0.163183
C98   C     C_R   0.920643 0.371928 0.431518 -0.111319
C99   C     C_R   0.585497 0.869064 0.583303 -0.104164
C100  C     C_R   0.578023 0.842159 0.510949 -0.161990
H33   H     H_    0.579208 0.004071 0.663182 0.151594
H34   H     H_    0.568359 0.904204 0.405858 0.164834
H35   H     H_    0.982387 0.397779 0.600634 0.145508
H36   H     H_    0.919284 0.507596 0.351450 0.146644
H37   H     H_    0.934480 0.250624 0.519632 0.111371
H38   H     H_    0.900750 0.304138 0.394910 0.137035
H39   H     H_    0.597983 0.799193 0.621774 0.139582
H40   H     H_    0.583303 0.750473 0.493250 0.113517
H41   H     H_    0.680303 0.771490 0.418185 0.125764
H42   H     H_    0.373809 0.933427 0.551776 0.155924
H43   H     H_    0.126080 0.435156 0.448580 0.155613
H44   H     H_    0.824835 0.281591 0.579449 0.136572
C101  C     C_R   0.792080 0.835766 0.558490 -0.006032
C102  C     C_R   0.262051 0.964202 0.409187 -0.001808
C103  C     C_R   0.238330 0.464779 0.590824 -0.003803
C104  C     C_R   0.709952 0.340103 0.441269 -0.011746
C105  C     C_R   0.846965 0.896713 0.519532 0.032321
C106  C     C_R   0.218780 0.055855 0.436603 0.037362
C107  C     C_R   0.282110 0.556014 0.563210 0.037677
C108  C     C_R   0.655116 0.400643 0.480584 0.030453
C109  C     C_R   0.838928 0.908515 0.444123 0.035830
C110  C     C_R   0.216701 0.073828 0.511879 0.027291
C111  C     C_R   0.284145 0.573985 0.487914 0.028598
C112  C     C_R   0.662431 0.407816 0.556131 0.034806
C113  C     C_R   0.726654 0.805563 0.446287 -0.143392
C114  C     C_R   0.327437 0.961963 0.521511 -0.141545
C115  C     C_R   0.172652 0.463320 0.478708 -0.141557
C116  C     C_R   0.777030 0.311968 0.552411 -0.137798
C117  C     C_R   0.738230 0.777686 0.518838 -0.144240
C118  C     C_R   0.322043 0.931666 0.448704 -0.143442
C119  C     C_R   0.178072 0.432937 0.551496 -0.148319
C120  C     C_R   0.765204 0.284316 0.480172 -0.148941
C121  C     C_R   0.909438 0.947345 0.551222 -0.099471
C122  C     C_R   0.174538 0.124449 0.390448 -0.064331
C123  C     C_R   0.326831 0.624168 0.609206 -0.064882
C124  C     C_R   0.593524 0.455643 0.449492 -0.106717
C125  C     C_R   0.960384 0.004618 0.510021 -0.161690
C126  C     C_R   0.119022 0.190371 0.417770 -0.119492
C127  C     C_R   0.382690 0.689542 0.581806 -0.120618
C128  C     C_R   0.542085 0.509270 0.491699 -0.164836
C129  C     C_R   0.955189 0.002693 0.435808 -0.127512
C130  C     C_R   0.109957 0.194954 0.491333 -0.164089
C131  C     C_R   0.391780 0.694370 0.508228 -0.164827
C132  C     C_R   0.546250 0.501177 0.565836 -0.125461
C133  C     C_R   0.896727 0.949633 0.403012 -0.076606
C134  C     C_R   0.159835 0.143819 0.538035 -0.108722
C135  C     C_R   0.341482 0.643410 0.461605 -0.107493
C136  C     C_R   0.604312 0.445686 0.597772 -0.074724
C137  C     C_R   0.771955 0.884782 0.411844 -0.002492
C138  C     C_R   0.270950 0.019638 0.556106 -0.008218
C139  C     C_R   0.229361 0.520270 0.443899 -0.006892
C140  C     C_R   0.729545 0.385557 0.588087 -0.003383
H45   H     H_    0.924179 0.941167 0.606805 0.171997
H46   H     H_    0.181281 0.123567 0.332711 0.138110
H47   H     H_    0.320148 0.623446 0.666951 0.137247
H48   H     H_    0.579242 0.455880 0.393558 0.168609
H49   H     H_    0.701578 0.718238 0.545393 0.148277
H50   H     H_    0.362606 0.878635 0.423758 0.128247
H51   H     H_    0.137357 0.380113 0.576523 0.119787
H52   H     H_    0.802497 0.226500 0.453484 0.146044
H53   H     H_    0.006969 0.041995 0.536043 0.116180
H54   H     H_    0.082810 0.237388 0.381978 0.121820
H55   H     H_    0.419146 0.736089 0.617608 0.120152
H56   H     H_    0.496043 0.548911 0.466079 0.119290
H57   H     H_    0.997420 0.038851 0.403574 0.125280
H58   H     H_    0.066396 0.245071 0.512828 0.107175
H59   H     H_    0.435962 0.744364 0.486917 0.109544
H60   H     H_    0.503757 0.535008 0.598540 0.126106
H61   H     H_    0.896334 0.943024 0.344937 0.137373
H62   H     H_    0.151638 0.164253 0.593468 0.166409
H63   H     H_    0.349653 0.663564 0.406098 0.166873
H64   H     H_    0.604706 0.435900 0.655714 0.136140
N1    N     N_R   0.437612 0.953953 0.078788 0.088648
O53   O     O_R   0.482193 0.869982 0.096285 -0.359047
O54   O     O_R   0.381806 0.968997 0.118048 -0.347977
N2    N     N_R   0.545325 0.958661 0.935197 0.104701
O55   O     O_R   0.506227 0.871561 0.911188 -0.363729
O56   O     O_R   0.607025 0.976479 0.906687 -0.349021
N3    N     N_R   0.941992 0.458078 0.068473 0.091565
O57   O     O_R   0.983808 0.373984 0.091877 -0.358963
O58   O     O_R   0.882355 0.475684 0.101079 -0.354240
N4    N     N_R   0.058417 0.458989 0.931263 0.091802
O59   O     O_R   0.016795 0.374425 0.907978 -0.359166
O60   O     O_R   0.117735 0.477751 0.898240 -0.353608
C141  C     C_2   0.906324 0.949817 0.957907 0.208570
H65   H     H_    0.941098 0.987337 0.998257 0.074469
O61   O     O_2   0.931896 0.943554 0.898623 -0.497184
C142  C     C_2   0.093156 0.950044 0.042487 0.208337
H66   H     H_    0.058197 0.987109 0.002172 0.074853
O62   O     O_2   0.067859 0.944091 0.101918 -0.498543
C143  C     C_2   0.405978 0.451539 0.957575 0.202130
H67   H     H_    0.441795 0.483293 0.998908 0.078286
O63   O     O_2   0.430413 0.451844 0.897585 -0.506174
C144  C     C_2   0.592276 0.443958 0.040218 0.203630
H68   H     H_    0.558050 0.483411 0.000116 0.073052
O64   O     O_2   0.567295 0.438194 0.099733 -0.496022

loop_
_geom_bond_atom_site_label_1
_geom_bond_atom_site_label_2
_geom_bond_distance
_ccdc_geom_bond_type
O4    C12   1.269193 A    
O7    Cr3   1.966090 S    
O39   C19   1.276490 A    
C23   C139  1.491302 S    
C41   C57   1.439745 A    
Cr7   O51   2.004799 S    
C5    C33   1.443642 S    
C12   C80   1.471033 S    
C142  H66   1.074334 S    
C109  C137  1.415285 A    
O25   C21   1.261426 A    
C17   C82   1.459985 S    
C31   H3    1.109582 S    
C99   H39   1.082121 S    
O21   C9    1.277095 A    
C132  C136  1.384812 A    
C97   H37   1.080626 S    
C1    O9    1.305250 A    
O44   Cr12  2.057346 S    
C37   N1    1.449921 S    
C120  H52   1.081209 S    
C3    O11   1.301663 A    
C4    O12   1.301899 A    
N2    O55   1.295341 A    
C25   C34   1.527366 S    
C143  O63   1.213374 D    
C124  H48   1.070969 S    
C100  H40   1.080574 S    
C29   C38   1.527863 S    
O2    C10   1.265776 A    
C112  C140  1.412602 A    
C63   H15   1.063343 S    
C68   H20   1.079227 S    
O17   Cr9   2.071065 S    
H10   C54   1.083925 S    
C54   C58   1.384528 A    
C116  C120  1.393660 A    
C67   H19   1.079649 S    
H32   C92   1.083173 S    
O31   Cr3   1.960680 S    
C13   C104  1.483655 S    
O16   Cr8   1.953397 S    
C27   H7    1.103649 S    
C83   C92   1.387435 A    
C101  C105  1.441726 A    
C81   C90   1.398943 A    
O28   Cr4   2.085879 S    
O12   Cr8   2.070114 S    
O41   Cr9   2.058365 S    
O22   Cr10  1.940428 S    
O15   C7    1.287972 A    
C87   C88   1.401385 A    
O6    C2    1.312799 A    
C84   C91   1.407173 A    
O46   Cr10  1.951901 S    
O48   C24   1.290777 A    
C7    C35   1.447670 S    
C82   C86   1.432691 A    
C49   C73   1.410290 A    
C53   C57   1.383742 A    
C50   C78   1.391241 A    
C21   C137  1.486315 S    
N1    O54   1.300558 A    
C106  C110  1.415753 A    
C133  H61   1.082740 S    
C105  C121  1.425999 A    
C93   H33   1.083194 S    
C126  H54   1.082762 S    
C25   H5    1.103978 S    
O5    Cr1   1.966090 S    
Cr12  O52   2.005103 S    
C26   C33   1.511739 S    
C135  H63   1.069890 S    
C119  H51   1.078374 S    
C17   O41   1.278718 A    
C43   C47   1.450862 A    
C30   C37   1.533759 S    
C19   O43   1.287132 A    
C20   O44   1.252687 A    
C24   C140  1.477980 S    
Cr8   O52   2.002845 S    
C6    C34   1.464413 S    
C38   N2    1.451206 S    
O46   C22   1.325546 A    
C55   C79   1.379238 A    
C122  C126  1.383197 A    
C96   H36   1.083462 S    
C40   N4    1.448883 S    
C52   C80   1.394111 A    
C99   C100  1.384326 A    
C16   O36   1.291366 A    
C117  H49   1.081918 S    
C97   C98   1.386037 A    
O27   C23   1.295172 A    
C131  C135  1.396750 A    
C86   C94   1.421893 A    
O31   C15   1.296560 A    
O16   C8    1.287924 A    
C121  H45   1.068967 S    
O32   C16   1.334314 A    
O47   Cr11  1.952281 S    
C113  C117  1.398917 A    
C39   C40   1.522837 S    
C123  H47   1.083322 S    
C74   H26   1.081213 S    
C20   C83   1.467689 S    
O5    C1    1.317021 A    
H29   C89   1.083217 S    
C73   H25   1.080846 S    
O24   C12   1.279068 A    
C19   C84   1.450272 S    
C11   C79   1.463544 S    
C126  C130  1.382429 A    
C76   H28   1.080907 S    
C115  C119  1.397955 A    
C47   C63   1.424203 A    
C124  C128  1.392615 A    
C75   H27   1.080859 S    
C42   C46   1.450253 A    
C45   C61   1.426041 A    
O32   Cr4   1.959449 S    
C26   H6    1.103446 S    
C125  C129  1.382682 A    
C2    C43   1.479499 S    
C71   H21   1.080166 S    
C51   C75   1.409408 A    
C52   C76   1.409191 A    
O11   Cr7   2.068277 S    
O27   Cr3   2.085242 S    
O3    Cr3   2.079766 S    
C42   C58   1.440156 A    
O8    C4    1.313378 A    
Cr5   O49   2.004799 S    
C70   C74   1.372627 A    
C102  C118  1.388732 A    
C131  H59   1.082105 S    
C132  H60   1.081532 S    
C32   C39   1.528911 S    
C128  H56   1.079540 S    
O22   C10   1.280313 A    
C65   C71   1.379527 A    
C129  H57   1.081361 S    
C2    O10   1.300603 A    
C27   C28   1.563524 S    
C28   H8    1.103560 S    
C115  C139  1.408847 A    
C58   C142  1.510598 S    
C4    C41   1.483207 S    
C96   C98   1.384897 A    
C71   C75   1.373976 A    
C45   C49   1.422080 A    
C62   H14   1.063320 S    
C47   C51   1.421178 A    
H12   C56   1.084760 S    
O3    C11   1.266396 A    
C56   C60   1.387103 A    
C54   C78   1.381311 A    
Cr1   O49   1.972750 S    
Cr3   O51   1.972750 S    
C29   H1    1.109906 S    
O26   Cr2   2.085879 S    
C5    O17   1.259829 A    
O29   C13   1.332941 A    
O28   C24   1.263452 A    
O14   C6    1.320235 A    
C35   C39   1.523939 S    
C72   C76   1.373975 A    
H44   C116  1.080708 S    
O40   Cr8   1.947295 S    
C61   H13   1.063311 S    
C142  O62   1.212047 D    
C9    C77   1.467639 S    
C60   C144  1.504557 S    
C64   H16   1.062460 S    
C53   C77   1.380535 A    
C50   C74   1.407532 A    
H42   C114  1.081310 S    
C81   C85   1.405488 A    
C32   H4    1.109674 S    
C56   C80   1.380515 A    
O33   Cr5   2.073124 S    
C110  C134  1.419293 A    
C121  C125  1.392231 A    
O35   Cr7   2.073124 S    
O29   Cr1   1.960680 S    
C84   C88   1.397695 A    
C16   C101  1.489171 S    
N2    O56   1.300558 A    
C1    C44   1.492632 S    
N4    O59   1.297619 A    
C123  C127  1.383905 A    
C3    C42   1.483673 S    
Cr9   O49   2.003166 S    
C18   O42   1.280907 A    
Cr11  O51   2.003166 S    
O26   C22   1.296954 A    
O20   Cr12  2.070765 S    
C72   H22   1.079963 S    
N3    O57   1.297707 A    
C85   C86   1.406931 A    
H43   C115  1.081422 S    
C64   C66   1.386600 A    
C31   C40   1.528737 S    
O38   C18   1.282125 A    
C30   H2    1.109890 S    
C14   C103  1.486314 S    
C98   H38   1.081557 S    
C144  H68   1.073949 S    
O30   C14   1.297031 A    
C33   C37   1.523294 S    
C85   C93   1.414495 A    
C116  C140  1.391568 A    
C88   C96   1.413128 A    
O6    Cr2   1.966939 S    
C8    C36   1.447438 S    
C48   C52   1.423156 A    
O42   Cr10  2.057346 S    
O18   Cr10  2.070765 S    
N1    O53   1.298082 A    
C101  C117  1.404610 A    
O34   Cr6   2.073489 S    
C26   C30   1.552860 S    
C10   C78   1.467172 S    
O24   Cr12  1.940428 S    
O30   Cr2   1.959449 S    
O48   Cr12  1.951901 S    
C8    O20   1.261152 A    
C46   C62   1.423764 A    
C68   C70   1.379160 A    
C51   C79   1.393350 A    
O37   C17   1.331657 A    
C15   O35   1.266595 A    
Cr10  O50   2.005103 S    
C43   C59   1.437663 A    
C36   C40   1.523619 S    
O43   Cr11  2.058365 S    
C44   C60   1.441918 A    
O37   Cr5   1.945682 S    
C95   C97   1.394845 A    
O21   Cr9   1.941717 S    
C107  C111  1.415842 A    
O39   Cr7   1.945682 S    
C93   C99   1.385068 A    
O45   Cr9   1.952281 S    
C143  H67   1.075967 S    
C13   O33   1.289263 A    
O13   Cr5   1.952977 S    
O15   Cr7   1.952977 S    
C31   C35   1.549776 S    
C22   C138  1.491235 S    
C111  C139  1.439373 A    
C130  H58   1.076260 S    
C141  O61   1.211991 D    
C106  C122  1.414066 A    
C94   H34   1.071500 S    
C69   H23   1.080380 S    
C70   H24   1.079947 S    
C127  C131  1.382792 A    
C27   C36   1.514040 S    
C48   C64   1.423918 A    
C66   H18   1.079147 S    
C129  C133  1.384834 A    
O1    Cr1   2.079766 S    
O19   Cr11  2.071065 S    
C91   C92   1.385488 A    
C37   C38   1.522104 S    
C114  C138  1.408878 A    
C89   C90   1.379096 A    
O45   C21   1.295427 A    
O47   C23   1.326426 A    
C109  C133  1.416261 A    
C104  C120  1.405789 A    
O40   C20   1.317230 A    
C127  H55   1.082789 S    
C6    O18   1.290832 A    
C62   C68   1.386748 A    
C25   C26   1.563392 S    
O36   Cr8   2.073489 S    
C69   C73   1.376015 A    
O38   Cr6   1.947295 S    
O13   C5    1.288238 A    
C103  C107  1.411577 A    
C65   H17   1.078677 S    
C63   C65   1.386554 A    
C28   C32   1.547348 S    
O1    C9    1.268305 A    
H11   C55   1.083545 S    
O7    C3    1.315455 A    
C112  C136  1.416165 A    
H9    C53   1.084095 S    
C107  C123  1.414391 A    
C110  C138  1.437290 A    
N3    O58   1.300488 A    
C95   H35   1.077907 S    
C55   C59   1.380805 A    
C114  C118  1.398321 A    
O23   Cr11  1.941717 S    
C41   C45   1.451865 A    
C29   C33   1.540727 S    
C82   C89   1.391322 A    
C104  C108  1.443834 A    
C7    O19   1.260866 A    
Cr4   O52   1.972791 S    
C144  O64   1.210975 D    
O2    Cr2   2.078230 S    
C94   C100  1.394779 A    
Cr6   O50   2.002845 S    
C134  H62   1.069602 S    
C61   C67   1.386887 A    
C103  C119  1.388491 A    
C25   C29   1.540461 S    
C49   C77   1.395588 A    
C14   O34   1.264857 A    
C83   C87   1.440959 A    
O9    Cr5   2.068277 S    
C66   C72   1.379425 A    
C105  C109  1.414786 A    
C125  H53   1.080355 S    
C141  H65   1.074354 S    
C102  C106  1.409716 A    
H31   C91   1.083378 S    
C128  C132  1.383057 A    
C136  H64   1.083178 S    
C46   C50   1.421145 A    
C28   C35   1.514222 S    
Cr2   O50   1.972791 S    
O14   Cr6   1.953397 S    
C39   N3    1.448998 S    
O8    Cr4   1.966939 S    
N4    O60   1.300517 A    
C59   C143  1.510582 S    
C34   C38   1.532817 S    
C67   C69   1.379723 A    
O25   Cr1   2.085242 S    
C30   C34   1.549384 S    
C87   C95   1.423427 A    
C130  C134  1.393643 A    
H30   C90   1.083929 S    
C113  C137  1.391331 A    
C57   C141  1.510693 S    
H41   C113  1.080781 S    
C108  C124  1.429052 A    
C111  C135  1.421994 A    
C18   C81   1.446882 S    
O23   C11   1.276708 A    
O10   Cr6   2.070114 S    
O4    Cr4   2.078230 S    
C118  H50   1.078150 S    
C27   C31   1.547300 S    
C15   C102  1.485611 S    
C32   C36   1.549705 S    
C122  H46   1.083347 S    
C108  C112  1.412351 A    
C44   C48   1.451370 A    
