data_mof_unit_116.cif
_audit_creation_date              2012-12-10T17:11:11-0500
_audit_creation_method            fapswitch 2.2
_symmetry_space_group_name_H-M    P1
_symmetry_Int_Tables_number       1
_space_group_crystal_system       triclinic
_cell_length_a                    9.99493
_cell_length_b                    10.614334
_cell_length_c                    16.608781
_cell_angle_alpha                 90.172099
_cell_angle_beta                  86.573188
_cell_angle_gamma                 90.934677
_cell_volume                      1758.62948206

loop_
_atom_site_label
_atom_site_type_symbol
_atom_type_description
_atom_site_fract_x
_atom_site_fract_y
_atom_site_fract_z
_atom_type_partial_charge
C1    C     C_R   0.502278 0.736473 0.488940 0.869224
C2    C     C_R   0.523181 0.546896 0.263148 -0.143655
C3    C     C_2   0.398072 0.066780 0.463968 -0.184551
C4    C     C_R   0.483339 0.503459 0.653655 0.933177
C5    C     C_2   0.493724 0.127665 0.502078 -0.355954
C6    C     C_2   0.395265 0.930862 0.463981 -0.204536
C7    C     C_2   0.508319 0.863793 0.457690 -0.047252
C8    C     C_2   0.080653 0.575823 0.457896 -0.140361
C9    C     C_2   0.930188 0.580642 0.461918 -0.142541
C10   C     C_R   0.498482 0.261643 0.501405 0.966559
C11   C     C_R   0.516922 0.505520 0.346650 0.896891
C12   C     C_R   0.419217 0.634400 0.775302 0.022985
C13   C     C_R   0.483808 0.527409 0.740367 -0.186315
C14   C     C_R   0.584851 0.466938 0.781170 0.514570
C15   C     C_R   0.626315 0.517843 0.853467 -0.280995
C16   C     C_R   0.572033 0.629719 0.883548 0.061559
C17   C     C_R   0.466862 0.685602 0.845883 -0.227734
C18   C     C_3   0.778744 0.362526 0.741448 -0.295262
C19   C     C_3   0.638640 0.911358 0.413986 -0.398992
C20   C     C_3   0.672536 0.834374 0.337256 -0.355178
C21   C     C_3   0.800470 0.883354 0.292365 -0.903168
C22   C     C_3   0.850980 0.493528 0.231047 -0.294641
C23   C     C_R   0.428764 0.677612 0.162634 -0.178647
C24   C     C_3   0.302492 0.699403 0.739861 -0.403756
C25   C     C_3   0.348224 0.821510 0.696760 -0.308438
C26   C     C_3   0.230303 0.887172 0.661598 -0.882881
C27   C     C_3   0.753666 0.705895 0.977654 -0.411670
C28   C     C_3   0.808601 0.809187 0.919702 -0.323967
C29   C     C_3   0.954748 0.841520 0.933768 -0.904363
C30   C     C_R   0.424558 0.630002 0.240123 -0.299204
C31   C     C_R   0.630141 0.515222 0.208645 0.517443
C32   C     C_R   0.629161 0.558038 0.129080 -0.264781
C33   C     C_R   0.529829 0.641129 0.106422 0.121565
C34   C     C_2   0.608422 0.673685 0.963072 0.103133
C35   C     C_2   0.510054 0.666629 0.021641 -0.238688
H1    H     H_    0.701407 0.520446 0.084673 0.146362
H2    H     H_    0.406876 0.654558 0.004947 0.144061
H3    H     H_    0.420503 0.768762 0.872558 0.148072
H4    H     H_    0.349514 0.738757 0.145449 0.143431
H5    H     H_    0.699154 0.469152 0.887084 0.143936
H6    H     H_    0.823075 0.341818 0.799594 0.155238
H7    H     H_    0.816140 0.455342 0.717341 0.157128
H8    H     H_    0.814068 0.289498 0.697600 0.183549
H9    H     H_    0.788872 0.982994 0.274128 0.278714
H10   H     H_    0.886702 0.876513 0.331254 0.253939
H11   H     H_    0.821485 0.825770 0.237242 0.245170
H12   H     H_    0.316649 0.116102 0.437898 0.178770
H13   H     H_    0.687220 0.734356 0.352607 0.232942
H14   H     H_    0.588522 0.839683 0.296541 0.236718
H15   H     H_    0.632234 0.010706 0.394434 0.236844
H16   H     H_    0.721617 0.905681 0.455454 0.199658
H17   H     H_    0.923751 0.429104 0.256526 0.198924
H18   H     H_    0.846326 0.579255 0.269896 0.158037
H19   H     H_    0.889743 0.518214 0.168854 0.145276
H20   H     H_    0.183920 0.825354 0.616539 0.264993
H21   H     H_    0.153630 0.910789 0.710253 0.256357
H22   H     H_    0.265927 0.975843 0.631542 0.258699
H23   H     H_    0.572273 0.078494 0.531115 0.156381
H24   H     H_    0.394664 0.886771 0.739931 0.218902
H25   H     H_    0.424534 0.800205 0.647562 0.221157
H26   H     H_    0.248571 0.637177 0.698791 0.228840
H27   H     H_    0.227161 0.722088 0.789637 0.191397
H28   H     H_    0.964222 0.876577 0.996290 0.264505
H29   H     H_    0.017950 0.757115 0.923718 0.255694
H30   H     H_    0.991712 0.916192 0.890935 0.251344
H31   H     H_    0.802347 0.777151 0.856218 0.224239
H32   H     H_    0.747770 0.895447 0.928624 0.227572
H33   H     H_    0.763354 0.740230 0.040362 0.210480
H34   H     H_    0.299092 0.887399 0.482072 0.166308
H35   H     H_    0.815170 0.620167 0.968733 0.184737
H36   H     H_    0.135563 0.643216 0.419043 0.150563
H37   H     H_    0.097269 0.439862 0.539744 0.157553
H38   H     H_    0.884887 0.656955 0.430517 0.156343
H39   H     H_    0.893905 0.422234 0.525160 0.160109
H40   H     H_    0.344173 0.659232 0.282418 0.173845
N1    N     N_2   0.147950 0.498670 0.499150 -0.189705
N2    N     N_2   0.852290 0.498640 0.499130 -0.187878
O1    O     O_R   0.386960 0.680940 0.500010 -0.624174
O2    O     O_3   0.725415 0.430855 0.230800 -0.602070
O3    O     O_R   0.613100 0.680900 0.499990 -0.623627
O4    O     O_R   0.373570 0.500040 0.615810 -0.627074
O5    O     O_R   0.599710 0.500000 0.615790 -0.586539
O6    O     O_R   0.386900 0.319100 0.500010 -0.608764
O7    O     O_R   0.613040 0.319060 0.499990 -0.604369
O8    O     O_R   0.400290 0.500000 0.384210 -0.619330
O9    O     O_R   0.626430 0.499960 0.384190 -0.586822
O10   O     O_3   0.637325 0.355156 0.750001 -0.610036
Zn1   Zn    Zn3+2 0.349000 0.500030 0.500020 0.924058
Zn2   Zn    Zn3+2 0.651000 0.499970 0.499980 0.949963

loop_
_geom_bond_atom_site_label_1
_geom_bond_atom_site_label_2
_ccdc_geom_bond_type
C6    H34   S    
C29   H28   S    
C24   H26   S    
C19   C20   S    
H37   N1    S    
C3    C6    S    
C26   H20   S    
C22   H19   S    
N2    Zn2   S    
C4    C13   S    
O5    Zn2   S    
C5    H23   S    
C32   H1    S    
C28   C29   S    
C35   H2    S    
C22   O2    S    
C18   H7    S    
C11   O9    A    
C15   C16   A    
C10   O6    A    
C8    N1    D    
C34   C35   D    
C10   O7    A    
O3    Zn2   S    
C27   H33   S    
C16   C34   S    
C4    O4    A    
C8    C9    S    
C23   C33   A    
H39   N2    S    
C12   C17   A    
C25   H25   S    
N1    Zn1   S    
O6    Zn1   S    
C29   H29   S    
C13   C14   A    
C1    O1    A    
C9    H38   S    
C2    C11   S    
C22   H18   S    
C21   H10   S    
C27   C34   S    
C23   C30   A    
C28   H32   S    
C24   C25   S    
C18   H6    S    
C16   C17   A    
C25   C26   S    
C2    C31   A    
C28   H31   S    
C20   H14   S    
C21   H9    S    
C31   C32   A    
C9    N2    D    
C12   C13   A    
C20   H13   S    
C27   H35   S    
C29   H30   S    
C7    C19   S    
O7    Zn2   S    
C22   H17   S    
C21   H11   S    
O8    Zn1   S    
O1    Zn1   S    
C8    H36   S    
C24   H27   S    
C1    C7    S    
C3    C5    D    
O9    Zn2   S    
C26   H21   S    
C14   O10   S    
C31   O2    S    
C6    C7    D    
C12   C24   S    
C18   O10   S    
C2    C30   A    
C32   C33   A    
C5    C10   S    
C18   H8    S    
C30   H40   S    
C19   H15   S    
C11   O8    A    
C23   H4    S    
C3    H12   S    
C33   C35   S    
C17   H3    S    
C26   H22   S    
C15   H5    S    
O4    Zn1   S    
C19   H16   S    
C4    O5    A    
C20   C21   S    
C27   C28   S    
C1    O3    A    
C14   C15   A    
C25   H24   S    
