data_mof_unit_3865.cif
_audit_creation_date              2012-12-10T19:45:46-0500
_audit_creation_method            fapswitch 2.2
_symmetry_space_group_name_H-M    P1
_symmetry_Int_Tables_number       1
_space_group_crystal_system       triclinic
_cell_length_a                    10.787761
_cell_length_b                    14.741675
_cell_length_c                    14.785617
_cell_angle_alpha                 64.69387
_cell_angle_beta                  103.647798
_cell_angle_gamma                 101.744359
_cell_volume                      2051.52835266

loop_
_atom_site_label
_atom_site_type_symbol
_atom_type_description
_atom_site_fract_x
_atom_site_fract_y
_atom_site_fract_z
_atom_type_partial_charge
C1    C     C_R   0.476228 0.119706 0.312499 0.786694
C2    C     C_R   0.654102 0.777112 0.967497 -0.202127
C3    C     C_R   0.401290 0.152814 0.128787 -0.203264
C4    C     C_R   0.622000 0.845949 0.868094 -0.217092
C5    C     C_R   0.506479 0.290072 0.178274 -0.266297
C6    C     C_R   0.508968 0.708744 0.821150 -0.250903
C7    C     C_R   0.496268 0.359092 0.076576 0.090334
C8    C     C_R   0.546587 0.637264 0.919139 0.088898
C9    C     C_R   0.435082 0.322457 0.000607 0.164899
C10   C     C_R   0.617374 0.673263 0.993469 0.170793
C11   C     C_R   0.541442 0.463695 0.048714 0.066304
C12   C     C_R   0.523958 0.880298 0.687388 0.790385
C13   C     C_R   0.514143 0.531516 0.945387 0.061780
C14   C     C_R   0.457936 0.491252 0.871514 -0.217366
C15   C     C_R   0.613785 0.502712 0.120361 -0.220366
C16   C     C_R   0.263708 0.999109 0.503147 0.788795
C17   C     C_R   0.736540 0.001475 0.496209 0.791156
C18   C     C_R   0.419804 0.388620 0.898925 -0.226735
C19   C     C_R   0.651529 0.605400 0.092758 -0.231087
C20   C     C_R   0.747885 0.294467 0.642395 -0.333222
C21   C     C_R   0.233011 0.675409 0.428143 -0.326445
C22   C     C_R   0.701496 0.210342 0.619010 0.040953
C23   C     C_R   0.870599 0.002043 0.494748 -0.081328
C24   C     C_R   0.286980 0.773567 0.412791 0.050744
C25   C     C_R   0.504258 0.278981 0.529933 0.313909
C26   C     C_R   0.496911 0.723055 0.468279 0.302725
C27   C     C_R   0.543171 0.361819 0.561394 -0.020805
C28   C     C_R   0.446026 0.618782 0.494509 -0.015967
C29   C     C_R   0.670996 0.371930 0.610875 0.129492
C30   C     C_R   0.310924 0.597415 0.472296 0.135159
C31   C     C_R   0.464062 0.438790 0.539885 0.081874
C32   C     C_R   0.521949 0.535257 0.538592 0.070459
C33   C     C_R   0.649312 0.541077 0.589896 -0.232347
C34   C     C_R   0.130442 0.999737 0.504300 -0.077563
C35   C     C_R   0.329313 0.420109 0.528937 -0.244897
C36   C     C_R   0.721065 0.459730 0.627936 -0.194142
C37   C     C_R   0.254092 0.498124 0.494378 -0.202776
C38   C     C_R   0.346785 0.982869 0.812314 -0.118252
C39   C     C_R   0.691399 0.076377 0.163973 -0.130763
C40   C     C_R   0.261775 0.964632 0.732786 -0.103777
C41   C     C_R   0.756734 0.069510 0.259988 -0.120849
C42   C     C_R   0.182990 0.038016 0.662118 0.123034
C43   C     C_R   0.825826 0.987209 0.323483 0.112173
C44   C     C_R   0.189385 0.129054 0.673076 -0.170489
C45   C     C_R   0.910834 0.987197 0.418293 0.009298
C46   C     C_R   0.828875 0.912546 0.288700 -0.182517
C47   C     C_R   0.275865 0.147550 0.751815 -0.139867
C48   C     C_R   0.759802 0.918095 0.194118 -0.139273
C49   C     C_R   0.354605 0.074512 0.821366 -0.114429
C50   C     C_R   0.691283 0.000132 0.131627 -0.113910
C51   C     C_R   0.961039 0.019238 0.572774 -0.231069
C52   C     C_R   0.040724 0.983655 0.426045 -0.229123
C53   C     C_3   0.629340 0.758848 0.442372 -0.820501
C54   C     C_3   0.383520 0.280783 0.452301 -0.797545
C55   C     C_R   0.091463 0.019258 0.578103 -0.004843
C56   C     C_R   0.460898 0.187823 0.204716 -0.057333
C57   C     C_R   0.549516 0.811746 0.794477 -0.057876
C58   C     C_R   0.388900 0.219776 0.027199 -0.220133
Cu1   Cu    Cu3+1 0.466270 0.918260 0.475690 0.937743
Cu2   Cu    Cu3+1 0.533730 0.081740 0.524310 0.937439
H1    H     H_    0.421034 0.088610 0.882656 0.115060
H2    H     H_    0.761623 0.150652 0.645096 0.134908
H3    H     H_    0.844389 0.299386 0.684161 0.143521
H4    H     H_    0.129752 0.660027 0.409087 0.140028
H5    H     H_    0.692555 0.605736 0.606999 0.157716
H6    H     H_    0.280422 0.344574 0.549575 0.155132
H7    H     H_    0.406212 0.925799 0.867269 0.133648
H8    H     H_    0.643214 0.141972 0.113599 0.149549
H9    H     H_    0.256651 0.893263 0.726687 0.099076
H10   H     H_    0.757932 0.130373 0.282903 0.109133
H11   H     H_    0.128387 0.186050 0.619923 0.116769
H12   H     H_    0.639871 0.005478 0.057506 0.118317
H13   H     H_    0.883974 0.849610 0.335313 0.128853
H14   H     H_    0.281494 0.218346 0.759099 0.120313
H15   H     H_    0.761142 0.859557 0.168735 0.119831
H16   H     H_    0.929601 0.031277 0.630906 0.143572
H17   H     H_    0.073492 0.973981 0.367054 0.141932
H18   H     H_    0.376216 0.361105 0.839989 0.140992
H19   H     H_    0.707126 0.631934 0.149963 0.138844
H20   H     H_    0.446753 0.686283 0.763881 0.153076
H21   H     H_    0.547181 0.314372 0.239047 0.157340
H22   H     H_    0.654784 0.925468 0.848711 0.153807
H23   H     H_    0.342413 0.191438 0.969376 0.132863
H24   H     H_    0.364799 0.073922 0.147822 0.160719
H25   H     H_    0.699671 0.767502 0.506984 0.231829
H26   H     H_    0.661373 0.707363 0.417660 0.203001
H27   H     H_    0.625874 0.832077 0.376045 0.265181
H28   H     H_    0.300148 0.237388 0.489926 0.224720
H29   H     H_    0.363474 0.359162 0.401601 0.199158
H30   H     H_    0.390509 0.251056 0.398245 0.262817
H31   H     H_    0.709508 0.804883 0.023740 0.125009
H32   H     H_    0.444689 0.536749 0.791113 0.149668
H33   H     H_    0.646399 0.455892 0.198406 0.144001
H34   H     H_    0.818084 0.466973 0.668100 0.143063
H35   H     H_    0.150448 0.480715 0.483312 0.141952
H36   H     H_    0.223811 0.831540 0.383559 0.136841
N1    N     N_R   0.584450 0.204570 0.560790 -0.171293
N2    N     N_R   0.415550 0.795430 0.439210 -0.181098
O1    O     O_R   0.455540 0.022090 0.338120 -0.575370
O2    O     O_R   0.544460 0.977910 0.661880 -0.577969
O3    O     O_R   0.512510 0.160150 0.379180 -0.598535
O4    O     O_R   0.487490 0.839850 0.620820 -0.576742
O5    O     O_R   0.291160 0.930970 0.479480 -0.600732
O6    O     O_R   0.708840 0.069030 0.520520 -0.594320
O7    O     O_R   0.348130 0.069020 0.520540 -0.569247
O8    O     O_R   0.651870 0.930980 0.479460 -0.574692

loop_
_geom_bond_atom_site_label_1
_geom_bond_atom_site_label_2
_ccdc_geom_bond_type
C38   C40   A    
C8    C13   A    
C23   C45   A    
C27   C29   A    
Cu1   O1    S    
C39   H8    S    
C14   C18   A    
C5    C56   A    
C48   H15   S    
C1    O1    A    
C33   H5    S    
C39   C41   A    
C38   C49   A    
C7    C11   A    
C29   C36   A    
C17   C23   S    
C24   N2    A    
C35   C37   A    
C17   O6    A    
C54   H30   S    
C24   H36   S    
C33   C36   A    
C37   H35   S    
C44   H11   S    
C9    C58   A    
C50   H12   S    
C21   H4    S    
C16   C34   S    
C15   C19   A    
C6    H20   S    
C4    C57   A    
C53   H26   S    
C44   C47   A    
C40   C42   A    
Cu1   Cu2   S    
C22   N1    A    
C13   C14   A    
C41   C43   A    
C6    C57   A    
C42   C44   A    
C20   C29   A    
C46   C48   A    
Cu1   O8    S    
C49   H1    S    
C40   H9    S    
C27   C31   A    
C28   C32   A    
C51   H16   S    
C54   H29   S    
C47   C49   A    
Cu2   N1    S    
C5    C7    A    
C6    C8    A    
C35   H6    S    
C30   C37   A    
C2    C4    A    
C12   O4    A    
C42   C55   S    
C22   H2    S    
C5    H21   S    
C3    C56   A    
C16   O5    A    
C23   C51   A    
C31   C32   A    
C10   C19   A    
C18   H18   S    
C53   H27   S    
C25   C54   S    
C19   H19   S    
C43   C45   S    
C14   H32   S    
C16   O7    A    
C26   N2    A    
C12   C57   S    
C25   N1    A    
C20   C22   A    
C11   C15   A    
C31   C35   A    
Cu2   O3    S    
C2    C10   A    
C26   C53   S    
C1    O3    A    
C7    C9    A    
Cu1   O4    S    
C26   C28   A    
C1    C56   S    
C47   H14   S    
Cu2   O2    S    
C15   H33   S    
C25   C27   A    
C21   C30   A    
C34   C52   A    
C45   C52   A    
Cu1   O5    S    
C32   C33   A    
C20   H3    S    
C28   C30   A    
Cu2   O6    S    
C17   O8    A    
C54   H28   S    
C11   C13   A    
C48   C50   A    
C51   C55   A    
C2    H31   S    
C43   C46   A    
C12   O2    A    
C3    C58   A    
C36   H34   S    
C9    C18   A    
C34   C55   A    
C39   C50   A    
C4    H22   S    
C38   H7    S    
C8    C10   A    
C21   C24   A    
C3    H24   S    
Cu1   N2    S    
C53   H25   S    
C58   H23   S    
C46   H13   S    
Cu2   O7    S    
C52   H17   S    
C41   H10   S    
