data_mof_unit_4934.cif
_audit_creation_date              2012-12-11T15:21:31-0500
_audit_creation_method            fapswitch 2.2
_symmetry_space_group_name_H-M    P1
_symmetry_Int_Tables_number       1
_space_group_crystal_system       triclinic
_cell_length_a                    8.266953
_cell_length_b                    12.619639
_cell_length_c                    18.987343
_cell_angle_alpha                 94.392978
_cell_angle_beta                  94.046125
_cell_angle_gamma                 98.031038
_cell_volume                      1949.04737915

loop_
_atom_site_label
_atom_site_type_symbol
_atom_type_description
_atom_site_fract_x
_atom_site_fract_y
_atom_site_fract_z
_atom_type_partial_charge
Ba1   Ba    Ba6+2 0.160910 0.552960 0.466220 1.632440
Ba2   Ba    Ba6+2 0.649260 0.447030 0.533730 1.628595
C1    C     C_3   0.405079 0.794041 0.196079 -0.415412
C2    C     C_3   0.401730 0.769492 0.273480 0.351240
C3    C     C_3   0.563422 0.775440 0.635073 0.269141
C4    C     C_3   0.533437 0.891550 0.640482 -0.320168
C5    C     C_3   0.873532 0.154281 0.687651 0.332871
C6    C     C_3   0.895215 0.047717 0.716739 -0.361851
C7    C     C_3   0.400541 0.216922 0.730052 0.318864
C8    C     C_3   0.464352 0.197280 0.804748 -0.031825
C9    C     C_R   0.074396 0.184059 0.527322 -0.290615
C10   C     C_R   0.730042 0.815907 0.475711 -0.281093
C11   C     C_R   0.699245 0.997564 0.451896 -0.094460
C12   C     C_3   0.991610 0.850659 0.270554 0.357630
C13   C     C_R   0.635561 0.888437 0.447776 0.008451
C14   C     C_R   0.884471 0.850428 0.511263 0.055534
C15   C     C_R   0.948478 0.962771 0.517574 -0.057707
C16   C     C_R   0.855461 0.037412 0.486170 -0.060013
C17   C     C_R   0.921257 0.149546 0.490986 0.055497
C18   C     C_R   0.167119 0.111787 0.556424 -0.006563
C19   C     C_R   0.103091 0.002779 0.553358 -0.088903
C20   C     C_R   0.613127 0.544805 0.298588 -0.283436
C21   C     C_R   0.459319 0.487796 0.276466 0.058716
C22   C     C_R   0.404041 0.475766 0.204366 -0.131240
C23   C     C_3   0.072889 0.934904 0.224635 -0.332567
C24   C     C_R   0.505049 0.519052 0.153658 -0.019007
C25   C     C_R   0.663466 0.572535 0.176866 -0.138869
C26   C     C_R   0.716482 0.584933 0.249103 0.024199
C27   C     C_R   0.487400 0.591204 0.033991 -0.074552
C28   C     C_R   0.433863 0.580544 0.962009 -0.071152
C29   C     C_R   0.339858 0.484924 0.930594 0.052189
C30   C     C_R   0.298808 0.400691 0.973435 -0.070829
C31   C     C_R   0.351928 0.411527 0.045696 -0.066313
C32   C     C_R   0.447294 0.506938 0.076889 0.059699
C33   C     C_R   0.128904 0.421622 0.827615 -0.112973
C34   C     C_3   0.756714 0.316762 0.321423 0.306867
C35   C     C_R   0.079751 0.414757 0.754919 0.028524
C36   C     C_R   0.342159 0.510490 0.732617 0.038116
C37   C     C_R   0.392796 0.518196 0.804846 -0.122745
C38   C     C_R   0.287061 0.473289 0.853368 -0.009996
C39   C     C_R   0.188731 0.455529 0.707716 -0.291493
C40   C     C_3   0.728028 0.287842 0.241877 -0.391555
C41   C     C_3   0.047836 0.681777 0.678771 0.297042
C42   C     C_3   0.073074 0.710023 0.758509 -0.371847
C43   C     C_3   0.259488 0.225522 0.382168 0.282258
C44   C     C_3   0.322201 0.118424 0.376958 -0.341213
H1    H     H_    0.297044 0.706185 0.278251 0.114895
H2    H     H_    0.625442 0.220964 0.230210 0.122095
H3    H     H_    0.697601 0.357498 0.214507 0.074545
H4    H     H_    0.840102 0.263054 0.221143 0.130088
H5    H     H_    0.160858 0.657411 0.659409 0.019781
H6    H     H_    0.945393 0.614571 0.667551 0.065236
H7    H     H_    0.175320 0.776690 0.771216 0.156548
H8    H     H_    0.101865 0.640299 0.786037 0.056400
H9    H     H_    0.960153 0.734630 0.778297 0.127880
H10   H     H_    0.124378 0.211282 0.382013 0.000226
H11   H     H_    0.313166 0.269377 0.433215 0.061815
H12   H     H_    0.279345 0.779545 0.169055 0.147221
H13   H     H_    0.255328 0.064970 0.332564 0.111226
H14   H     H_    0.307700 0.080008 0.427014 0.104185
H15   H     H_    0.453229 0.131711 0.366579 0.132227
H16   H     H_    0.514690 0.736719 0.288573 -0.037003
H17   H     H_    0.478583 0.740256 0.167608 0.077586
H18   H     H_    0.697203 0.773104 0.640010 0.025843
H19   H     H_    0.510114 0.738829 0.581870 0.047322
H20   H     H_    0.568384 0.929201 0.695079 0.143361
H21   H     H_    0.605344 0.936882 0.602544 0.070043
H22   H     H_    0.401510 0.894768 0.628196 0.134848
H23   H     H_    0.460970 0.878756 0.191820 0.130996
H24   H     H_    0.016979 0.920437 0.169334 0.121959
H25   H     H_    0.777009 0.139745 0.642855 0.086405
H26   H     H_    0.992381 0.186995 0.667949 -0.047454
H27   H     H_    0.890116 0.984185 0.672609 0.070431
H28   H     H_    0.016012 0.054932 0.746917 0.163485
H29   H     H_    0.798894 0.024087 0.752704 0.141830
H30   H     H_    0.270215 0.229626 0.729603 -0.020671
H31   H     H_    0.475238 0.291478 0.716553 0.077805
H32   H     H_    0.502692 0.275826 0.836989 0.066303
H33   H     H_    0.054431 0.864405 0.324747 0.082676
H34   H     H_    0.572515 0.153796 0.802418 0.153404
H35   H     H_    0.625345 0.049945 0.427693 0.097142
H36   H     H_    0.176225 0.950424 0.578666 0.103138
H37   H     H_    0.125271 0.268216 0.530654 0.067160
H38   H     H_    0.680199 0.731512 0.471735 0.070875
H39   H     H_    0.513454 0.560404 0.822952 0.079164
H40   H     H_    0.464770 0.648027 0.931088 0.072966
H41   H     H_    0.558819 0.666264 0.056171 0.065143
H42   H     H_    0.283285 0.432164 0.188106 0.089929
H43   H     H_    0.228163 0.325593 0.950810 0.111303
H44   H     H_    0.320985 0.344280 0.076807 0.073281
H45   H     H_    0.042840 0.389739 0.863823 0.083821
H46   H     H_    0.747091 0.601943 0.138989 0.084770
H47   H     H_    0.150087 0.450543 0.651744 0.064118
H48   H     H_    0.656665 0.552126 0.354100 0.069194
H49   H     H_    0.062153 0.017658 0.244726 0.079053
H50   H     H_    0.205512 0.932723 0.224272 0.141321
H51   H     H_    0.642966 0.338907 0.341614 0.009229
H52   H     H_    0.856955 0.385608 0.331699 0.078375
O1    O     O_2   0.160820 0.763040 0.533820 -0.462088
O2    O     O_3   0.301534 0.277693 0.322150 -0.631884
O3    O     O_3   0.015388 0.749802 0.238658 -0.613750
O4    O     O_2   0.649470 0.236890 0.466160 -0.473558
O5    O     O_3   0.919320 0.371390 0.464540 -0.489449
O6    O     O_3   0.424350 0.301430 0.591880 -0.484243
O7    O     O_3   0.798868 0.227029 0.353075 -0.647458
O8    O     O_3   0.382770 0.553920 0.582990 -0.476187
O9    O     O_3   0.848220 0.355290 0.626830 -0.483421
O10   O     O_2   0.740984 0.416797 0.751216 -0.500737
O11   O     O_3   0.825305 0.223714 0.741196 -0.600881
O12   O     O_3   0.890970 0.628600 0.535400 -0.490936
O13   O     O_3   0.427530 0.446070 0.416950 -0.493323
O14   O     O_2   0.637430 0.550200 0.669460 -0.463515
O15   O     O_3   0.491834 0.724789 0.690942 -0.635662
O16   O     O_2   0.503340 0.111787 0.552228 -0.495617
O17   O     O_3   0.418344 0.129328 0.682151 -0.602526
O18   O     O_3   0.385950 0.698560 0.408070 -0.487429
O19   O     O_2   0.292385 0.883988 0.445554 -0.488496
O20   O     O_3   0.012368 0.772841 0.646919 -0.641526
O21   O     O_3   0.389345 0.862794 0.317423 -0.629817
O22   O     O_2   0.172860 0.449730 0.330520 -0.450738
O23   O     O_3   0.962080 0.644700 0.373110 -0.482754
O24   O     O_2   0.026200 0.550309 0.250630 -0.480071
P1    P     P_3+3 0.986780 0.745970 0.554690 0.974078
P2    P     P_3+3 0.341450 0.417130 0.341310 0.984302
P3    P     P_3+3 0.928920 0.637210 0.279917 0.927204
P4    P     P_3+3 0.823520 0.254020 0.445250 0.965567
P5    P     P_3+3 0.872280 0.355851 0.719172 0.952065
P6    P     P_3+3 0.426995 0.836883 0.406092 0.931970
P7    P     P_3+3 0.463091 0.585556 0.670962 0.950827
P8    P     P_3+3 0.377260 0.162584 0.595150 0.935736
I1    I     I_    0.283454 0.104119 0.859129 -0.519065
C45   C     C_3   0.808536 0.860618 0.273734 -0.221956
C46   C     C_3   0.772175 0.976308 0.285237 -0.438150
H53   H     H_    0.856273 0.021437 0.328844 0.133929
H54   H     H_    0.644823 0.977240 0.298908 0.160529
H55   H     H_    0.784433 0.017817 0.236014 0.141286
H56   H     H_    0.740273 0.822254 0.223783 0.109356
H57   H     H_    0.765204 0.817223 0.318928 0.045386

loop_
_geom_bond_atom_site_label_1
_geom_bond_atom_site_label_2
_ccdc_geom_bond_type
O8    P7    S    
C2    H16   S    
C44   H13   S    
O16   P8    D    
C34   C40   S    
Ba1   O1    S    
C8    H32   S    
C5    C6    S    
C12   C45   S    
C43   C44   S    
C43   H11   S    
C24   C25   A    
O15   P7    S    
C11   C16   A    
C1    H23   S    
C14   P1    S    
C22   C24   A    
C16   C17   A    
C5    H25   S    
C3    C4    S    
O12   P1    S    
C41   H6    S    
Ba2   O4    S    
C45   H57   S    
C11   H35   S    
Ba2   O9    S    
C29   C38   S    
C10   H38   S    
Ba1   Ba2   S    
O5    P4    S    
C8    I1    S    
C42   H7    S    
C24   C32   S    
C39   H47   S    
C10   C14   A    
C43   H10   S    
C14   C15   A    
C46   H55   S    
O3    P3    S    
C21   C22   A    
C2    O21   S    
C34   H51   S    
C7    H30   S    
O14   P7    D    
C28   H40   S    
C7    C8    S    
Ba1   O5    S    
Ba1   O8    S    
C3    O15   S    
O21   P6    S    
C4    H22   S    
C34   O7    S    
C12   C23   S    
C20   C26   A    
Ba2   O14   S    
C20   H48   S    
O11   P5    S    
C31   C32   A    
C36   C37   A    
C9    C18   A    
Ba2   O13   S    
C44   H15   S    
C7    O17   S    
C36   P7    S    
C36   C39   A    
C3    H19   S    
C37   C38   A    
C8    H34   S    
C45   C46   S    
C12   O3    S    
C40   H2    S    
C41   O20   S    
C9    H37   S    
C45   H56   S    
C27   C32   A    
Ba2   O8    S    
C6    H29   S    
C15   C19   A    
C5    O11   S    
C3    H18   S    
O2    P2    S    
Ba1   O22   S    
C41   C42   S    
Ba1   P1    S    
O23   P3    S    
C27   C28   A    
Ba1   O12   S    
C30   H43   S    
C10   C13   A    
Ba2   O6    S    
C9    C17   A    
C6    H28   S    
C15   C16   A    
C25   H46   S    
C7    H31   S    
C12   H33   S    
C19   H36   S    
C22   H42   S    
C40   H4    S    
O7    P4    S    
C4    H21   S    
Ba1   O18   S    
C23   H49   S    
C13   P6    S    
C11   C13   A    
C46   H53   S    
C37   H39   S    
C1    C2    S    
Ba2   P4    S    
C5    H26   S    
C26   P3    S    
C33   C35   A    
O1    P1    D    
Ba2   O12   S    
C44   H14   S    
O13   P2    S    
C29   C30   A    
C18   P8    S    
O4    P4    D    
C43   O2    S    
C34   H52   S    
C21   P2    S    
C1    H17   S    
C17   P4    S    
C30   C31   A    
O24   P3    D    
C33   C38   A    
Ba1   P2    S    
O9    P5    S    
C31   H44   S    
Ba1   O13   S    
C42   H9    S    
C41   H5    S    
C28   C29   A    
Ba2   O5    S    
C6    H27   S    
O20   P1    S    
O10   P5    D    
C35   C39   A    
O19   P6    D    
Ba1   O23   S    
C27   H41   S    
C40   H3    S    
C1    H12   S    
C42   H8    S    
C4    H20   S    
C18   C19   A    
C23   H50   S    
O18   P6    S    
C25   C26   A    
C46   H54   S    
C20   C21   A    
O6    P8    S    
C23   H24   S    
C2    H1    S    
O22   P2    D    
C35   P5    S    
O17   P8    S    
C33   H45   S    
