data_mof_unit_3327.cif
_audit_creation_date              2012-12-10T20:26:30-0500
_audit_creation_method            fapswitch 2.2
_symmetry_space_group_name_H-M    P1
_symmetry_Int_Tables_number       1
_space_group_crystal_system       triclinic
_cell_length_a                    10.746228
_cell_length_b                    10.678813
_cell_length_c                    9.866361
_cell_angle_alpha                 89.912536
_cell_angle_beta                  90.010267
_cell_angle_gamma                 90.080711
_cell_volume                      1132.23112705

loop_
_atom_site_label
_atom_site_type_symbol
_atom_type_description
_atom_site_fract_x
_atom_site_fract_y
_atom_site_fract_z
_atom_type_partial_charge
C1    C     C_R   0.503762 0.259924 0.500093 0.879891
C2    C     C_R   0.563908 0.588090 0.071848 -0.136976
C3    C     C_R   0.563897 0.588118 0.927874 -0.134658
C4    C     C_R   0.262677 0.504430 0.500018 0.937716
C5    C     C_R   0.444720 0.404612 0.928772 0.218432
C6    C     C_3   0.310708 0.368789 0.923288 -0.516588
C7    C     C_3   0.311042 0.368330 0.077050 -0.510499
C8    C     C_R   0.504129 0.740027 0.499915 0.877037
C9    C     C_R   0.737390 0.498787 0.499896 0.926938
C10   C     C_2   0.932564 0.524452 0.388400 -0.159084
C11   C     C_2   0.869112 0.491995 0.499385 -0.327939
C12   C     C_R   0.523749 0.128542 0.500643 -0.104103
C13   C     C_2   0.066527 0.517850 0.386222 -0.157159
C14   C     C_2   0.131543 0.520802 0.501287 -0.341206
C15   C     C_R   0.523431 0.063596 0.623053 0.140782
C16   C     C_R   0.548205 0.064991 0.379184 -0.226412
C17   C     C_R   0.548526 0.935468 0.379104 -0.227751
C18   C     C_R   0.524368 0.871371 0.500477 -0.100600
C19   C     C_R   0.523899 0.935837 0.622995 0.126900
C20   C     C_3   0.435093 0.927965 0.739344 -0.474841
C21   C     C_3   0.434212 0.069865 0.739066 -0.494200
C22   C     C_R   0.444884 0.404498 0.071338 0.217164
H1    H     H_    0.477335 0.111261 0.831148 0.203433
H2    H     H_    0.558793 0.886656 0.283582 0.165562
H3    H     H_    0.344052 0.885930 0.710733 0.205326
H4    H     H_    0.479128 0.887286 0.831366 0.200587
H5    H     H_    0.885815 0.553175 0.295736 0.168191
H6    H     H_    0.613591 0.660575 0.126040 0.140119
H7    H     H_    0.251237 0.443568 0.879106 0.219540
H8    H     H_    0.342746 0.110191 0.709587 0.198886
H9    H     H_    0.613540 0.660648 0.873492 0.145730
H10   H     H_    0.296397 0.274329 0.879169 0.197446
H11   H     H_    0.251831 0.442942 0.121091 0.211785
H12   H     H_    0.297521 0.273582 0.121520 0.202490
H13   H     H_    0.912374 0.457088 0.591150 0.146955
H14   H     H_    0.111335 0.509869 0.288159 0.163262
H15   H     H_    0.089583 0.538617 0.599279 0.147905
H16   H     H_    0.558306 0.114176 0.283684 0.170552
N1    N     N_R   0.499170 0.499140 0.142800 -0.106747
N2    N     N_R   0.499170 0.499180 0.857150 -0.105643
O1    O     O_R   0.500020 0.316790 0.614690 -0.615899
O2    O     O_R   0.500000 0.316760 0.385350 -0.623454
O3    O     O_R   0.319080 0.500020 0.614640 -0.624815
O4    O     O_R   0.319070 0.499980 0.385300 -0.614394
O5    O     O_R   0.500000 0.683240 0.614650 -0.622069
O6    O     O_R   0.499980 0.683210 0.385310 -0.627595
O7    O     O_R   0.680930 0.500020 0.614700 -0.621960
O8    O     O_R   0.680920 0.499980 0.385360 -0.618655
Zn1   Zn    Zn3+2 0.500010 0.500020 0.653130 0.940585
Zn2   Zn    Zn3+2 0.499990 0.499980 0.346870 0.940035

loop_
_geom_bond_atom_site_label_1
_geom_bond_atom_site_label_2
_ccdc_geom_bond_type
C10   H5    S    
C6    H10   S    
C6    C7    S    
C4    O3    A    
C7    C22   S    
C9    C11   S    
C21   H8    S    
O6    Zn2   S    
C19   C20   S    
C12   C15   A    
O5    Zn1   S    
N1    Zn2   S    
O8    Zn2   S    
C2    C3    A    
O7    Zn1   S    
C13   C14   D    
C14   H15   S    
C3    H9    S    
C13   H14   S    
C7    H11   S    
C1    C12   S    
C20   H4    S    
O2    Zn2   S    
C22   N1    A    
C2    N1    A    
C1    O1    A    
C3    N2    A    
C9    O7    A    
C21   H1    S    
C4    C14   S    
C5    C6    S    
C7    H12   S    
C8    O6    A    
C17   H2    S    
C20   H3    S    
O4    Zn2   S    
N2    Zn1   S    
C1    O2    A    
C15   C21   S    
C6    H7    S    
C20   C21   S    
C9    O8    A    
C17   C18   A    
C18   C19   A    
C10   C11   D    
C5    N2    A    
O1    Zn1   S    
C8    O5    A    
O3    Zn1   S    
C2    H6    S    
C4    O4    A    
C15   C19   A    
C11   H13   S    
C8    C18   S    
C5    C22   A    
C12   C16   A    
C16   H16   S    
C16   C17   A    
C10   C13   S    
