data_mof_unit_3421.cif
_audit_creation_date              2012-12-10T17:27:50-0500
_audit_creation_method            fapswitch 2.2
_symmetry_space_group_name_H-M    P1
_symmetry_Int_Tables_number       1
_space_group_crystal_system       triclinic
_cell_length_a                    10.652464
_cell_length_b                    12.05883
_cell_length_c                    12.835295
_cell_angle_alpha                 93.796434
_cell_angle_beta                  92.812365
_cell_angle_gamma                 90.077911
_cell_volume                      1643.15677046

loop_
_atom_site_label
_atom_site_type_symbol
_atom_type_description
_atom_site_fract_x
_atom_site_fract_y
_atom_site_fract_z
_atom_type_partial_charge
Br1   Br    Br    0.316422 0.198714 0.368579 -0.493051
Br2   Br    Br    0.767394 0.566599 0.754849 -0.609352
Br3   Br    Br    0.253680 0.262213 0.649152 -0.497377
C1    C     C_R   0.484482 0.520906 0.698728 0.915592
C2    C     C_R   0.460954 0.637412 0.862302 -0.170344
C3    C     C_R   0.467981 0.435988 0.864058 -0.204655
C4    C     C_R   0.739716 0.504860 0.508405 0.997532
C5    C     C_R   0.477403 0.443481 0.971731 0.052763
C6    C     C_R   0.482253 0.549941 0.024725 0.131630
C7    C     C_R   0.499145 0.558950 0.131566 -0.278064
C8    C     C_R   0.496394 0.357684 0.135909 -0.270378
C9    C     C_R   0.487191 0.346902 0.027315 0.452190
C10   C     C_R   0.364784 0.947267 0.415846 -0.397737
C11   C     C_R   0.381724 0.831953 0.418610 0.544601
C12   C     C_R   0.941861 0.473165 0.605071 -0.058678
C13   C     C_R   0.562778 0.862087 0.534764 0.469974
C14   C     C_R   0.552985 0.978847 0.527319 -0.049484
C15   C     C_R   0.451138 0.021465 0.468614 -0.068802
C16   C     C_R   0.503011 0.477871 0.299616 0.942515
C17   C     C_R   0.440424 0.137724 0.462586 0.447004
C18   C     C_R   0.623064 0.167965 0.574523 -0.029922
C19   C     C_R   0.642228 0.053876 0.576230 -0.288087
C20   C     C_R   0.260620 0.495937 0.505251 0.900210
C21   C     C_R   0.891691 0.467614 0.704860 0.252945
C22   C     C_R   0.953341 0.409645 0.781805 -0.205411
C23   C     C_R   0.873572 0.515731 0.519205 -0.179084
C24   C     C_R   0.065485 0.357493 0.762039 -0.218060
C25   C     C_R   0.123532 0.370207 0.668490 0.274548
C26   C     C_R   0.067067 0.439273 0.591874 -0.004235
C27   C     C_3   0.873692 0.713254 0.363260 0.131895
C28   C     C_3   0.778566 0.762459 0.287172 -0.802197
C29   C     C_3   0.603066 0.202688 0.962779 0.096242
C30   C     C_3   0.597431 0.097745 0.890055 -0.818379
C31   C     C_3   0.285710 0.778312 0.258031 0.076278
C32   C     C_3   0.219945 0.680358 0.197202 -0.806263
C33   C     C_3   0.657658 0.836577 0.696916 0.113832
C34   C     C_R   0.933637 0.552475 0.433696 0.425072
C35   C     C_3   0.789385 0.851071 0.748620 -0.787096
C36   C     C_R   0.061037 0.538182 0.429396 -0.254681
C37   C     C_R   0.127686 0.483946 0.507045 -0.117320
C38   C     C_R   0.501850 0.463729 0.187475 -0.120216
C39   C     C_R   0.467867 0.532493 0.809569 -0.036363
C40   C     C_R   0.469835 0.646249 0.970292 -0.174149
H1    H     H_    0.452886 0.712302 0.820674 0.137085
H2    H     H_    0.498340 0.283533 0.179210 0.199939
H3    H     H_    0.469432 0.727920 0.011045 0.129617
H4    H     H_    0.969293 0.742112 0.346134 0.146923
H5    H     H_    0.851750 0.745385 0.443835 0.186978
H6    H     H_    0.681949 0.737182 0.304660 0.261873
H7    H     H_    0.785055 0.854581 0.294754 0.206347
H8    H     H_    0.797541 0.732899 0.205677 0.255626
H9    H     H_    0.647834 0.182231 0.039316 0.150028
H10   H     H_    0.662604 0.264658 0.926876 0.139157
H11   H     H_    0.553989 0.116315 0.812712 0.267031
H12   H     H_    0.467284 0.354731 0.822621 0.221306
H13   H     H_    0.693887 0.065734 0.879028 0.204085
H14   H     H_    0.540860 0.032856 0.923898 0.257690
H15   H     H_    0.379220 0.790255 0.225026 0.125216
H16   H     H_    0.227009 0.852854 0.245889 0.149333
H17   H     H_    0.119161 0.678580 0.215083 0.243379
H18   H     H_    0.226547 0.688589 0.111978 0.218739
H19   H     H_    0.263957 0.600987 0.218056 0.266521
H20   H     H_    0.614872 0.763389 0.727936 0.211144
H21   H     H_    0.599792 0.909656 0.721797 0.109072
H22   H     H_    0.828479 0.934292 0.737224 0.219419
H23   H     H_    0.690367 0.225099 0.614738 0.158750
H24   H     H_    0.854001 0.787573 0.715145 0.296132
H25   H     H_    0.785593 0.842213 0.833994 0.226608
H26   H     H_    0.283398 0.977788 0.373536 0.206103
H27   H     H_    0.726469 0.025876 0.615796 0.189474
H28   H     H_    0.914709 0.405757 0.858000 0.180958
H29   H     H_    0.107849 0.306706 0.820701 0.193761
H30   H     H_    0.108550 0.569140 0.364487 0.185835
H31   H     H_    0.506924 0.640966 0.171156 0.171020
N1    N     N_R   0.523130 0.207800 0.519340 -0.108016
N2    N     N_R   0.476870 0.792180 0.480660 -0.177803
O1    O     O_R   0.506170 0.421690 0.658830 -0.602261
O2    O     O_3   0.479832 0.242332 0.976132 -0.603246
O3    O     O_3   0.297922 0.757474 0.365336 -0.577972
O4    O     O_3   0.665438 0.817077 0.587246 -0.596835
O5    O     O_R   0.491330 0.609320 0.646410 -0.629889
O6    O     O_R   0.690660 0.406170 0.506210 -0.634144
O7    O     O_R   0.675810 0.593790 0.493790 -0.555007
O8    O     O_R   0.508670 0.390680 0.353590 -0.599135
O9    O     O_R   0.493830 0.578310 0.341170 -0.613508
O10   O     O_R   0.324190 0.406210 0.506210 -0.545802
O11   O     O_R   0.309340 0.593830 0.493790 -0.580982
O12   O     O_3   0.866197 0.596072 0.351128 -0.616332
Zn1   Zn    Zn3+2 0.509910 0.374720 0.508290 1.022670
Zn2   Zn    Zn3+2 0.490090 0.625280 0.491710 1.017674

loop_
_geom_bond_atom_site_label_1
_geom_bond_atom_site_label_2
_ccdc_geom_bond_type
C4    O7    A    
C2    C39   A    
C18   H23   S    
C34   O12   S    
C3    H12   S    
O1    Zn1   S    
O6    Zn1   S    
C10   H26   S    
C10   C15   A    
C27   H5    S    
C25   C26   A    
C27   C28   S    
C20   C37   S    
C31   C32   S    
C29   H9    S    
C1    O5    A    
C13   C14   A    
C20   O10   A    
C9    O2    S    
C22   H28   S    
C33   H20   S    
C6    C7    A    
C30   H13   S    
C2    C40   A    
C20   O11   A    
C18   C19   A    
C7    C38   A    
C28   H6    S    
C12   C26   A    
C6    C40   A    
C27   H4    S    
C21   C22   A    
C33   O4    S    
C36   C37   A    
C5    C6    A    
C12   C23   A    
C3    C5    A    
C17   N1    A    
C32   H17   S    
C13   O4    S    
C11   N2    A    
C31   O3    S    
C35   H22   S    
C5    C9    A    
C14   C15   A    
C32   H18   S    
C11   O3    S    
C4    C23   S    
O5    Zn2   S    
C12   C21   A    
C2    H1    S    
C35   H25   S    
Br2   C21   S    
C31   H16   S    
C8    H2    S    
O8    Zn1   S    
C28   H7    S    
C27   O12   S    
C16   O8    A    
C29   H10   S    
C30   H11   S    
O7    Zn2   S    
Br3   C25   S    
Br1   C17   S    
C30   H14   S    
C13   N2    A    
C28   H8    S    
C16   O9    A    
O10   Zn1   S    
O9    Zn2   S    
C23   C34   A    
C22   C24   A    
C18   N1    A    
C14   C19   A    
C29   C30   S    
C33   C35   S    
C1    O1    A    
C34   C36   A    
C33   H21   S    
C7    H31   S    
C1    C39   S    
C26   C37   A    
C8    C38   A    
C32   H19   S    
C15   C17   A    
C36   H30   S    
C40   H3    S    
N1    Zn1   S    
C29   O2    S    
C4    O6    A    
C35   H24   S    
C3    C39   A    
O11   Zn2   S    
C24   C25   A    
C31   H15   S    
C10   C11   A    
C19   H27   S    
C24   H29   S    
C16   C38   S    
C8    C9    A    
N2    Zn2   S    
