data_mof_unit_86.cif
_audit_creation_date              2012-12-11T14:01:31-0500
_audit_creation_method            fapswitch 2.2
_symmetry_space_group_name_H-M    P1
_symmetry_Int_Tables_number       1
_space_group_crystal_system       triclinic
_cell_length_a                    19.08575
_cell_length_b                    10.966013
_cell_length_c                    18.822399
_cell_angle_alpha                 90.158562
_cell_angle_beta                  90.599206
_cell_angle_gamma                 90.401346
_cell_volume                      3939.09817383

loop_
_atom_site_label
_atom_site_type_symbol
_atom_type_description
_atom_site_fract_x
_atom_site_fract_y
_atom_site_fract_z
_atom_type_partial_charge
C1    C     C_R   0.272889 0.042274 0.853606 0.552762
C2    C     C_R   0.727131 0.041922 0.146432 0.554132
C3    C     C_R   0.772889 0.542274 0.853606 0.552761
C4    C     C_R   0.227131 0.541922 0.146432 0.554132
C5    C     C_R   0.480646 0.051401 0.074707 -0.087656
C6    C     C_R   0.506538 0.059369 0.929369 -0.082547
C7    C     C_R   0.980646 0.551401 0.074707 -0.087656
C8    C     C_R   0.006538 0.559369 0.929369 -0.082547
C9    C     C_R   0.981674 0.662950 0.039383 -0.126410
C10   C     C_R   0.996802 0.667197 0.967327 -0.124984
C11   C     C_R   0.481674 0.162950 0.039383 -0.126410
C12   C     C_R   0.496802 0.167197 0.967327 -0.124984
C13   C     C_2   0.249628 0.580868 0.920603 -0.113064
C14   C     C_2   0.749958 0.580073 0.079359 -0.112696
C15   C     C_2   0.749628 0.080868 0.920603 -0.113064
C16   C     C_2   0.249958 0.080073 0.079359 -0.112696
C17   C     C_2   0.249144 0.586916 0.077285 -0.107752
C18   C     C_2   0.751088 0.587295 0.922826 -0.107925
C19   C     C_2   0.749144 0.086916 0.077285 -0.107752
C20   C     C_2   0.251088 0.087295 0.922826 -0.107925
C21   C     C_2   0.294842 0.523772 0.038018 -0.164128
C22   C     C_2   0.704483 0.524357 0.961532 -0.165097
C23   C     C_2   0.794842 0.023772 0.038018 -0.164128
C24   C     C_2   0.204483 0.024357 0.961532 -0.165097
C25   C     C_2   0.304114 0.549638 0.962324 -0.162314
C26   C     C_2   0.695277 0.549520 0.037344 -0.162287
C27   C     C_2   0.804114 0.049638 0.962324 -0.162314
C28   C     C_2   0.195277 0.049520 0.037344 -0.162287
C29   C     C_2   0.503768 0.833479 0.580998 -0.113434
C30   C     C_2   0.540278 0.832959 0.431576 -0.107851
C31   C     C_2   0.003769 0.333479 0.580999 -0.113433
C32   C     C_2   0.040280 0.332959 0.431576 -0.107851
C33   C     C_2   0.531188 0.733213 0.469949 -0.189408
C34   C     C_2   0.496722 0.738659 0.536709 -0.170786
C35   C     C_2   0.031187 0.233213 0.469949 -0.189406
C36   C     C_2   0.996720 0.238661 0.536708 -0.170785
C37   C     C_2   0.252570 0.608670 0.570651 -0.104762
C38   C     C_2   0.746473 0.610296 0.429897 -0.101902
C39   C     C_2   0.752571 0.108671 0.570650 -0.104763
C40   C     C_2   0.246474 0.110295 0.429897 -0.101902
C41   C     C_2   0.260300 0.611198 0.411287 0.003783
C42   C     C_2   0.738497 0.609938 0.589839 -0.001442
C43   C     C_2   0.760300 0.111198 0.411287 0.003784
C44   C     C_2   0.238496 0.109936 0.589839 -0.001442
C45   C     C_R   0.471914 0.822826 0.852977 0.537922
C46   C     C_R   0.528659 0.821645 0.146626 0.545946
C47   C     C_R   0.971914 0.322826 0.852977 0.537921
C48   C     C_R   0.028659 0.321645 0.146626 0.545946
C49   C     C_2   0.217644 0.676902 0.452177 -0.163856
C50   C     C_2   0.779225 0.680835 0.549384 -0.160699
C51   C     C_2   0.717643 0.176902 0.452176 -0.163855
C52   C     C_2   0.279223 0.180837 0.549385 -0.160699
C53   C     C_2   0.231433 0.698292 0.526824 -0.161984
C54   C     C_2   0.765276 0.701476 0.474431 -0.163727
C55   C     C_2   0.731432 0.198293 0.526824 -0.161985
C56   C     C_2   0.265275 0.201476 0.474431 -0.163724
C57   C     C_R   0.261254 0.636739 0.851517 0.554644
C58   C     C_R   0.738665 0.636148 0.148504 0.557973
C59   C     C_R   0.761254 0.136739 0.851517 0.554644
C60   C     C_R   0.238665 0.136148 0.148504 0.557973
C61   C     C_R   0.270850 0.048097 0.649725 0.558910
C62   C     C_R   0.729064 0.048090 0.350531 0.549494
C63   C     C_R   0.770851 0.548096 0.649725 0.558912
C64   C     C_R   0.229064 0.548090 0.350531 0.549492
C65   C     C_R   0.469369 0.824026 0.647925 0.549675
C66   C     C_R   0.561821 0.820502 0.359543 0.569476
C67   C     C_R   0.969370 0.324026 0.647925 0.549675
C68   C     C_R   0.061822 0.320502 0.359543 0.569476
C69   C     C_R   0.261009 0.640517 0.644609 0.549976
C70   C     C_R   0.738756 0.640836 0.355654 0.547165
C71   C     C_R   0.761009 0.140517 0.644609 0.549977
C72   C     C_R   0.238756 0.140836 0.355654 0.547165
C73   C     C_R   0.502167 0.828573 0.073586 0.000895
C74   C     C_R   0.501323 0.832743 0.924892 -0.001152
C75   C     C_R   0.002167 0.328572 0.073586 0.000895
C76   C     C_R   0.001323 0.332743 0.924892 -0.001152
C77   C     C_R   0.494437 0.941589 0.038011 0.025014
C78   C     C_R   0.500996 0.944692 0.963185 0.026925
C79   C     C_R   0.994437 0.441589 0.038011 0.025014
C80   C     C_R   0.000996 0.444692 0.963185 0.026924
C81   C     C_R   0.507699 0.722700 0.961552 -0.154519
C82   C     C_R   0.506269 0.720362 0.034165 -0.152170
C83   C     C_R   0.007699 0.222700 0.961552 -0.154519
C84   C     C_R   0.006269 0.220362 0.034165 -0.152170
Cr1   Cr    Cr6+3 0.230530 0.836340 0.748870 0.997645
Cr2   Cr    Cr6+3 0.769470 0.836340 0.251130 0.991945
Cr3   Cr    Cr6+3 0.730530 0.336340 0.748870 0.997642
Cr4   Cr    Cr6+3 0.269470 0.336340 0.251130 0.991946
Cr5   Cr    Cr6+3 0.387420 0.989430 0.750820 1.012748
Cr6   Cr    Cr6+3 0.612580 0.989430 0.249180 1.011102
Cr7   Cr    Cr6+3 0.887420 0.489430 0.750820 1.012748
Cr8   Cr    Cr6+3 0.112580 0.489430 0.249180 1.011102
Cr9   Cr    Cr6+3 0.385640 0.677860 0.749230 1.000137
Cr10  Cr    Cr6+3 0.614360 0.677860 0.250770 0.993551
Cr11  Cr    Cr6+3 0.885640 0.177860 0.749230 1.000138
Cr12  Cr    Cr6+3 0.114360 0.177860 0.250770 0.993550
H1    H     H_    0.509761 0.635821 0.934068 0.135283
H2    H     H_    0.511719 0.632135 0.059329 0.135185
H3    H     H_    0.009761 0.135821 0.934068 0.135283
H4    H     H_    0.011719 0.132135 0.059329 0.135185
H5    H     H_    0.165657 0.702507 0.433772 0.144116
H6    H     H_    0.830115 0.712337 0.568593 0.144000
H7    H     H_    0.665656 0.202506 0.433772 0.144116
H8    H     H_    0.330110 0.212345 0.568595 0.143997
H9    H     H_    0.217469 0.787470 0.547202 0.150310
H10   H     H_    0.777820 0.791736 0.454285 0.145833
H11   H     H_    0.717467 0.287471 0.547202 0.150311
H12   H     H_    0.277817 0.291737 0.454285 0.145832
H13   H     H_    0.266367 0.518406 0.551789 0.085168
H14   H     H_    0.734629 0.518735 0.448156 0.088577
H15   H     H_    0.766368 0.018408 0.551789 0.085169
H16   H     H_    0.234632 0.018732 0.448155 0.088576
H17   H     H_    0.467586 0.051908 0.130472 0.129201
H18   H     H_    0.520058 0.067136 0.873930 0.128561
H19   H     H_    0.967586 0.551908 0.130472 0.129201
H20   H     H_    0.020058 0.567136 0.873930 0.128562
H21   H     H_    0.971831 0.746494 0.068268 0.107688
H22   H     H_    0.000155 0.754238 0.940532 0.104804
H23   H     H_    0.471831 0.246494 0.068268 0.107688
H24   H     H_    0.500155 0.254238 0.940532 0.104803
H25   H     H_    0.325238 0.450041 0.060964 0.152074
H26   H     H_    0.673302 0.451158 0.938030 0.152218
H27   H     H_    0.825238 0.950041 0.060964 0.152074
H28   H     H_    0.173302 0.951158 0.938030 0.152218
H29   H     H_    0.356914 0.545508 0.941479 0.153761
H30   H     H_    0.642412 0.545508 0.058057 0.149698
H31   H     H_    0.856914 0.045508 0.941479 0.153761
H32   H     H_    0.142412 0.045508 0.058057 0.149698
H33   H     H_    0.220614 0.662998 0.054396 0.114433
H34   H     H_    0.780393 0.662974 0.946215 0.114111
H35   H     H_    0.720614 0.162998 0.054396 0.114433
H36   H     H_    0.280393 0.162973 0.946215 0.114111
H37   H     H_    0.196753 0.581734 0.941524 0.111824
H38   H     H_    0.802900 0.580758 0.058588 0.113190
H39   H     H_    0.696753 0.081734 0.941524 0.111824
H40   H     H_    0.302900 0.080758 0.058588 0.113190
H41   H     H_    0.542221 0.643055 0.448954 0.148814
H42   H     H_    0.466168 0.658378 0.550464 0.156189
H43   H     H_    0.042218 0.143055 0.448953 0.148814
H44   H     H_    0.966164 0.158383 0.550462 0.156188
H45   H     H_    0.526750 0.923039 0.451097 0.112388
H46   H     H_    0.533667 0.915054 0.568490 0.096948
H47   H     H_    0.026753 0.423040 0.451098 0.112388
H48   H     H_    0.033670 0.415052 0.568492 0.096947
O1    O     O_R   0.215090 0.709860 0.828130 -0.520861
O2    O     O_R   0.784910 0.709860 0.171870 -0.519836
O3    O     O_R   0.715090 0.209860 0.828130 -0.520861
O4    O     O_R   0.284910 0.209860 0.171870 -0.519836
O5    O     O_R   0.445660 0.919250 0.676780 -0.496944
O6    O     O_R   0.554340 0.919250 0.323220 -0.500988
O7    O     O_R   0.945660 0.419250 0.676780 -0.496944
O8    O     O_R   0.054340 0.419250 0.323220 -0.500988
O9    O     O_R   0.456260 0.718170 0.670000 -0.532199
O10   O     O_R   0.543740 0.718170 0.330000 -0.533682
O11   O     O_R   0.956260 0.218170 0.670000 -0.532200
O12   O     O_R   0.043740 0.218170 0.330000 -0.533682
O13   O     O_R   0.320940 0.626760 0.674370 -0.500372
O14   O     O_R   0.679060 0.626760 0.325630 -0.515029
O15   O     O_R   0.820940 0.126760 0.674370 -0.500373
O16   O     O_R   0.179060 0.126760 0.325630 -0.515028
O17   O     O_3   0.334530 0.834540 0.749640 -0.240961
O18   O     O_3   0.665470 0.834540 0.250360 -0.260857
O19   O     O_3   0.834530 0.334540 0.749640 -0.240961
O20   O     O_3   0.165470 0.334540 0.250360 -0.260857
O21   O     O_R   0.236990 0.958390 0.823710 -0.503839
O22   O     O_R   0.763010 0.958390 0.176290 -0.500672
O23   O     O_R   0.736990 0.458390 0.823710 -0.503838
O24   O     O_R   0.263010 0.458390 0.176290 -0.500672
O25   O     O_R   0.332380 0.074750 0.830850 -0.513460
O26   O     O_R   0.667620 0.074750 0.169150 -0.510165
O27   O     O_R   0.832380 0.574750 0.830850 -0.513460
O28   O     O_R   0.167620 0.574750 0.169150 -0.510165
O29   O     O_R   0.445800 0.917770 0.825070 -0.507569
O30   O     O_R   0.554200 0.917770 0.174930 -0.498886
O31   O     O_R   0.945800 0.417770 0.825070 -0.507569
O32   O     O_R   0.054200 0.417770 0.174930 -0.498886
O33   O     O_R   0.456410 0.716580 0.829970 -0.527254
O34   O     O_R   0.543590 0.716580 0.170030 -0.526640
O35   O     O_R   0.956410 0.216580 0.829970 -0.527252
O36   O     O_R   0.043590 0.216580 0.170030 -0.526641
O37   O     O_R   0.321080 0.625290 0.822650 -0.495340
O38   O     O_R   0.678920 0.625290 0.177350 -0.494547
O39   O     O_R   0.821080 0.125290 0.822650 -0.495340
O40   O     O_R   0.178920 0.125290 0.177350 -0.494547
O41   O     O_R   0.214930 0.711450 0.668160 -0.519206
O42   O     O_R   0.785070 0.711450 0.331840 -0.516924
O43   O     O_R   0.714930 0.211450 0.668160 -0.519208
O44   O     O_R   0.285070 0.211450 0.331840 -0.516923
O45   O     O_R   0.236850 0.959870 0.675420 -0.509279
O46   O     O_R   0.763150 0.959870 0.324580 -0.509294
O47   O     O_R   0.736850 0.459870 0.675420 -0.509276
O48   O     O_R   0.263150 0.459870 0.324580 -0.509294
O49   O     O_R   0.332230 0.076350 0.670880 -0.523568
O50   O     O_R   0.667770 0.076350 0.329120 -0.532241
O51   O     O_R   0.832230 0.576350 0.670880 -0.523570
O52   O     O_R   0.167770 0.576350 0.329120 -0.532240
C85   C     C_3   0.336919 0.587777 0.430099 -0.253627
C86   C     C_3   0.385802 0.613542 0.366889 -0.265143
C87   C     C_3   0.433455 0.505260 0.351531 -0.408954
H49   H     H_    0.467351 0.485705 0.398354 0.130637
H50   H     H_    0.401667 0.422778 0.338661 0.168604
H51   H     H_    0.466998 0.525738 0.305215 0.164471
H52   H     H_    0.356195 0.635562 0.317471 0.168567
H53   H     H_    0.418166 0.695336 0.379011 0.184483
H54   H     H_    0.354867 0.645933 0.475215 0.142861
H55   H     H_    0.341514 0.491579 0.447932 0.135117
C88   C     C_3   0.663380 0.575211 0.570393 -0.249502
C89   C     C_3   0.613034 0.587396 0.633899 -0.264628
C90   C     C_3   0.556865 0.487336 0.632500 -0.422609
H56   H     H_    0.529309 0.484650 0.580323 0.134638
H57   H     H_    0.581482 0.397232 0.641929 0.156662
H58   H     H_    0.518244 0.503595 0.675089 0.160800
H59   H     H_    0.639356 0.584677 0.686544 0.174438
H60   H     H_    0.589357 0.678278 0.633026 0.167967
H61   H     H_    0.643455 0.632791 0.526673 0.149450
H62   H     H_    0.663389 0.479711 0.550664 0.134748
C91   C     C_3   0.836920 0.087781 0.430098 -0.253628
C92   C     C_3   0.885801 0.113548 0.366887 -0.265143
C93   C     C_3   0.933453 0.005265 0.351525 -0.408949
H63   H     H_    0.967351 0.985708 0.398346 0.130636
H64   H     H_    0.901664 0.922785 0.338655 0.168607
H65   H     H_    0.966993 0.025744 0.305207 0.164470
H66   H     H_    0.856193 0.135572 0.317470 0.168564
H67   H     H_    0.918166 0.195340 0.379010 0.184483
H68   H     H_    0.854867 0.145938 0.475214 0.142859
H69   H     H_    0.841516 0.991583 0.447931 0.135116
C94   C     C_3   0.163380 0.075199 0.570388 -0.249499
C95   C     C_3   0.113029 0.087378 0.633890 -0.264631
C96   C     C_3   0.056856 0.987325 0.632479 -0.422623
H70   H     H_    0.029308 0.984647 0.580298 0.134637
H71   H     H_    0.081468 0.897216 0.641908 0.156656
H72   H     H_    0.018229 0.003583 0.675062 0.160805
H73   H     H_    0.139346 0.084645 0.686538 0.174444
H74   H     H_    0.089356 0.178264 0.633020 0.167970
H75   H     H_    0.143455 0.132773 0.526666 0.149450
H76   H     H_    0.163395 0.979697 0.550661 0.134749

loop_
_geom_bond_atom_site_label_1
_geom_bond_atom_site_label_2
_ccdc_geom_bond_type
C16   C28   D    
C69   O41   A    
Cr3   O19   S    
C38   C70   S    
C60   O40   A    
C89   H59   S    
C37   C69   S    
C9    H21   S    
C46   O34   A    
C85   H54   S    
C35   C36   S    
Cr2   O22   S    
C53   H9    S    
Cr5   O29   S    
Cr6   O6    S    
C11   H23   S    
Cr10  O38   S    
C57   O37   A    
C81   C82   A    
C3    O23   A    
C92   H66   S    
C62   O46   A    
C6    H18   S    
C77   C78   A    
Cr8   O32   S    
C31   C67   S    
C94   H76   S    
C50   C54   S    
C30   H45   S    
Cr3   O3    S    
Cr6   O18   S    
Cr11  O15   S    
C7    C79   A    
Cr1   O1    S    
C47   C76   S    
C66   O6    A    
C96   H72   S    
C57   O1    A    
C31   C36   D    
C16   C60   S    
C49   C53   S    
C75   C84   A    
C6    C78   A    
C15   H39   S    
Cr1   O45   S    
C24   H28   S    
C90   H58   S    
Cr1   O17   S    
C3    C18   S    
C67   O11   A    
C26   H30   S    
C7    H19   S    
C31   H48   S    
C25   H29   S    
C56   H12   S    
C32   H47   S    
C65   O9    A    
C35   H43   S    
C12   H24   S    
C27   H31   S    
C41   C49   D    
C39   C55   D    
C94   C95   S    
C33   H41   S    
C89   C90   S    
C40   C56   D    
C38   C54   D    
Cr8   O8    S    
C87   H51   S    
C69   O13   A    
C46   O30   A    
C86   C87   S    
Cr2   O18   S    
C1    O21   A    
C38   H14   S    
C4    O28   A    
C9    C10   A    
Cr10  O18   S    
C95   H74   S    
C30   C33   D    
C45   O33   A    
C91   H69   S    
C32   C68   S    
C37   C53   D    
Cr8   O20   S    
Cr5   O5    S    
C28   H32   S    
C87   H49   S    
Cr10  O14   S    
Cr10  O34   S    
C61   O45   A    
C82   H2    S    
C48   C75   S    
Cr7   O19   S    
C85   H55   S    
C43   C91   S    
Cr9   O37   S    
Cr12  O40   S    
Cr2   O2    S    
C76   C83   A    
Cr5   O17   S    
C95   C96   S    
C64   O48   A    
C22   H26   S    
C7    C9    A    
C37   H13   S    
C19   H35   S    
C14   C58   S    
C90   H56   S    
Cr3   O23   S    
Cr2   O46   S    
C54   H10   S    
C67   O7    A    
C88   C89   S    
C84   H4    S    
C32   C35   D    
C76   C80   A    
C41   C85   S    
C21   C25   S    
C93   H63   S    
C66   O10   A    
Cr9   O33   S    
Cr3   O43   S    
C14   H38   S    
C51   C55   S    
Cr4   O24   S    
C91   C92   S    
Cr4   O20   S    
C17   H33   S    
C29   C34   D    
C34   H42   S    
C14   C26   D    
C4    O24   A    
C55   H11   S    
C45   C74   S    
C70   O14   A    
C20   H36   S    
C19   C23   D    
C96   H70   S    
C10   H22   S    
C68   O8    A    
C45   O29   A    
C93   H64   S    
Cr7   O51   S    
C15   C27   D    
C83   C84   A    
Cr6   O50   S    
Cr9   O17   S    
Cr10  O10   S    
Cr5   O49   S    
Cr6   O26   S    
C88   H61   S    
C33   C34   S    
Cr4   O4    S    
Cr7   O31   S    
C42   C88   S    
Cr12  O36   S    
Cr9   O13   S    
C36   H44   S    
C87   H50   S    
C95   H73   S    
C30   C66   S    
C47   O35   A    
C42   C50   D    
C29   C65   S    
C4    C17   S    
Cr11  O35   S    
Cr12  O16   S    
C2    O26   A    
C50   H6    S    
C23   C27   S    
C3    O27   A    
C5    C11   A    
C72   O44   A    
C63   O51   A    
C18   H34   S    
C75   C79   A    
C62   O50   A    
C74   C81   A    
C5    C77   A    
C16   H40   S    
C6    C12   A    
C61   O49   A    
C73   C82   A    
C48   O36   A    
C71   O15   A    
Cr3   O47   S    
Cr4   O48   S    
C2    O22   A    
C52   H8    S    
C1    C20   S    
C15   C59   S    
C40   C72   S    
Cr11  O39   S    
C5    H17   S    
C2    C19   S    
C18   C22   D    
C13   H37   S    
C24   C28   S    
C71   O43   A    
Cr8   O52   S    
C68   O12   A    
C44   C52   D    
C23   H27   S    
C11   C12   A    
C58   O2    A    
C89   H60   S    
Cr2   O42   S    
C44   C61   S    
C94   H75   S    
Cr6   O30   S    
C72   O16   A    
Cr7   O27   S    
Cr11  O19   S    
C58   O38   A    
Cr1   O21   S    
Cr7   O7    S    
Cr9   O9    S    
C70   O42   A    
Cr5   O25   S    
C96   H71   S    
Cr1   O41   S    
C93   H65   S    
C86   H53   S    
C39   H15   S    
C40   H16   S    
C43   C51   D    
C92   C93   S    
Cr12  O12   S    
C81   H1    S    
C13   C25   D    
Cr8   O28   S    
C63   O47   A    
C29   H46   S    
C64   O52   A    
C1    O25   A    
C88   H62   S    
C90   H57   S    
Cr11  O11   S    
C92   H67   S    
C65   O5    A    
C85   C86   S    
C44   C94   S    
C17   C21   D    
C8    H20   S    
C22   C26   S    
C79   C80   A    
Cr12  O20   S    
Cr4   O44   S    
C13   C57   S    
C43   C62   S    
C73   C77   A    
C8    C10   A    
C74   C78   A    
C86   H52   S    
C8    C80   A    
C39   C71   S    
C59   O39   A    
C21   H25   S    
C83   H3    S    
C60   O4    A    
C41   C64   S    
C51   H7    S    
C42   C63   S    
C20   C24   D    
C46   C73   S    
C47   O31   A    
C52   C56   S    
C49   H5    S    
C91   H68   S    
C48   O32   A    
C59   O3    A    
