data_mof_unit_4910.cif
_audit_creation_date              2013-03-05T16:07:04-0500
_audit_creation_method            fapswitch 2.2
_symmetry_space_group_name_H-M    P1
_symmetry_Int_Tables_number       1
_space_group_crystal_system       triclinic
_cell_length_a                    10.972239
_cell_length_b                    9.614367
_cell_length_c                    9.060114
_cell_angle_alpha                 89.664902
_cell_angle_beta                  93.786377
_cell_angle_gamma                 89.012968
_cell_volume                      953.510563579

loop_
_atom_site_label
_atom_site_type_symbol
_atom_site_description
_atom_site_fract_x
_atom_site_fract_y
_atom_site_fract_z
_atom_type_partial_charge
O1    O     O_R   0.319640 0.618740 0.499990 -0.537115
O2    O     O_R   0.680360 0.381260 0.500010 -0.537116
O3    O     O_R   0.680360 0.618740 0.500010 -0.531716
O4    O     O_R   0.319640 0.381260 0.499990 -0.531716
C1    C     C_R   0.262680 0.501271 0.507610 0.878508
C2    C     C_R   0.737320 0.498728 0.492391 0.878509
O5    O     O_R   0.500000 0.618760 0.288390 -0.547431
O6    O     O_R   0.500000 0.381240 0.711610 -0.547431
O7    O     O_R   0.500000 0.618760 0.711610 -0.555274
O8    O     O_R   0.500000 0.381240 0.288390 -0.555274
C3    C     C_R   0.499799 0.500246 0.220893 0.851255
C4    C     C_R   0.500201 0.499754 0.779106 0.851254
Cu1   Cu    Cu3+1 0.500000 0.640660 0.500000 1.113533
Cu2   Cu    Cu3+1 0.500000 0.359340 0.500000 1.113533
C5    C     C_1   0.499938 0.500339 0.065622 -0.061758
C6    C     C_1   0.500062 0.499661 0.934378 -0.061758
C7    C     C_R   0.067498 0.376646 0.533665 0.232684
C8    C     C_R   0.932503 0.623354 0.466339 0.232684
C9    C     C_R   0.940409 0.371705 0.509554 0.220778
C10   C     C_R   0.059591 0.628295 0.490451 0.220777
C11   C     C_R   0.871482 0.496586 0.484092 -0.337905
C12   C     C_R   0.128519 0.503414 0.515911 -0.337905
C13   C     C_R   0.427779 0.076126 0.397772 0.323970
C14   C     C_R   0.572221 0.923874 0.602228 0.323971
C15   C     C_R   0.571127 0.071871 0.603257 0.325131
C16   C     C_R   0.428873 0.928129 0.396743 0.325130
N1    N     N_R   0.500000 0.852070 0.500000 -0.265528
N2    N     N_R   0.500000 0.147930 0.500000 -0.265528
N3    N     N_R   0.133751 0.252545 0.582070 0.186956
O9    O     O_R   0.192455 0.248483 0.711664 -0.288318
O10   O     O_R   0.131045 0.141733 0.500326 -0.199544
N4    N     N_R   0.866250 0.747455 0.417933 0.186956
O11   O     O_R   0.807547 0.751516 0.288338 -0.288318
O12   O     O_R   0.868953 0.858267 0.499678 -0.199545
N5    N     N_R   0.883329 0.238277 0.506375 0.186694
O13   O     O_R   0.829670 0.194739 0.383227 -0.260634
O14   O     O_R   0.906853 0.149877 0.614175 -0.197184
N6    N     N_R   0.116671 0.761724 0.493632 0.186694
O15   O     O_R   0.170332 0.805258 0.616781 -0.260635
O16   O     O_R   0.093148 0.850125 0.385833 -0.197183
Br1   Br    Br    0.319769 0.173316 0.253692 -0.268922
Br2   Br    Br    0.680230 0.826684 0.746308 -0.268922
Br3   Br    Br    0.669221 0.162409 0.757091 -0.268179
Br4   Br    Br    0.330778 0.837591 0.242910 -0.268179

loop_
_geom_bond_atom_site_label_1
_geom_bond_atom_site_label_2
_geom_bond_distance
_ccdc_geom_bond_type
N6    O16   1.300887 A    
N3    O9    1.301432 A    
C8    C11   1.414089 A    
C10   N6    1.436825 S    
C7    C12   1.414089 A    
O3    Cu1   1.986524 S    
C14   N1    1.375410 A    
O6    C4    1.296279 A    
O3    C2    1.307089 A    
Cu2   N2    2.032574 S    
N4    O11   1.301433 A    
C15   Br3   1.925363 S    
C16   Br4   1.925364 S    
N3    O10   1.300713 A    
C9    N5    1.436823 S    
C13   N2    1.375412 A    
C15   N2    1.376555 A    
O5    C3    1.296279 A    
C16   N1    1.376556 A    
O2    C2    1.303831 A    
C8    N4    1.437457 S    
O1    C1    1.303831 A    
N5    O14   1.300885 A    
C10   C12   1.417454 A    
C8    C10   1.398799 A    
O4    Cu2   1.986524 S    
N6    O15   1.301503 A    
O2    Cu2   1.993744 S    
O7    C4    1.294081 A    
O1    Cu1   1.993744 S    
O8    C3    1.294080 A    
C5    C6    1.189238 T    
C7    N3    1.437457 S    
O5    Cu1   1.929963 S    
C14   Br2   1.929998 S    
C14   C15   1.422835 A    
O8    Cu2   1.927514 S    
C13   C16   1.422835 A    
O7    Cu1   1.927513 S    
Cu1   N1    2.032573 S    
O6    Cu2   1.929961 S    
C7    C9    1.398799 A    
Cu1   Cu2   2.704714 S    
C2    C11   1.478721 S    
C3    C5    1.406872 S    
C1    C12   1.478721 S    
C4    C6    1.406872 S    
N4    O12   1.300714 A    
O4    C1    1.307089 A    
C9    C11   1.417454 A    
N5    O13   1.301505 A    
C13   Br1   1.929998 S    
