data_mof_unit_1393.cif
_audit_creation_date              2012-12-10T17:39:01-0500
_audit_creation_method            fapswitch 2.2
_symmetry_space_group_name_H-M    P1
_symmetry_Int_Tables_number       1
_space_group_crystal_system       triclinic
_cell_length_a                    12.143931
_cell_length_b                    12.910844
_cell_length_c                    23.377903
_cell_angle_alpha                 93.432781
_cell_angle_beta                  88.29324
_cell_angle_gamma                 92.927785
_cell_volume                      3652.71814049

loop_
_atom_site_label
_atom_site_type_symbol
_atom_type_description
_atom_site_fract_x
_atom_site_fract_y
_atom_site_fract_z
_atom_type_partial_charge
C1    C     C_R   0.520628 0.699683 0.494929 0.906854
C2    C     C_R   0.408569 0.467237 0.296475 0.477507
C3    C     C_R   0.513911 0.624948 0.757313 -0.258179
C4    C     C_R   0.397641 0.487924 0.239535 -0.263312
C5    C     C_R   0.500394 0.538515 0.790855 0.047831
C6    C     C_R   0.484540 0.536837 0.209222 0.051804
C7    C     C_R   0.471269 0.190420 0.515850 -0.248546
C8    C     C_R   0.530809 0.811032 0.486712 -0.250857
C9    C     C_R   0.641278 0.968527 0.471471 0.121394
C10   C     C_R   0.362396 0.033031 0.532198 0.114553
C11   C     C_R   0.634107 0.860306 0.474034 0.463311
C12   C     C_R   0.479769 0.300856 0.505907 0.916204
C13   C     C_R   0.369756 0.141801 0.531702 0.466298
C14   C     C_R   0.435705 0.869837 0.491658 0.103364
C15   C     C_R   0.566782 0.132367 0.509868 0.124110
C16   C     C_R   0.502295 0.501543 0.609992 0.952183
C17   C     C_R   0.498953 0.503129 0.389621 0.933904
C18   C     C_R   0.449208 0.976053 0.506114 -0.028619
C19   C     C_R   0.553536 0.026164 0.495737 -0.027471
C20   C     C_R   0.947313 0.402029 0.441606 0.376362
C21   C     C_R   0.048488 0.560184 0.569331 0.352380
C22   C     C_R   0.832925 0.418910 0.445640 0.509458
C23   C     C_R   0.503311 0.437224 0.764093 0.609673
C24   C     C_R   0.163571 0.572150 0.557303 0.526020
C25   C     C_R   0.859808 0.528962 0.530151 0.141990
C26   C     C_R   0.140084 0.458333 0.473910 0.129863
C27   C     C_R   0.976352 0.518071 0.526330 -0.194783
C28   C     C_R   0.021956 0.460074 0.479326 -0.192306
C29   C     C_R   0.437592 0.460343 0.115125 0.531306
C30   C     C_R   0.551093 0.622002 0.883495 0.533888
C31   C     C_R   0.507127 0.636020 0.123855 0.623100
C32   C     C_R   0.403891 0.493123 0.878480 0.624024
C33   C     C_R   0.517263 0.638740 0.063972 -0.183398
C34   C     C_R   0.580126 0.573644 0.238590 0.598439
C35   C     C_R   0.404573 0.484567 0.937864 -0.176386
C36   C     C_R   0.467048 0.556147 0.030473 -0.125324
C37   C     C_R   0.468345 0.559190 0.970622 -0.126913
C38   C     C_R   0.416540 0.469814 0.056955 -0.058203
C39   C     C_R   0.534389 0.636040 0.943365 -0.063060
C40   C     C_R   0.575528 0.721094 0.037191 0.534779
C41   C     C_R   0.344923 0.403082 0.964743 0.532715
C42   C     C_R   0.583637 0.720759 0.976810 0.069059
C43   C     C_R   0.349665 0.395847 0.024515 0.067574
C44   C     C_3   0.736342 0.775242 0.079078 -0.222856
C45   C     C_R   0.498610 0.423570 0.704202 -0.029514
C46   C     C_3   0.349619 0.243820 0.918070 -0.219148
C47   C     C_3   0.190336 0.388510 0.427912 -0.587291
C48   C     C_3   0.810240 0.597681 0.577544 -0.623686
C49   C     C_3   0.192202 0.717484 0.620139 -0.285753
C50   C     C_3   0.785980 0.378743 0.350988 -0.229663
C51   C     C_3   0.957890 0.228189 0.420299 -0.374045
C52   C     C_3   0.017550 0.491180 0.655536 -0.281418
C53   C     C_3   0.638424 0.814220 0.949315 -0.761615
C54   C     C_3   0.276594 0.314176 0.053084 -0.762305
C55   C     C_3   0.614995 0.338543 0.811497 -0.374002
C56   C     C_R   0.581206 0.572647 0.298735 -0.074988
C57   C     C_3   0.739688 0.531520 0.192699 -0.368973
C58   C     C_3   0.485820 0.316138 0.674991 -0.803085
C59   C     C_3   0.667911 0.638631 0.331242 -0.706757
C60   C     C_3   0.482217 0.754701 0.652546 -0.330270
C61   C     C_3   0.366498 0.299959 0.315230 -0.327283
C62   C     C_3   0.677436 0.177335 0.531084 -0.807558
C63   C     C_3   0.325102 0.825624 0.470151 -0.793684
C64   C     C_3   0.188469 0.184724 0.525661 -0.291584
C65   C     C_3   0.804975 0.813955 0.497955 -0.284816
C66   C     C_3   0.733846 0.018807 0.436419 -0.875819
C67   C     C_R   0.508871 0.511800 0.671642 -0.210204
C68   C     C_3   0.273632 0.980665 0.568503 -0.895247
C69   C     C_R   0.497046 0.514009 0.327561 -0.255108
C70   C     C_R   0.525272 0.611639 0.698035 0.456970
H1    H     H_    0.517742 0.702984 0.777055 0.208196
H2    H     H_    0.161259 0.307174 0.432163 0.202596
H3    H     H_    0.169916 0.414920 0.385441 0.282115
H4    H     H_    0.799639 0.555165 0.617377 0.250545
H5    H     H_    0.862281 0.669928 0.585462 0.211224
H6    H     H_    0.730559 0.625230 0.566642 0.265849
H7    H     H_    0.146080 0.702902 0.660732 0.231613
H8    H     H_    0.141368 0.757339 0.590047 0.139555
H9    H     H_    0.261055 0.771878 0.632822 0.144146
H10   H     H_    0.824956 0.308580 0.331697 0.198296
H11   H     H_    0.840748 0.448827 0.343471 0.135721
H12   H     H_    0.323324 0.459592 0.218005 0.207029
H13   H     H_    0.708905 0.386352 0.327648 0.168097
H14   H     H_    0.869676 0.205610 0.414093 0.209392
H15   H     H_    0.978731 0.221761 0.466003 0.138068
H16   H     H_    0.006806 0.171457 0.394230 0.193637
H17   H     H_    0.105147 0.471348 0.659040 0.192655
H18   H     H_    0.968277 0.423869 0.635852 0.155005
H19   H     H_    0.983855 0.506967 0.699638 0.198416
H20   H     H_    0.650188 0.882346 0.980124 0.250356
H21   H     H_    0.720891 0.794881 0.931245 0.261302
H22   H     H_    0.585945 0.839466 0.915140 0.243751
H23   H     H_    0.738837 0.701698 0.101404 0.182566
H24   H     H_    0.211025 0.279832 0.024722 0.250623
H25   H     H_    0.326735 0.250030 0.065486 0.262236
H26   H     H_    0.233493 0.349504 0.091442 0.242169
H27   H     H_    0.647154 0.405124 0.839662 0.180511
H28   H     H_    0.669532 0.327652 0.772671 0.177543
H29   H     H_    0.617323 0.267563 0.835826 0.192833
H30   H     H_    0.697128 0.472451 0.163289 0.174871
H31   H     H_    0.768959 0.494497 0.230907 0.164096
H32   H     H_    0.813420 0.563358 0.169300 0.194136
H33   H     H_    0.411365 0.310630 0.648331 0.260491
H34   H     H_    0.776471 0.837882 0.106896 0.200628
H35   H     H_    0.559410 0.301179 0.647113 0.210089
H36   H     H_    0.476625 0.254005 0.705798 0.279201
H37   H     H_    0.627350 0.687630 0.365504 0.244884
H38   H     H_    0.727034 0.589561 0.350579 0.237675
H39   H     H_    0.715840 0.692143 0.303369 0.265217
H40   H     H_    0.429012 0.777722 0.690343 0.158840
H41   H     H_    0.433156 0.713485 0.618266 0.219166
H42   H     H_    0.518815 0.826973 0.634908 0.186279
H43   H     H_    0.444825 0.292748 0.337927 0.154299
H44   H     H_    0.376389 0.273738 0.269192 0.202780
H45   H     H_    0.785127 0.769196 0.038086 0.135866
H46   H     H_    0.303143 0.247086 0.334825 0.189369
H47   H     H_    0.665826 0.236511 0.566851 0.230767
H48   H     H_    0.725348 0.116637 0.549210 0.216423
H49   H     H_    0.726564 0.213106 0.496012 0.262968
H50   H     H_    0.337295 0.769231 0.432986 0.241170
H51   H     H_    0.276804 0.787068 0.504576 0.255526
H52   H     H_    0.275934 0.887391 0.453986 0.219070
H53   H     H_    0.132648 0.127046 0.546656 0.166412
H54   H     H_    0.201829 0.160058 0.479549 0.131841
H55   H     H_    0.144833 0.258223 0.528104 0.189718
H56   H     H_    0.427061 0.268090 0.894859 0.190540
H57   H     H_    0.770220 0.810160 0.542481 0.152862
H58   H     H_    0.854607 0.887660 0.493829 0.158849
H59   H     H_    0.862290 0.750114 0.490305 0.187977
H60   H     H_    0.703977 0.086084 0.414955 0.247322
H61   H     H_    0.804322 0.044540 0.463695 0.216100
H62   H     H_    0.763786 0.963924 0.401691 0.268660
H63   H     H_    0.306449 0.911929 0.586702 0.232523
H64   H     H_    0.248821 0.032349 0.605835 0.266575
H65   H     H_    0.200079 0.957289 0.542899 0.225811
H66   H     H_    0.302891 0.187469 0.889151 0.199940
H67   H     H_    0.369487 0.203019 0.956743 0.136871
H68   H     H_    0.278139 0.382840 0.430681 0.274742
N1    N     N_R   0.476654 0.544738 0.148214 -0.332187
N2    N     N_R   0.484291 0.552742 0.852110 -0.333515
N3    N     N_R   0.207800 0.519350 0.510590 -0.167257
N4    N     N_R   0.792200 0.480650 0.489410 -0.167764
O1    O     O_R   0.421690 0.658830 0.502820 -0.605622
O2    O     O_2   0.636289 0.672747 0.857291 -0.571851
O3    O     O_2   0.526633 0.723363 0.157389 -0.467612
O4    O     O_2   0.324909 0.441572 0.847015 -0.477525
O5    O     O_3   0.626974 0.801296 0.070013 -0.567510
O6    O     O_3   0.283471 0.328864 0.932433 -0.568393
O7    O     O_3   0.235332 0.624651 0.595612 -0.585310
O8    O     O_3   0.758273 0.365277 0.409438 -0.589268
O9    O     O_3   0.983894 0.328473 0.400946 -0.610608
O10   O     O_3   0.008957 0.580890 0.624673 -0.625244
O11   O     O_3   0.505064 0.351361 0.796638 -0.595316
O12   O     O_R   0.578310 0.341170 0.497180 -0.585025
O13   O     O_3   0.671075 0.613737 0.208791 -0.581183
O14   O     O_3   0.568121 0.693165 0.667059 -0.605901
O15   O     O_3   0.330382 0.402239 0.321599 -0.617100
O16   O     O_3   0.287124 0.202141 0.556048 -0.588896
O17   O     O_3   0.722669 0.801561 0.456371 -0.594483
O18   O     O_R   0.609320 0.646410 0.496030 -0.592743
O19   O     O_R   0.390680 0.353590 0.503970 -0.604406
O20   O     O_R   0.406170 0.506240 0.587240 -0.561423
O21   O     O_R   0.593830 0.493760 0.412760 -0.574744
O22   O     O_R   0.593790 0.493820 0.580450 -0.640644
O23   O     O_R   0.406210 0.506180 0.419550 -0.614678
O24   O     O_2   0.423634 0.366943 0.137964 -0.584655
Zn1   Zn    Zn3+2 0.374720 0.508290 0.504530 0.985491
Zn2   Zn    Zn3+2 0.625280 0.491710 0.495470 0.975880

loop_
_geom_bond_atom_site_label_1
_geom_bond_atom_site_label_2
_ccdc_geom_bond_type
C22   O8    S    
C34   C56   A    
C23   C45   A    
C1    C8    S    
C48   H6    S    
C3    H1    S    
C25   N4    A    
C65   O17   S    
C51   H15   S    
C60   O14   S    
C44   H34   S    
C11   O17   S    
C34   O13   S    
C16   O22   A    
C17   C69   S    
C57   H32   S    
C57   O13   S    
C70   O14   S    
C65   H57   S    
C68   H63   S    
C35   C37   A    
C32   N2    A    
C8    C11   A    
C42   C53   S    
C32   O4    S    
C33   C36   A    
C30   O2    S    
C49   H8    S    
C47   H68   S    
C18   C19   A    
C21   O10   S    
C6    N1    S    
C14   C18   A    
C9    C66   S    
C62   H47   S    
C44   H23   S    
C17   O21   A    
C12   O19   A    
C15   C19   A    
C9    C19   A    
C46   O6    S    
C44   H45   S    
C29   C38   A    
C45   C67   A    
C31   C33   A    
C26   N3    A    
C54   H26   S    
C40   C42   A    
C21   C27   A    
C51   O9    S    
O23   Zn1   S    
C41   C43   A    
C48   H5    S    
O12   Zn2   S    
C52   H19   S    
C53   H22   S    
C51   H16   S    
C63   H51   S    
C50   H13   S    
C39   C42   A    
C66   H62   S    
C52   H17   S    
C7    C12   S    
C29   N1    A    
C45   C58   S    
N3    Zn1   S    
C33   C40   A    
C30   N2    A    
C65   H58   S    
C48   H4    S    
C52   H18   S    
C3    C70   A    
C47   H3    S    
C4    C6    A    
C7    C15   A    
C20   C28   A    
C16   O20   A    
C64   H54   S    
C57   H30   S    
N4    Zn2   S    
C59   H37   S    
C6    C34   A    
C58   H36   S    
C55   H29   S    
C29   O24   S    
C2    C4    A    
C32   C35   A    
C53   H21   S    
C60   H42   S    
C54   H24   S    
C61   O15   S    
C50   O8    S    
C43   C54   S    
C5    C23   A    
O22   Zn2   S    
C24   N3    A    
C52   O10   S    
C22   N4    A    
C61   H46   S    
C62   H49   S    
C16   C67   S    
C9    C11   A    
C25   C48   S    
O1    Zn1   S    
C54   H25   S    
O19   Zn1   S    
C26   C47   S    
C46   H67   S    
C20   C22   A    
C64   H55   S    
C23   O11   S    
C61   H43   S    
C31   N1    A    
C2    C69   A    
C13   O16   S    
C53   H20   S    
C63   H52   S    
C5    N2    S    
C66   H61   S    
C55   H27   S    
C55   O11   S    
C36   C37   A    
C8    C14   A    
C40   O5    S    
C46   H56   S    
C68   H65   S    
C12   O12   A    
C3    C5    A    
C10   C13   A    
C50   H10   S    
C65   H59   S    
C56   C59   S    
C10   C68   S    
C1    O1    A    
C25   C27   A    
C64   H53   S    
C57   H31   S    
C26   C28   A    
C59   H38   S    
C20   O9    S    
C49   O7    S    
C58   H35   S    
C67   C70   A    
C36   C38   A    
O21   Zn2   S    
C38   C43   A    
C37   C39   A    
C60   H41   S    
C17   O23   A    
C63   H50   S    
C1    O18   A    
C41   O6    S    
C10   C18   A    
C2    O15   S    
C14   C63   S    
C51   H14   S    
C55   H28   S    
C68   H64   S    
C59   H39   S    
C15   C62   S    
C49   H7    S    
C30   C39   A    
O18   Zn2   S    
C35   C41   A    
C47   H2    S    
C62   H48   S    
C60   H40   S    
C24   O7    S    
C46   H66   S    
O20   Zn1   S    
C31   O3    S    
C49   H9    S    
C7    C13   A    
C4    H12   S    
C61   H44   S    
C56   C69   A    
C21   C24   A    
C64   O16   S    
C27   C28   A    
C58   H33   S    
C44   O5    S    
C50   H11   S    
C66   H60   S    
