data_mof_unit_4776.cif
_audit_creation_date              2012-12-10T17:18:52-0500
_audit_creation_method            fapswitch 2.2
_symmetry_space_group_name_H-M    P1
_symmetry_Int_Tables_number       1
_space_group_crystal_system       triclinic
_cell_length_a                    9.688591
_cell_length_b                    10.827547
_cell_length_c                    13.426921
_cell_angle_alpha                 94.530884
_cell_angle_beta                  71.019282
_cell_angle_gamma                 88.855568
_cell_volume                      1326.22729877

loop_
_atom_site_label
_atom_site_type_symbol
_atom_type_description
_atom_site_fract_x
_atom_site_fract_y
_atom_site_fract_z
_atom_type_partial_charge
C1    C     C_R   0.495119 0.738470 0.505512 0.827550
C2    C     C_R   0.425925 0.522046 0.983853 0.160353
C3    C     C_R   0.448296 0.475408 0.877601 -0.052448
C4    C     C_R   0.529027 0.488872 0.034241 -0.046864
C5    C     C_R   0.645213 0.399603 0.978782 -0.129980
C6    C     C_R   0.642371 0.333933 0.884141 0.563222
C7    C     C_R   0.547069 0.373866 0.833786 -0.230521
C8    C     C_R   0.526720 0.543595 0.135265 0.278411
C9    C     C_R   0.754159 0.437849 0.117638 0.369249
C10   C     C_R   0.374875 0.534792 0.816789 -0.134692
C11   C     C_R   0.210117 0.900142 0.594340 -0.043408
C12   C     C_R   0.420690 0.507455 0.700572 0.805401
C13   C     C_R   0.085717 0.974749 0.650009 -0.099987
C14   C     C_R   0.097849 0.099538 0.675644 -0.054247
C15   C     C_R   0.232975 0.151658 0.640194 -0.092137
C16   C     C_R   0.358711 0.079126 0.577108 0.109413
C17   C     C_R   0.351248 0.948820 0.561940 0.121012
C18   C     C_R   0.485360 0.875016 0.516557 -0.070123
C19   C     C_R   0.618591 0.933533 0.487288 -0.195690
C20   C     C_R   0.621868 0.060948 0.493016 -0.206827
C21   C     C_R   0.492143 0.133832 0.529316 -0.098112
C22   C     C_R   0.948270 0.353582 0.330826 0.532608
C23   C     C_R   0.497055 0.264686 0.510034 0.810168
C24   C     C_R   0.075236 0.322253 0.241369 -0.337556
C25   C     C_R   0.212146 0.322722 0.252447 0.275247
C26   C     C_R   0.215949 0.339156 0.354527 0.409347
C27   C     C_R   0.112010 0.425383 0.424555 -0.048341
C28   C     C_R   0.965224 0.427838 0.420113 0.045946
C29   C     C_R   0.888645 0.564443 0.576181 -0.065666
C30   C     C_R   0.033943 0.562444 0.577745 0.438163
C31   C     C_R   0.579283 0.502858 0.299539 0.925940
C32   C     C_R   0.763730 0.383323 0.017600 0.347043
C33   C     C_R   0.623415 0.497358 0.182658 -0.261465
C34   C     C_R   0.285424 0.641946 0.864367 0.438796
C35   C     C_R   0.238585 0.666969 0.973440 -0.200654
C36   C     C_R   0.302350 0.602023 0.033466 -0.157979
Cu1   Cu    Cu3+1 0.359340 0.500010 0.500010 1.054440
Cu2   Cu    Cu3+1 0.640660 0.499990 0.499990 1.009254
H1    H     H_    0.189484 0.805873 0.578025 0.206981
H2    H     H_    0.979629 0.934774 0.674937 0.156117
H3    H     H_    0.002192 0.156644 0.721528 0.222817
H4    H     H_    0.238069 0.248880 0.663572 0.166204
H5    H     H_    0.726744 0.102210 0.465542 0.187289
H6    H     H_    0.803184 0.616197 0.639561 0.172041
H7    H     H_    0.068455 0.283877 0.166434 0.250337
H8    H     H_    0.256563 0.619237 0.117758 0.197510
H9    H     H_    0.159948 0.742935 0.011437 0.185076
H10   H     H_    0.553562 0.325223 0.758660 0.158020
H11   H     H_    0.721992 0.880601 0.455674 0.170286
N1    N     N_R   0.852480 0.498790 0.499000 -0.198439
N2    N     N_R   0.148360 0.498710 0.498970 -0.205754
O1    O     O_R   0.381190 0.680360 0.500010 -0.565537
O2    O     O_R   0.618760 0.680340 0.500000 -0.598236
O3    O     O_R   0.323240 0.499990 0.650990 -0.510744
O4    O     O_R   0.560820 0.499960 0.650980 -0.596608
O5    O     O_R   0.381240 0.319660 0.500000 -0.547431
O6    O     O_R   0.618810 0.319640 0.499990 -0.534977
O7    O     O_R   0.439180 0.500040 0.349020 -0.565788
O8    O     O_R   0.676760 0.500010 0.349010 -0.513593
O9    O     O_3   0.875187 0.436098 0.149685 -0.552859
C37   C     C_3   0.929629 0.556116 0.145676 -0.222322
H12   H     H_    0.848260 0.627163 0.198064 0.157682
H13   H     H_    0.966433 0.582661 0.063139 0.187455
H14   H     H_    0.023836 0.555736 0.174886 0.165516
O10   O     O_3   0.814237 0.309566 0.332683 -0.514621
C38   C     C_3   0.823070 0.194532 0.272257 -0.256410
H15   H     H_    0.899430 0.125864 0.287263 0.162744
H16   H     H_    0.852754 0.206484 0.186705 0.214266
H17   H     H_    0.713081 0.156119 0.294954 0.187490
Cl1   Cl    Cl    0.360341 0.246940 0.151210 -0.607818
Cl2   Cl    Cl    0.220479 0.191145 0.400032 -0.580175
O11   O     O_3   0.737428 0.233765 0.836069 -0.576596
C39   C     C_3   0.669385 0.124932 0.873738 -0.204165
H18   H     H_    0.568466 0.111845 0.852375 0.168384
H19   H     H_    0.644202 0.125381 0.960817 0.212389
H20   H     H_    0.745843 0.044190 0.835885 0.184132
Cl3   Cl    Cl    0.052388 0.628789 0.694382 -0.583812
Cl4   Cl    Cl    0.931941 0.305919 0.941337 -0.554110
Cl5   Cl    Cl    0.442045 0.690242 0.194525 -0.623054
Cl6   Cl    Cl    0.262353 0.763458 0.791337 -0.594555

loop_
_geom_bond_atom_site_label_1
_geom_bond_atom_site_label_2
_ccdc_geom_bond_type
C38   H16   S    
C30   N2    A    
C16   C21   A    
C39   H18   S    
C35   C36   A    
C4    C8    A    
C35   H9    S    
C23   O5    A    
C6    O11   S    
C26   C27   A    
Cu1   Cu2   S    
C24   H7    S    
C31   O7    A    
C18   C19   A    
C3    C7    A    
C5    C6    A    
Cu1   N2    S    
C38   H17   S    
C15   C16   A    
C34   C35   A    
C31   O8    A    
C37   H13   S    
C1    O2    A    
C13   H2    S    
C9    C32   A    
C34   Cl6   S    
C30   Cl3   S    
C28   N1    A    
Cu2   O4    S    
C19   C20   A    
C16   C17   A    
C8    Cl5   S    
C31   C33   S    
C36   H8    S    
Cu1   O7    S    
C5    C32   A    
C38   H15   S    
Cu1   O5    S    
C22   C28   A    
C13   C14   A    
C9    C33   A    
C26   Cl2   S    
C39   H19   S    
C27   N2    A    
C29   N1    A    
C24   C25   A    
Cu1   O1    S    
C4    C5    A    
C25   C26   A    
O9    C37   S    
C37   H14   S    
C2    C4    A    
C22   O10   S    
C29   C30   A    
Cu2   O6    S    
C19   H11   S    
C17   C18   A    
C1    C18   S    
C10   C34   A    
C11   H1    S    
C10   C12   S    
C14   H3    S    
Cu1   O3    S    
C21   C23   S    
C29   H6    S    
C39   H20   S    
C22   C24   A    
C20   H5    S    
C2    C36   A    
C23   O6    A    
C11   C17   A    
C15   H4    S    
O11   C39   S    
C6    C7    A    
Cu2   N1    S    
C9    O9    S    
C7    H10   S    
C2    C3    A    
C3    C10   A    
C11   C13   A    
Cu2   O2    S    
C8    C33   A    
C37   H12   S    
C1    O1    A    
C12   O4    A    
C32   Cl4   S    
Cu2   O8    S    
C20   C21   A    
O10   C38   S    
C27   C28   A    
C14   C15   A    
C25   Cl1   S    
C12   O3    A    
