data_mof_unit_518.cif
_audit_creation_date              2013-03-05T16:44:34-0500
_audit_creation_method            fapswitch 2.2
_symmetry_space_group_name_H-M    P1
_symmetry_Int_Tables_number       1
_space_group_crystal_system       triclinic
_cell_length_a                    27.572438
_cell_length_b                    10.705373
_cell_length_c                    9.865943
_cell_angle_alpha                 90.37105
_cell_angle_beta                  89.633362
_cell_angle_gamma                 90.814052
_cell_volume                      2911.7493812

loop_
_atom_site_label
_atom_site_type_symbol
_atom_site_description
_atom_site_fract_x
_atom_site_fract_y
_atom_site_fract_z
_atom_type_partial_charge
O1    O     O_R   0.500010 0.316790 0.614690 -0.577582
O2    O     O_R   0.500000 0.316760 0.385350 -0.538147
C1    C     C_R   0.498532 0.260016 0.499553 0.998907
O3    O     O_R   0.428760 0.500040 0.614660 -0.588974
O4    O     O_R   0.428750 0.500000 0.385310 -0.522293
C2    C     C_R   0.406231 0.499898 0.500255 0.938026
Zn1   Zn    Zn3+2 0.500000 0.500020 0.653130 1.123265
Zn2   Zn    Zn3+2 0.500000 0.499980 0.346870 1.122429
O5    O     O_R   0.500000 0.683240 0.614650 -0.568011
O6    O     O_R   0.499990 0.683210 0.385310 -0.575151
O7    O     O_R   0.571250 0.500000 0.614690 -0.545227
O8    O     O_R   0.571240 0.499960 0.385340 -0.595650
C3    C     C_R   0.498393 0.739919 0.500204 0.924941
C4    C     C_R   0.593907 0.497214 0.499555 0.963189
C5    C     C_R   0.178606 0.384150 0.580766 0.680522
O9    O     O_2   0.205022 0.314808 0.666126 -0.466713
N1    N     N_R   0.201501 0.469513 0.499433 -0.348111
C6    C     C_R   0.176684 0.543510 0.412679 0.617988
C7    C     C_R   0.276588 0.580456 0.559149 -0.189848
C8    C     C_R   0.326962 0.587995 0.558577 -0.281818
C9    C     C_R   0.330508 0.386617 0.442624 0.393788
C10   C     C_R   0.279985 0.381164 0.440392 0.610861
C11   C     C_R   0.253155 0.477100 0.500131 0.073760
C12   C     C_R   0.101545 0.445906 0.488596 -0.217567
C13   C     C_R   0.127953 0.369528 0.576330 -0.176371
C14   C     C_R   0.103577 0.277038 0.652175 0.554938
C15   C     C_R   0.126082 0.533108 0.404764 -0.137631
C16   C     C_R   0.353860 0.491593 0.500244 -0.185213
C17   C     C_R   0.646173 0.479429 0.497818 -0.371037
C18   C     C_R   0.974512 0.367060 0.587296 0.013565
C19   C     C_R   0.974380 0.477985 0.369705 -0.121415
C20   C     C_R   0.948987 0.420023 0.477851 -0.058080
C21   C     C_R   0.948105 0.333769 0.705328 0.681604
C22   C     C_R   0.897727 0.334394 0.706379 -0.185289
C23   C     C_R   0.872215 0.374394 0.593046 -0.079300
C24   C     C_R   0.897760 0.418864 0.478747 -0.145455
C25   C     C_R   0.872142 0.465191 0.366982 -0.278521
C26   C     C_R   0.821382 0.469220 0.374103 0.679374
N2    N     N_R   0.797381 0.425883 0.486501 -0.327760
C27   C     C_R   0.821549 0.377511 0.594159 0.574257
C28   C     C_R   0.715832 0.373173 0.402802 0.481926
C29   C     C_R   0.666257 0.396561 0.402383 0.464725
C30   C     C_R   0.676084 0.540274 0.593382 0.448935
C31   C     C_R   0.725867 0.519273 0.590679 -0.252216
C32   C     C_R   0.745887 0.438166 0.494336 -0.001516
O10   O     O_2   0.796519 0.333298 0.702118 -0.522062
C33   C     C_R   0.025680 0.357038 0.577700 -0.062143
C34   C     C_R   0.050597 0.434230 0.483324 0.012814
C35   C     C_R   0.024741 0.500111 0.383503 0.061621
C36   C     C_R   0.052375 0.270489 0.655348 0.415225
H1    H     H_    0.878834 0.307834 0.798652 0.231527
O11   O     O_2   0.201226 0.625232 0.333309 -0.434833
C37   C     C_R   0.099479 0.606821 0.315470 0.680646
H2    H     H_    0.344996 0.668637 0.603449 0.200040
H3    H     H_    0.255712 0.654709 0.604946 0.201189
C38   C     C_R   0.948290 0.512756 0.253127 0.515243
C39   C     C_R   0.897889 0.507064 0.252322 0.630242
O12   O     O_2   0.796089 0.518900 0.271437 -0.432883
C40   C     C_R   0.049685 0.589973 0.304948 -0.208570
H4    H     H_    0.749167 0.567519 0.662522 0.214384
H5    H     H_    0.030936 0.653156 0.239265 0.233562
C41   C     C_R   0.492446 0.064598 0.621648 -0.149500
C42   C     C_R   0.491179 0.128460 0.499347 -0.399664
C43   C     C_R   0.480955 0.062803 0.378742 0.576530
C44   C     C_R   0.480046 0.933756 0.379690 0.564956
C45   C     C_R   0.490622 0.870902 0.500644 -0.381717
C46   C     C_R   0.492245 0.936952 0.622528 -0.152844
C47   C     C_3   0.526515 0.929741 0.739517 0.470232
C48   C     C_3   0.526726 0.072844 0.739247 1.053485
H6    H     H_    0.560908 0.882295 0.714245 0.045414
C49   C     C_R   0.474163 0.411337 0.070901 0.052270
N3    N     N_R   0.499670 0.499140 0.142800 -0.141508
C50   C     C_R   0.529778 0.578172 0.072107 -0.103611
H7    H     H_    0.553014 0.643117 0.126650 0.187981
C51   C     C_R   0.530121 0.577414 0.928044 0.744926
N4    N     N_R   0.499670 0.499180 0.857150 -0.158457
C52   C     C_R   0.473101 0.413673 0.929121 0.010692
C53   C     C_3   0.419587 0.387998 0.921716 0.692342
C54   C     C_3   0.421081 0.383776 0.078392 0.953813
O13   O     O_3   0.356885 0.291175 0.384596 -0.506104
C55   C     C_3   0.363527 0.198283 0.483152 -0.160250
H8    H     H_    0.328361 0.163229 0.525290 0.175634
H9    H     H_    0.387300 0.233326 0.566173 0.139873
H10   H     H_    0.381651 0.117694 0.434532 0.208989
F1    F     F_    0.121197 0.695531 0.237154 -0.585442
F2    F     F_    0.971010 0.543753 0.135335 -0.604375
O14   O     O_3   0.656683 0.615942 0.693275 -0.515190
C56   C     C_3   0.659189 0.740701 0.648927 -0.194771
H11   H     H_    0.635635 0.754677 0.559221 0.114332
H12   H     H_    0.697165 0.770803 0.625942 0.141954
H13   H     H_    0.645714 0.801531 0.731909 0.211015
F3    F     F_    0.874647 0.542884 0.138264 -0.552177
F4    F     F_    0.475319 0.121568 0.258572 -0.522303
F5    F     F_    0.472417 0.872074 0.260734 -0.556374
F6    F     F_    0.503394 0.880601 0.852637 -0.535640
F7    F     F_    0.256944 0.282488 0.380709 -0.604136
F8    F     F_    0.503687 0.121755 0.852439 -0.552928
O15   O     O_3   0.571200 0.138815 0.713523 -0.592681
C57   C     C_3   0.602127 0.082577 0.616584 -0.424354
H14   H     H_    0.582648 0.037071 0.531015 0.133395
H15   H     H_    0.625985 0.014823 0.667005 0.175650
H16   H     H_    0.625906 0.156465 0.572527 0.234120
F9    F     F_    0.560160 0.656812 0.860425 -0.604582
O16   O     O_3   0.396157 0.494040 0.868472 -0.599680
C58   C     C_3   0.345267 0.479106 0.870297 -0.152402
H17   H     H_    0.330991 0.452140 0.971608 0.191365
H18   H     H_    0.333348 0.411126 0.791320 0.157529
H19   H     H_    0.328945 0.570267 0.846171 0.198655
O17   O     O_3   0.412547 0.276541 0.844080 -0.608324
C59   C     C_3   0.374854 0.197569 0.892520 -0.132194
H20   H     H_    0.348198 0.243807 0.960215 0.156243
H21   H     H_    0.390878 0.117492 0.946354 0.270991
H22   H     H_    0.354633 0.159314 0.804371 0.148326
F10   F     F_    0.395590 0.479191 0.140063 -0.633173
F11   F     F_    0.411945 0.268880 0.136808 -0.581620
F12   F     F_    0.129625 0.188620 0.716239 -0.611896
F13   F     F_    0.637613 0.334559 0.311928 -0.601016
O18   O     O_3   0.735283 0.291800 0.308508 -0.525923
C60   C     C_3   0.736277 0.171807 0.366338 -0.192330
H23   H     H_    0.699054 0.137249 0.391666 0.160357
H24   H     H_    0.759661 0.170461 0.457869 0.149728
H25   H     H_    0.751968 0.106141 0.291087 0.207625
F14   F     F_    0.970366 0.316531 0.825647 -0.637069
O19   O     O_3   0.027990 0.166893 0.709146 -0.597870
C61   C     C_3   0.043833 0.137187 0.841098 0.043193
H26   H     H_    0.058007 0.219625 0.898912 0.168819
H27   H     H_    0.071202 0.062260 0.836072 0.200247
H28   H     H_    0.012429 0.099031 0.899114 0.183315

loop_
_geom_bond_atom_site_label_1
_geom_bond_atom_site_label_2
_geom_bond_distance
_ccdc_geom_bond_type
O14   C56   1.408747 S    
C39   F3    1.358605 S    
C54   F11   1.380948 S    
C17   C29   1.405927 A    
C50   H7    1.081814 S    
O18   C60   1.409647 S    
C7    C8    1.390093 A    
C12   C15   1.413572 A    
C51   N4    1.369512 A    
C49   C54   1.490409 S    
C55   H8    1.113704 S    
C37   C40   1.386672 A    
C6    O11   1.349717 S    
C52   C53   1.499203 S    
Zn1   O7    1.998426 S    
C58   H18   1.110807 S    
C22   H1    1.083529 S    
C41   C42   1.391561 A    
C41   C46   1.366509 A    
C20   C24   1.412325 A    
C24   C25   1.409880 A    
C43   F4    1.356580 S    
C14   C36   1.412651 A    
C26   N2    1.367990 A    
O7    C4    1.293230 A    
C5    C13   1.404067 A    
C5    O9    1.349865 S    
C38   C39   1.390203 A    
C5    N1    1.365338 A    
C22   C23   1.397587 A    
C28   C29   1.393175 A    
O5    C3    1.286594 A    
C59   H20   1.109524 S    
C26   O12   1.349723 S    
C2    C16   1.445486 S    
C57   H14   1.109748 S    
C47   C48   1.531924 S    
C61   H28   1.109447 S    
C28   O18   1.381431 S    
N2    C32   1.429323 S    
C48   O15   1.428499 S    
C45   C46   1.391674 A    
C9    C10   1.393750 A    
C17   C30   1.407152 A    
C51   F9    1.354185 S    
C50   C51   1.421260 A    
C19   C35   1.412591 A    
O3    Zn1   2.002979 S    
O16   C58   1.409986 S    
C55   H9    1.112278 S    
N1    C6    1.363821 A    
C33   C36   1.422283 A    
C14   F12   1.357998 S    
C3    C45   1.421478 S    
C60   H24   1.113233 S    
C58   H19   1.108361 S    
C40   H5    1.079152 S    
C47   F6    1.384783 S    
Zn2   N3    2.013383 S    
C53   O16   1.419481 S    
C46   C47   1.499408 S    
C12   C34   1.409806 A    
C18   C33   1.418931 A    
C36   O19   1.394848 S    
C12   C13   1.407887 A    
C8    H2    1.083607 S    
N2    C27   1.366143 A    
C53   C54   1.547544 S    
N3    C50   1.368102 A    
C8    C16   1.398179 A    
C13   C14   1.405812 A    
C41   C48   1.502533 S    
O1    C1    1.285444 A    
C23   C24   1.407704 A    
C7    C11   1.398891 A    
C30   C31   1.394124 A    
C25   C26   1.402147 A    
C38   F2    1.357524 S    
C33   C34   1.416856 A    
C56   H13   1.108355 S    
Zn2   O8    2.002979 S    
C21   C22   1.389130 A    
N1    C11   1.425452 S    
N4    C52   1.364357 A    
C59   H22   1.109051 S    
O3    C2    1.291811 A    
C44   F5    1.358987 S    
C57   H15   1.108469 S    
C9    C16   1.405898 A    
O8    C4    1.292746 A    
C44   C45   1.407917 A    
C61   H26   1.115105 S    
C19   C38   1.415151 A    
C27   O10   1.350051 S    
C4    C17   1.456303 S    
C49   C52   1.399684 A    
C55   H10   1.108134 S    
C31   C32   1.399396 A    
C61   H27   1.109742 S    
C60   H25   1.109204 S    
C7    H3    1.082768 S    
Zn1   O5    2.000252 S    
C34   C35   1.416971 A    
C18   C21   1.414333 A    
O1    Zn1   1.995463 S    
C10   F7    1.357881 S    
C19   C20   1.414314 A    
O2    Zn2   2.000253 S    
C6    C15   1.400721 A    
C56   H12   1.113560 S    
O13   C55   1.409927 S    
O6    C3    1.283208 A    
O4    Zn2   1.998429 S    
C60   H23   1.113435 S    
C15   C37   1.403774 A    
C29   F13   1.359112 S    
Zn1   N4    2.012890 S    
C1    C42   1.420005 S    
C58   H17   1.110321 S    
C35   C40   1.408257 A    
C30   O14   1.381610 S    
C43   C44   1.381460 A    
O2    C1    1.283643 A    
C49   N3    1.363917 A    
O17   C59   1.413213 S    
C18   C20   1.418347 A    
O4    C2    1.289393 A    
C31   H4    1.083310 S    
C9    O13   1.381613 S    
C23   C27   1.397823 A    
C53   O17   1.425327 S    
C59   H21   1.109893 S    
C42   C43   1.406119 A    
C57   H16   1.109302 S    
C56   H11   1.113240 S    
Zn2   O6    1.995462 S    
O15   C57   1.414576 S    
C54   F10   1.383620 S    
C21   F14   1.354736 S    
C47   H6    1.108357 S    
C28   C32   1.404072 A    
C10   C11   1.399132 A    
C37   F1    1.358260 S    
C25   C39   1.404218 A    
O19   C61   1.415380 S    
C48   F8    1.384772 S    
