data_mof_unit_1762.cif
_audit_creation_date              2013-03-05T15:58:35-0500
_audit_creation_method            fapswitch 2.2
_symmetry_space_group_name_H-M    P1
_symmetry_Int_Tables_number       1
_space_group_crystal_system       triclinic
_cell_length_a                    15.136658
_cell_length_b                    13.875024
_cell_length_c                    10.826757
_cell_angle_alpha                 91.003705
_cell_angle_beta                  85.643368
_cell_angle_gamma                 89.937505
_cell_volume                      2266.92689019

loop_
_atom_site_label
_atom_site_type_symbol
_atom_site_description
_atom_site_fract_x
_atom_site_fract_y
_atom_site_fract_z
_atom_type_partial_charge
O1    O     O_R   0.370260 0.582280 0.500030 -0.551472
O2    O     O_R   0.629740 0.417720 0.499970 -0.548524
O3    O     O_R   0.629740 0.582280 0.499970 -0.555690
O4    O     O_R   0.370260 0.417720 0.500030 -0.542827
C1    C     C_R   0.328989 0.499979 0.499870 0.948309
C2    C     C_R   0.671033 0.500242 0.498683 0.941994
O5    O     O_R   0.499980 0.582260 0.316850 -0.537538
O6    O     O_R   0.500020 0.417740 0.683150 -0.541810
O7    O     O_R   0.500020 0.582260 0.683150 -0.536952
O8    O     O_R   0.499980 0.417740 0.316850 -0.536037
C3    C     C_R   0.497151 0.499354 0.260217 0.980869
C4    C     C_R   0.502180 0.500668 0.740032 0.973040
Cu1   Cu    Cu3+1 0.500000 0.597420 0.500000 1.151474
Cu2   Cu    Cu3+1 0.500000 0.402580 0.500000 1.152366
C5    C     C_3   0.453774 0.576032 0.046773 0.250390
C6    C     C_3   0.544113 0.424464 0.954251 0.256862
C7    C     C_3   0.538527 0.580067 0.960858 0.247151
C8    C     C_3   0.459321 0.420207 0.039533 0.255027
C9    C     C_3   0.415776 0.497497 0.962688 -0.232083
C10   C     C_3   0.582013 0.503088 0.038015 -0.231659
H1    H     H_    0.345039 0.494085 0.945311 0.285741
H2    H     H_    0.652681 0.507686 0.055458 0.287346
C11   C     C_3   0.502568 0.501613 0.876146 -0.266782
C12   C     C_3   0.495377 0.498626 0.124537 -0.270427
C13   C     C_R   0.820559 0.495339 0.383233 0.278103
C14   C     C_R   0.178925 0.503916 0.612764 0.272566
C15   C     C_R   0.768033 0.501289 0.496396 -0.243849
C16   C     C_R   0.232006 0.500115 0.500053 -0.248250
C17   C     C_R   0.807823 0.518642 0.607237 0.262227
C18   C     C_R   0.192560 0.493797 0.386918 0.265017
C19   C     C_R   0.900435 0.521178 0.607690 -0.012358
C20   C     C_R   0.099819 0.488948 0.386650 -0.010539
C21   C     C_R   0.953437 0.503517 0.496651 -0.004104
C22   C     C_R   0.046685 0.503562 0.498317 -0.005753
C23   C     C_R   0.913401 0.486636 0.383970 -0.051887
C24   C     C_R   0.086595 0.516942 0.611702 -0.052482
C25   C     C_R   0.940859 0.541756 0.717363 -0.129402
C26   C     C_R   0.059447 0.464873 0.277943 -0.122901
C27   C     C_R   0.032477 0.542355 0.719964 0.195604
C28   C     C_R   0.967822 0.460613 0.276261 0.193245
H3    H     H_    0.901472 0.559283 0.802418 0.219912
H4    H     H_    0.098885 0.444188 0.194153 0.221034
C29   C     C_R   0.440127 0.797389 0.576479 0.426159
C30   C     C_R   0.560060 0.203448 0.422054 0.426334
C31   C     C_R   0.558060 0.793386 0.419268 0.426212
C32   C     C_R   0.440214 0.205146 0.577105 0.424658
N1    N     N_R   0.500000 0.743810 0.500000 -0.293397
N2    N     N_R   0.500000 0.256190 0.500000 -0.295368
C33   C     C_R   0.568047 0.895609 0.431830 -0.136493
C34   C     C_R   0.429974 0.103463 0.559967 -0.134992
C35   C     C_R   0.429600 0.898392 0.558805 -0.132448
C36   C     C_R   0.569492 0.101542 0.435483 -0.131171
C37   C     C_R   0.499169 0.948490 0.495878 0.000752
C38   C     C_R   0.499510 0.051067 0.496872 -0.000082
C39   C     C_R   0.644391 0.946207 0.383722 0.167136
C40   C     C_R   0.352580 0.052871 0.603858 0.174828
C41   C     C_R   0.352350 0.950582 0.603120 0.176032
C42   C     C_R   0.645822 0.048668 0.388210 0.176676
N3    N     N_R   0.401880 0.660806 0.088946 0.207798
O9    O     O_R   0.366202 0.713555 0.008121 -0.194031
O10   O     O_R   0.382327 0.678405 0.206092 -0.283165
N4    N     N_R   0.596014 0.340032 0.911281 0.207790
O11   O     O_R   0.672316 0.323668 0.954697 -0.220715
O12   O     O_R   0.564200 0.277210 0.836443 -0.256599
N5    N     N_R   0.585294 0.668254 0.925220 0.212703
O13   O     O_R   0.656107 0.692936 0.978840 -0.198872
O14   O     O_R   0.554754 0.725129 0.844633 -0.240940
N6    N     N_R   0.413421 0.331013 0.073031 0.220232
O15   O     O_R   0.339240 0.309719 0.025799 -0.207191
O16   O     O_R   0.446169 0.271722 0.148854 -0.239769
N7    N     N_R   0.781742 0.517415 0.270423 0.154310
O17   O     O_R   0.706999 0.479150 0.245513 -0.338873
O18   O     O_R   0.814551 0.586554 0.201390 -0.265985
N8    N     N_R   0.216697 0.478769 0.725140 0.154721
O19   O     O_R   0.290537 0.517234 0.753699 -0.339047
O20   O     O_R   0.182869 0.408581 0.791411 -0.263555
N9    N     N_R   0.753619 0.541795 0.717503 0.097409
O21   O     O_R   0.747560 0.630622 0.757406 -0.283315
O22   O     O_R   0.708817 0.474718 0.775907 -0.360920
N10   N     N_R   0.247179 0.485657 0.273274 0.100002
O23   O     O_R   0.236211 0.543844 0.182728 -0.302184
O24   O     O_R   0.302083 0.413940 0.256422 -0.342578
I1    I     I_    0.078928 0.601536 0.886684 -0.028102
I2    I     I_    0.922242 0.394795 0.112882 -0.037593
N11   N     N_R   0.401486 0.758305 0.689637 0.162045
O25   O     O_R   0.344724 0.688725 0.687668 -0.277196
O26   O     O_R   0.403798 0.809480 0.791207 -0.237614
N12   N     N_R   0.601351 0.245544 0.312214 0.160501
O27   O     O_R   0.663395 0.308824 0.320555 -0.282771
O28   O     O_R   0.597485 0.199696 0.206862 -0.245384
N13   N     N_R   0.592301 0.747833 0.305943 0.152381
O29   O     O_R   0.652638 0.681301 0.305020 -0.274235
O30   O     O_R   0.571576 0.782706 0.201171 -0.259508
N14   N     N_R   0.401756 0.247987 0.690514 0.159281
O31   O     O_R   0.346949 0.319665 0.689406 -0.270637
O32   O     O_R   0.405435 0.201269 0.793224 -0.242390
I3    I     I_    0.765082 0.869701 0.328227 -0.020605
I4    I     I_    0.229786 0.129363 0.644840 -0.032969
I5    I     I_    0.229012 0.876027 0.641842 -0.060852
I6    I     I_    0.770823 0.120851 0.352863 -0.061367

loop_
_geom_bond_atom_site_label_1
_geom_bond_atom_site_label_2
_geom_bond_distance
_ccdc_geom_bond_type
C18   C20   1.405699 A    
C15   C17   1.400304 A    
C28   I2    2.137534 S    
C40   I4    2.152191 S    
O3    C2    1.297348 A    
N9    O21   1.299658 A    
C5    C9    1.546971 S    
C4    C11   1.473956 S    
C34   C38   1.405236 A    
N8    O20   1.301973 A    
O1    C1    1.302266 A    
C9    H1    1.102032 S    
C26   H4    1.081641 S    
C8    N6    1.457774 S    
C41   I5    2.152155 S    
C3    C12   1.471118 S    
C7    C10   1.544402 S    
C40   C41   1.419148 A    
C8    C9    1.545874 S    
C31   N1    1.383899 A    
O7    Cu1   1.997728 S    
N4    O12   1.297558 A    
C21   C23   1.418827 A    
C10   C12   1.554555 S    
N6    O15   1.300874 A    
N5    O14   1.297038 A    
C19   C21   1.411259 A    
C13   N7    1.432665 S    
C20   C26   1.402193 A    
O3    Cu1   1.974780 S    
C6    C10   1.545120 S    
C18   N10   1.431976 S    
C30   C36   1.432012 A    
N9    O22   1.297218 A    
N3    O9    1.298629 A    
Cu1   Cu2   2.703408 S    
O4    Cu2   1.974780 S    
O2    C2    1.304866 A    
C6    N4    1.459248 S    
C31   N13   1.431434 S    
C14   C16   1.409314 A    
C36   C38   1.401889 A    
O5    C3    1.296314 A    
N11   O26   1.301239 A    
C32   N2    1.387367 A    
N3    O10   1.299144 A    
N8    O19   1.295267 A    
C29   N11   1.432559 S    
C42   I6    2.153395 S    
N10   O24   1.297272 A    
O8    Cu2   1.997729 S    
N13   O29   1.297236 A    
Cu1   N1    2.031165 S    
O4    C1    1.300622 A    
Cu2   N2    2.031165 S    
N11   O25   1.294059 A    
C34   C40   1.421220 A    
C19   C25   1.401690 A    
C35   C37   1.401937 A    
C20   C22   1.411712 A    
C9    C11   1.556317 S    
N4    O11   1.300789 A    
N13   O30   1.300863 A    
C1    C16   1.467853 S    
C2    C15   1.466672 S    
C32   N14   1.436980 S    
C31   C33   1.431743 A    
O6    C4    1.297147 A    
C39   I3    2.152181 S    
C21   C22   1.412955 A    
C7    C11   1.537695 S    
N14   O32   1.301704 A    
C36   C42   1.424861 A    
C13   C23   1.411009 A    
C35   C41   1.422180 A    
C14   C24   1.409950 A    
C5    C12   1.539366 S    
C10   H2    1.101978 S    
C6    C11   1.538639 S    
C8    C12   1.539888 S    
O1    Cu1   1.975237 S    
N7    O18   1.302035 A    
C5    C7    1.528015 S    
O6    Cu2   1.990400 S    
C17   C19   1.402699 A    
C5    N3    1.460731 S    
C24   C27   1.417124 A    
N12   O28   1.301500 A    
N10   O23   1.300993 A    
C37   C38   1.423133 A    
C13   C15   1.410089 A    
C32   C34   1.429908 A    
C7    N5    1.457437 S    
C16   C18   1.404272 A    
C23   C28   1.416848 A    
C27   I1    2.137506 S    
N7    O17   1.295087 A    
C25   C27   1.389241 A    
C33   C39   1.422225 A    
C26   C28   1.389707 A    
C29   C35   1.428121 A    
C33   C37   1.406005 A    
C14   N8    1.431436 S    
C22   C24   1.418215 A    
C25   H3    1.082131 S    
N14   O31   1.295225 A    
O2    Cu2   1.975237 S    
O7    C4    1.299764 A    
O8    C3    1.299347 A    
O5    Cu1   1.990401 S    
C17   N9    1.427852 S    
N12   O27   1.293433 A    
C6    C8    1.524902 S    
N5    O13   1.300609 A    
C39   C42   1.421876 A    
N6    O16   1.296528 A    
C30   N12   1.434655 S    
C29   N1    1.386565 A    
C30   N2    1.390876 A    
