data_mof_unit_871.cif
_audit_creation_date              2012-12-10T18:18:26-0500
_audit_creation_method            fapswitch 2.2
_symmetry_space_group_name_H-M    P1
_symmetry_Int_Tables_number       1
_space_group_crystal_system       triclinic
_cell_length_a                    13.989886
_cell_length_b                    15.018487
_cell_length_c                    15.437746
_cell_angle_alpha                 90.012448
_cell_angle_beta                  66.190611
_cell_angle_gamma                 90.21051
_cell_volume                      2967.50498729

loop_
_atom_site_label
_atom_site_type_symbol
_atom_type_description
_atom_site_fract_x
_atom_site_fract_y
_atom_site_fract_z
_atom_type_partial_charge
C1    C     C_R   0.500480 0.673535 0.499329 0.883832
C2    C     C_R   0.501571 0.769344 0.498157 -0.058759
C3    C     C_R   0.416582 0.184888 0.491726 -0.266618
C4    C     C_R   0.582994 0.815100 0.509095 -0.264015
C5    C     C_R   0.413613 0.092168 0.493335 0.024303
C6    C     C_R   0.585759 0.907830 0.507872 0.024803
C7    C     C_R   0.498090 0.046339 0.501961 0.070161
C8    C     C_R   0.501234 0.953661 0.499332 0.070039
C9    C     C_R   0.579888 0.093413 0.512937 0.077368
C10   C     C_R   0.419465 0.906596 0.488297 0.077378
C11   C     C_R   0.330685 0.044015 0.484219 -0.028396
C12   C     C_R   0.499472 0.326465 0.500775 0.883192
C13   C     C_R   0.668586 0.955988 0.517170 -0.028085
C14   C     C_R   0.335948 0.951245 0.480584 -0.202014
C15   C     C_R   0.663317 0.048761 0.520803 -0.203822
C16   C     C_R   0.433507 0.501751 0.677454 0.879295
C17   C     C_R   0.566498 0.498296 0.322549 0.880005
C18   C     C_R   0.178779 0.437257 0.551431 -0.085939
C19   C     C_R   0.821140 0.562874 0.448754 -0.082968
C20   C     C_R   0.225176 0.562450 0.448266 -0.077663
C21   C     C_R   0.774862 0.437475 0.551636 -0.081996
C22   C     C_R   0.125052 0.563996 0.447051 0.004501
C23   C     C_R   0.380260 0.509843 0.110649 -0.250660
C24   C     C_R   0.874966 0.435958 0.552898 0.008203
C25   C     C_R   0.050724 0.499817 0.499764 0.093952
C26   C     C_R   0.949266 0.500184 0.500248 0.092844
C27   C     C_R   0.077657 0.435507 0.552350 0.006724
C28   C     C_R   0.922254 0.564626 0.447845 -0.002621
C29   C     C_R   0.097586 0.627948 0.394784 -0.201754
C30   C     C_R   0.902333 0.372167 0.605394 -0.205385
C31   C     C_R   0.997010 0.628283 0.395191 -0.198605
C32   C     C_R   0.002840 0.371951 0.605143 -0.200141
C33   C     C_R   0.388137 0.507433 0.781736 -0.101823
C34   C     C_R   0.620555 0.493148 0.888896 -0.230829
C35   C     C_R   0.612105 0.493656 0.218203 -0.125583
C36   C     C_R   0.262072 0.556381 0.937357 -0.025743
C37   C     C_R   0.741525 0.451288 0.061368 -0.010257
C38   C     C_R   0.290576 0.547896 0.837968 0.032010
C39   C     C_R   0.710551 0.454877 0.161563 0.071172
C40   C     C_R   0.454392 0.480694 0.823558 -0.283401
C41   C     C_R   0.546090 0.520966 0.176432 -0.277177
C42   C     C_R   0.433472 0.499985 0.917294 0.053138
C43   C     C_R   0.567677 0.502982 0.082321 0.081428
C44   C     C_R   0.330415 0.523825 0.978118 0.083730
C45   C     C_R   0.301229 0.514784 0.077059 0.122738
C46   C     C_R   0.671617 0.481519 0.021041 0.002194
C47   C     C_R   0.513747 0.496714 0.951081 0.051832
C48   C     C_R   0.487281 0.506029 0.048607 0.054423
C49   C     C_3   0.188281 0.500518 0.147188 -0.389873
C50   C     C_3   0.174111 0.416650 0.208678 -0.363745
C51   C     C_3   0.059236 0.389597 0.257206 -0.852640
C52   C     C_3   0.812730 0.506474 0.851713 -0.416736
C53   C     C_3   0.824526 0.581162 0.779544 -0.339139
C54   C     C_3   0.937418 0.613824 0.732303 -0.853206
C55   C     C_3   0.777281 0.411531 0.207612 -0.390902
C56   C     C_R   0.700101 0.490360 0.922005 0.061937
C57   C     C_3   0.730479 0.321957 0.253358 -0.338645
C58   C     C_3   0.793060 0.281134 0.304527 -0.838055
C59   C     C_3   0.222003 0.588250 0.792292 -0.408521
C60   C     C_3   0.266186 0.678144 0.745720 -0.300797
C61   C     C_3   0.202000 0.716603 0.694942 -0.844817
C62   C     C_2   0.173046 0.614685 0.994196 0.342634
C63   C     C_2   0.835781 0.400175 0.001330 0.307603
C64   C     C_2   0.236387 0.087533 0.481361 0.412928
C65   C     C_2   0.762813 0.912495 0.520188 0.415637
C66   C     C_R   0.578511 0.185305 0.514366 -0.254783
C67   C     C_R   0.421018 0.814715 0.486543 -0.252744
C68   C     C_R   0.498145 0.230661 0.502414 -0.057533
H1    H     H_    0.200971 0.388804 0.591788 0.134873
H2    H     H_    0.524763 0.445249 0.780783 0.158734
H3    H     H_    0.355774 0.504558 0.186186 0.148937
H4    H     H_    0.644144 0.497621 0.813485 0.150523
H5    H     H_    0.641169 0.221537 0.523313 0.158209
H6    H     H_    0.358431 0.778499 0.477467 0.158938
H7    H     H_    0.357417 0.222644 0.480033 0.148570
H8    H     H_    0.642249 0.777303 0.520594 0.148515
H9    H     H_    0.273287 0.913126 0.473810 0.189852
H10   H     H_    0.725952 0.086887 0.527615 0.188965
H11   H     H_    0.011678 0.446019 0.298439 0.270079
H12   H     H_    0.798899 0.611415 0.408513 0.134847
H13   H     H_    0.029562 0.368862 0.203519 0.260345
H14   H     H_    0.050574 0.332911 0.306016 0.261787
H15   H     H_    0.218529 0.360243 0.164029 0.237968
H16   H     H_    0.203698 0.429267 0.264412 0.226537
H17   H     H_    0.161491 0.559821 0.193712 0.230250
H18   H     H_    0.136646 0.491308 0.109201 0.209680
H19   H     H_    0.959928 0.647701 0.785221 0.256477
H20   H     H_    0.991069 0.557192 0.701449 0.270247
H21   H     H_    0.945487 0.661779 0.674993 0.261886
H22   H     H_    0.800941 0.556305 0.723264 0.225248
H23   H     H_    0.283543 0.611113 0.408124 0.136532
H24   H     H_    0.774045 0.638523 0.815480 0.239419
H25   H     H_    0.860347 0.527731 0.890625 0.247196
H26   H     H_    0.845377 0.443700 0.813168 0.199943
H27   H     H_    0.874756 0.268799 0.253878 0.258347
H28   H     H_    0.793081 0.326172 0.361629 0.272403
H29   H     H_    0.757472 0.216512 0.336474 0.253885
H30   H     H_    0.648371 0.330161 0.304723 0.223365
H31   H     H_    0.730691 0.275130 0.197493 0.217844
H32   H     H_    0.858167 0.398885 0.156836 0.241461
H33   H     H_    0.788655 0.457348 0.258860 0.220409
H34   H     H_    0.716509 0.388788 0.591742 0.134933
H35   H     H_    0.201238 0.670083 0.639245 0.271923
H36   H     H_    0.120720 0.729131 0.746315 0.256558
H37   H     H_    0.236736 0.780887 0.661239 0.252919
H38   H     H_    0.265485 0.725959 0.800959 0.232049
H39   H     H_    0.348268 0.670821 0.693938 0.220336
H40   H     H_    0.211526 0.541227 0.741582 0.229542
H41   H     H_    0.140722 0.598659 0.843856 0.184073
H42   H     H_    0.096061 0.604288 0.994844 0.085341
H43   H     H_    0.827924 0.344726 0.959571 0.080963
H44   H     H_    0.214027 0.154363 0.507878 0.049976
H45   H     H_    0.153883 0.677630 0.353531 0.157746
H46   H     H_    0.785210 0.845657 0.493733 0.051155
H47   H     H_    0.846003 0.322540 0.646719 0.146376
H48   H     H_    0.977818 0.678127 0.354126 0.158238
H49   H     H_    0.021966 0.322226 0.646367 0.147933
H50   H     H_    0.475161 0.555431 0.219650 0.162252
N1    N     N_R   0.249980 0.499930 0.499960 -0.098217
N2    N     N_R   0.750020 0.500070 0.500040 -0.097334
O1    O     O_R   0.419720 0.632140 0.499980 -0.624997
O2    O     O_2   0.922854 0.423191 0.993120 -0.604206
O3    O     O_2   0.180363 0.047876 0.450579 -0.545415
O4    O     O_2   0.818749 0.952193 0.551050 -0.547733
O5    O     O_R   0.580280 0.367860 0.500020 -0.625115
O6    O     O_R   0.580270 0.632160 0.499970 -0.622618
O7    O     O_R   0.419730 0.367840 0.500030 -0.623193
O8    O     O_R   0.373870 0.499980 0.632250 -0.612954
O9    O     O_R   0.626130 0.500020 0.367750 -0.611430
O10   O     O_R   0.534420 0.500000 0.632240 -0.611537
O11   O     O_R   0.465580 0.500000 0.367760 -0.611560
O12   O     O_2   0.185436 0.674889 0.041881 -0.559962
Zn1   Zn    Zn3+2 0.392800 0.499980 0.500010 0.928878
Zn2   Zn    Zn3+2 0.607200 0.500020 0.499990 0.929197

loop_
_geom_bond_atom_site_label_1
_geom_bond_atom_site_label_2
_ccdc_geom_bond_type
O5    Zn2   S    
C66   C68   A    
C34   C56   A    
C23   C45   A    
C22   C29   A    
C17   O11   A    
C65   H46   S    
C2    C4    A    
C3    C68   A    
C32   H49   S    
C50   H16   S    
C7    C8    A    
C12   O7    A    
C13   C65   S    
C53   C54   S    
C44   C45   A    
C12   C68   S    
N1    Zn1   S    
C40   H2    S    
C61   H35   S    
C24   C26   A    
C5    C11   A    
C21   N2    A    
C54   H19   S    
C11   C14   A    
C64   H44   S    
C15   H10   S    
C57   H31   S    
C1    C2    S    
C14   H9    S    
C58   H28   S    
C9    C66   A    
C39   C55   S    
C22   C25   A    
C55   H32   S    
C52   H26   S    
C41   H50   S    
C30   C32   A    
C16   O10   A    
C43   C48   A    
C51   H13   S    
C59   H40   S    
C18   H1    S    
C40   C42   A    
C59   C60   S    
C63   H43   S    
C41   C43   A    
O10   Zn2   S    
C58   H29   S    
C42   C44   A    
C36   C62   S    
C37   C63   S    
C50   H15   S    
C51   H11   S    
C30   H47   S    
C20   H23   S    
C33   C40   A    
C17   O9    A    
C62   O12   D    
C61   H36   S    
C1    O6    A    
C54   H21   S    
C4    C6    A    
C11   C64   S    
C10   C14   A    
C5    C7    A    
C6    C8    A    
C12   O5    A    
C3    C5    A    
C25   C26   A    
C10   C67   A    
C66   H5    S    
O9    Zn2   S    
C60   C61   S    
C35   C39   A    
C58   H27   S    
C49   H17   S    
C16   C33   S    
C47   C48   A    
C62   H42   S    
C45   C49   S    
C53   H24   S    
C50   C51   S    
C52   H25   S    
C67   H6    S    
C19   C28   A    
C16   O8    A    
C51   H14   S    
C60   H39   S    
C21   H34   S    
C8    C10   A    
C20   C22   A    
C19   N2    A    
C2    C67   A    
C13   C15   A    
C36   C44   A    
C34   H4    S    
C31   H48   S    
C63   O2    D    
C61   H37   S    
C52   C53   S    
C7    C9    A    
C29   H45   S    
C23   C48   A    
C1    O1    A    
C27   C32   A    
C49   H18   S    
C28   C31   A    
C18   C27   A    
O7    Zn1   S    
O11   Zn1   S    
C60   H38   S    
C25   C27   A    
C64   O3    D    
C55   H33   S    
C26   C28   A    
C33   C38   A    
C55   C57   S    
C3    H7    S    
C29   C31   A    
O8    Zn1   S    
C6    C13   A    
C54   H20   S    
C57   C58   S    
C57   H30   S    
C36   C38   A    
C59   H41   S    
N2    Zn2   S    
C42   C47   A    
C9    C15   A    
C19   H12   S    
C35   C41   A    
C43   C46   A    
C24   C30   A    
C4    H8    S    
C38   C59   S    
C65   O4    D    
O6    Zn2   S    
C23   H3    S    
C37   C39   A    
C49   C50   S    
C21   C24   A    
C46   C56   A    
C53   H22   S    
C34   C47   A    
C17   C35   S    
O1    Zn1   S    
C37   C46   A    
C18   N1    A    
C20   N1    A    
C52   C56   S    
