data_mof_unit_4087.cif
_audit_creation_date              2013-03-05T16:12:48-0500
_audit_creation_method            fapswitch 2.2
_symmetry_space_group_name_H-M    P1
_symmetry_Int_Tables_number       1
_space_group_crystal_system       triclinic
_cell_length_a                    8.265388
_cell_length_b                    16.256933
_cell_length_c                    18.793842
_cell_angle_alpha                 112.004985
_cell_angle_beta                  91.389886
_cell_angle_gamma                 83.470996
_cell_volume                      2325.71248119

loop_
_atom_site_label
_atom_site_type_symbol
_atom_site_description
_atom_site_fract_x
_atom_site_fract_y
_atom_site_fract_z
_atom_type_partial_charge
P1    P     P_3+3 0.582960 0.413890 0.320860 0.477224
O1    O     O_2   0.402610 0.439360 0.314250 -0.367653
O2    O     O_3   0.648560 0.446300 0.404730 -0.399344
O3    O     O_3   0.108870 0.604000 0.387500 -0.392365
O4    O     O_2   0.230936 0.530691 0.247644 -0.322380
O5    O     O_3   0.607568 0.296913 0.279643 -0.571707
O6    O     O_3   0.126794 0.701874 0.293562 -0.464736
H1    H     H_    0.113828 0.770104 0.411375 0.158443
C1    C     C_3   0.055505 0.860061 0.352545 -0.875817
H2    H     H_    0.182767 0.875796 0.353828 0.308184
H3    H     H_    0.001150 0.860101 0.297970 0.268006
P2    P     P_3+3 0.071690 0.707860 0.593450 0.472023
P3    P     P_3+3 0.496981 0.767017 0.455125 0.477584
O7    O     O_2   0.241370 0.719440 0.573960 -0.348093
O8    O     O_3   0.507090 0.652150 0.432150 -0.330503
O9    O     O_2   0.351662 0.811000 0.511803 -0.417353
O10   O     O_3   0.064115 0.749769 0.694088 -0.600106
O11   O     O_3   0.437805 0.789975 0.373527 -0.574707
C2    C     C_3   0.564116 0.761379 0.317377 1.255819
H4    H     H_    0.662307 0.714618 0.327796 -0.610368
C3    C     C_3   0.640542 0.842734 0.316590 -0.132415
H5    H     H_    0.699448 0.875130 0.372129 0.084895
C4    C     C_3   0.626738 0.735992 0.663270 0.385858
H6    H     H_    0.750118 0.707825 0.638866 0.073607
H7    H     H_    0.536183 0.719692 0.616898 0.140395
C5    C     C_3   0.620430 0.837016 0.701508 -0.886908
H8    H     H_    0.715332 0.854895 0.745878 0.270265
H9    H     H_    0.641745 0.866433 0.658697 0.223501
H10   H     H_    0.498750 0.865787 0.728962 0.270663
Ba1   Ba    Ba6+2 0.333520 0.539550 0.472180 1.613190
C6    C     C_3   0.562207 0.261972 0.332728 0.246609
H11   H     H_    0.433926 0.286858 0.350375 0.059890
H12   H     H_    0.640706 0.281545 0.383910 0.121471
C7    C     C_3   0.577355 0.159989 0.294816 -0.108989
H13   H     H_    0.518804 0.139225 0.237846 0.185306
H14   H     H_    0.512390 0.132940 0.330573 0.068039
C8    C     C_3   0.106248 0.682990 0.723550 0.857804
H15   H     H_    0.076160 0.616304 0.684840 0.077988
C9    C     C_3   0.010480 0.706879 0.797933 -0.837530
H16   H     H_    0.049544 0.767884 0.842931 0.267181
H17   H     H_    0.031241 0.650446 0.817907 0.253382
H18   H     H_    0.879134 0.720352 0.788228 0.236642
P4    P     P_3+3 0.606720 0.586180 0.679160 0.527991
O12   O     O_2   0.787080 0.560670 0.685800 -0.405175
O13   O     O_3   0.541120 0.553770 0.595290 -0.358278
O14   O     O_3   0.080800 0.396070 0.612520 -0.335886
O15   O     O_3   0.590884 0.702880 0.719044 -0.544849
P5    P     P_3+3 0.697622 0.233649 0.547748 0.484228
O16   O     O_3   0.164600 0.390590 0.443970 -0.389486
O17   O     O_3   0.682580 0.347920 0.567870 -0.362928
O18   O     O_2   0.849176 0.189172 0.495028 -0.372239
O19   O     O_3   0.743726 0.214860 0.632089 -0.511264
Ba2   Ba    Ba6+2 0.856270 0.460520 0.527840 1.612300
P6    P     P_3+3 0.088395 0.598159 0.293926 0.510738
C10   C     C_3   0.049970 0.769505 0.358586 0.401876
H19   H     H_    0.920715 0.759776 0.363567 0.033133
H20   H     H_    0.986555 0.913086 0.401548 0.202166
O20   O     O_3   0.025080 0.609480 0.556050 -0.425894
C11   C     C_3   0.054246 0.319551 0.282098 0.261175
H21   H     H_    0.940883 0.353083 0.316031 0.055121
H22   H     H_    0.144758 0.368197 0.294428 0.096608
C12   C     C_3   0.012027 0.289404 0.197053 -0.080913
H23   H     H_    0.906315 0.250191 0.185436 0.176411
H24   H     H_    0.975815 0.349453 0.183013 0.037932
P7    P     P_3+3 0.127247 0.278593 0.399474 0.491135
O21   O     O_2   0.948320 0.280590 0.426090 -0.332814
O22   O     O_3   0.118329 0.245715 0.299677 -0.507455
H25   H     H_    0.735230 0.820087 0.270137 0.122186
C13   C     C_3   0.666461 0.286175 0.694406 0.300359
H26   H     H_    0.726363 0.347383 0.705007 0.114331
H27   H     H_    0.535223 0.299736 0.683849 0.005341
C14   C     C_3   0.681965 0.263731 0.766389 -0.094793
H28   H     H_    0.643011 0.324799 0.817209 0.067295
H29   H     H_    0.811174 0.241703 0.774206 0.161117
P8    P     P_3+3 0.097336 0.403220 0.707160 0.467056
C15   C     C_3   0.160389 0.232355 0.647582 0.457403
H30   H     H_    0.290174 0.244361 0.648850 0.042958
O23   O     O_2   0.947208 0.465329 0.751504 -0.402165
O24   O     O_3   0.071119 0.298741 0.709198 -0.543541
H31   H     H_    0.107208 0.229875 0.592038 0.132494
H32   H     H_    0.221050 0.088691 0.604428 0.207105
C16   C     C_3   0.153088 0.141983 0.653417 -0.873466
H33   H     H_    0.024795 0.127500 0.652167 0.278414
H34   H     H_    0.208307 0.141677 0.707765 0.290858
C17   C     C_R   0.519207 0.455402 0.039691 0.036970
C18   C     C_R   0.461217 0.401160 0.075202 -0.138979
C19   C     C_R   0.314809 0.418529 0.936727 -0.099805
C20   C     C_R   0.454839 0.459288 0.969535 0.059912
C21   C     C_R   0.257950 0.417646 0.866327 0.025045
C22   C     C_R   0.338211 0.456707 0.824426 -0.080641
C23   C     C_R   0.473969 0.502645 0.857202 0.001061
C24   C     C_R   0.530289 0.506267 0.931214 0.057860
C25   C     C_R   0.288132 0.449641 0.750049 0.060951
C26   C     C_R   0.381704 0.481179 0.706325 0.169235
C27   C     C_R   0.508003 0.533426 0.739159 0.259475
C28   C     C_R   0.552187 0.545432 0.816261 -0.170133
C29   C     C_R   0.646061 0.506902 0.075744 0.079784
C30   C     C_R   0.704386 0.507220 0.148505 0.064512
C31   C     C_R   0.633545 0.457937 0.185975 -0.031807
C32   C     C_R   0.515890 0.402997 0.146639 -0.037578
H35   H     H_    0.150590 0.384680 0.845098 0.165269
H36   H     H_    0.464798 0.360316 0.170401 0.184319
C33   C     C_R   0.677241 0.595755 0.852354 -0.115515
C34   C     C_R   0.738443 0.597640 0.922832 0.322661
C35   C     C_R   0.662108 0.555722 0.965832 -0.115183
C36   C     C_R   0.711014 0.560961 0.041330 0.063444
C37   C     C_R   0.817182 0.621605 0.086054 -0.019465
C38   C     C_R   0.830697 0.559091 0.184771 -0.014576
C39   C     C_R   0.883101 0.616813 0.153050 -0.191269
C40   C     C_R   0.892617 0.556784 0.254678 0.176958
C41   C     C_R   0.811762 0.515082 0.294053 -0.436600
C42   C     C_R   0.681423 0.466534 0.261867 0.240569
H37   H     H_    0.736645 0.630829 0.824146 0.176427
H38   H     H_    0.967501 0.663736 0.181964 0.192948
H39   H     H_    0.855282 0.517439 0.349461 0.160934
H40   H     H_    0.243309 0.387863 0.964995 0.132935
H41   H     H_    0.374115 0.355102 0.048319 0.179314
H42   H     H_    0.846071 0.677361 0.073296 0.190491
C43   C     C_2   0.403609 0.239398 0.478260 -0.505462
C44   C     C_R   0.806791 0.749708 0.512835 -0.503631
C45   C     C_2   0.230632 0.119945 0.416194 -0.260540
C46   C     C_2   0.258230 0.205066 0.435104 0.230948
C47   C     C_2   0.511346 0.187196 0.501378 0.226443
C48   C     C_3   0.462607 0.100367 0.501226 -0.100788
C49   C     C_3   0.350374 0.055061 0.435197 0.135020
C50   C     C_2   0.602726 0.035175 0.503535 -0.073264
C51   C     C_2   0.575409 0.968274 0.524643 -0.082742
C52   C     C_R   0.850775 0.930375 0.564863 0.121642
C53   C     C_R   0.707272 0.901384 0.527524 -0.101643
C54   C     C_R   0.968578 0.870170 0.578690 -0.297226
C55   C     C_R   0.943406 0.780323 0.555348 0.315734
C56   C     C_R   0.685652 0.810145 0.500660 0.164520
H43   H     H_    0.127071 0.094926 0.381468 0.217310
H44   H     H_    0.074548 0.894614 0.611268 0.183319
H45   H     H_    0.427932 0.306470 0.486367 0.195421
H46   H     H_    0.788419 0.680004 0.494786 0.177126
H47   H     H_    0.723427 0.038797 0.484024 0.160257
H48   H     H_    0.452125 0.962229 0.539102 0.166392
N1    N     N_R   0.747753 0.122093 0.285946 0.277583
O25   O     O_R   0.840118 0.128655 0.233761 -0.312208
O26   O     O_R   0.804188 0.074658 0.325407 -0.409730
O27   O     O_3   0.272195 0.678922 0.738861 -0.792395
H49   H     H_    0.295743 0.740435 0.770840 0.353483
N2    N     N_R   0.149837 0.235632 0.148045 0.284065
O28   O     O_R   0.210128 0.261845 0.097934 -0.411955
O29   O     O_R   0.198741 0.156207 0.146960 -0.286617
N3    N     N_R   0.581242 0.193636 0.761240 0.269160
O30   O     O_R   0.615478 0.113281 0.710428 -0.362558
O31   O     O_R   0.461453 0.210036 0.809993 -0.396789
N4    N     N_R   0.495535 0.713447 0.242554 0.222412
O32   O     O_R   0.434894 0.639592 0.231397 -0.340985
O33   O     O_R   0.495640 0.741907 0.186345 -0.373753
O34   O     O_3   0.351103 0.458551 0.629754 -0.696774
H50   H     H_    0.285940 0.511320 0.625297 0.346714
N5    N     N_R   0.889466 0.634568 0.944132 0.211037
O35   O     O_R   0.898419 0.717947 0.955545 -0.387893
O36   O     O_R   0.020687 0.583648 0.947009 -0.414399
O37   O     O_3   0.521360 0.904154 0.304179 -0.674873
H51   H     H_    0.579570 0.953305 0.302051 0.368542

loop_
_geom_bond_atom_site_label_1
_geom_bond_atom_site_label_2
_geom_bond_distance
_ccdc_geom_bond_type
C19   C20   1.411537 A    
C50   H47   1.086506 S    
C50   C51   1.332198 D    
P2    C55   1.826479 S    
N5    O36   1.300397 A    
C44   C55   1.395407 A    
O2    Ba2   2.801937 S    
C3    O37   1.400534 S    
Ba1   O13   2.801391 S    
C41   C42   1.397635 A    
C15   O24   1.404981 S    
O6    C10   1.406221 S    
C10   H19   1.108831 S    
C52   C53   1.400113 A    
P5    C47   1.845647 S    
H32   C16   1.109279 S    
C47   C48   1.510324 S    
C9    H17   1.109596 S    
C17   C18   1.416120 A    
C5    H8    1.110685 S    
C12   H23   1.109322 S    
O16   P7    1.756127 S    
P3    O11   1.755359 S    
O8    Ba1   2.767043 S    
N3    O31   1.300692 A    
C7    H13   1.111625 S    
P1    C42   1.880745 S    
C43   C46   1.476222 S    
C36   C37   1.410134 A    
C7    N1    1.458788 S    
C2    N4    1.465116 S    
C30   C38   1.414417 A    
C38   C39   1.395613 A    
P6    C40   1.852790 S    
P1    O1    1.515967 D    
C4    C5    1.521303 S    
C13   H27   1.110206 S    
C40   C41   1.398853 A    
O14   P8    1.741467 S    
C12   H24   1.111280 S    
O19   C13   1.404989 S    
N3    O30   1.301045 A    
C11   O22   1.405203 S    
C23   C28   1.421730 A    
O12   Ba2   2.835399 S    
P4    Ba2   3.389409 S    
P5    O18   1.546288 D    
C20   C24   1.425892 A    
P7    O22   1.749252 S    
P2    O10   1.753788 S    
P4    C27   1.897695 S    
C4    H6    1.104124 S    
C6    H12   1.111202 S    
C1    C10   1.524148 S    
C51   H48   1.085386 S    
C18   C32   1.396845 A    
C1    H2    1.108060 S    
C37   H42   1.072830 S    
C21   H35   1.079147 S    
C53   C56   1.407703 A    
O3    P6    1.730450 S    
P5    O17   1.741494 S    
O5    C6    1.396376 S    
O13   Ba2   2.917591 S    
C11   H21   1.110911 S    
O34   H50   0.989767 S    
C3    H5    1.107076 S    
C37   C39   1.385236 A    
C54   H44   1.082025 S    
O7    Ba1   2.857209 S    
H1    C10   1.109723 S    
C34   C35   1.432040 A    
C29   C30   1.437245 A    
C9    H18   1.107286 S    
Ba1   Ba2   4.545887 S    
C11   H22   1.107983 S    
O17   Ba2   2.767640 S    
C4    O15   1.396609 S    
C8    O27   1.393908 S    
P1    O5    1.753164 S    
O4    P6    1.545494 D    
C15   H30   1.110085 S    
N2    O29   1.301145 A    
C15   C16   1.521629 S    
C23   C24   1.438198 A    
C44   H46   1.082028 S    
O11   C2    1.412499 S    
P2    Ba1   3.403546 S    
C43   H45   1.084641 S    
P1    O2    1.567573 S    
O2    Ba1   2.916823 S    
P4    O12   1.516261 D    
C51   C53   1.464594 S    
C45   C49   1.499163 S    
C8    H15   1.108100 S    
C1    H3    1.109935 S    
C31   C32   1.399218 A    
Ba2   O20   2.804031 S    
C32   H36   1.080367 S    
C45   C46   1.338870 D    
C6    C7    1.531006 S    
C26   C27   1.403418 A    
C25   C26   1.404641 A    
O10   C8    1.400578 S    
P7    C46   1.821989 S    
Ba2   O21   2.857392 S    
P4    O13   1.567573 S    
C19   H40   1.077366 S    
C39   H38   1.075095 S    
C29   C36   1.424415 A    
C14   H29   1.111397 S    
Ba1   O16   2.804569 S    
P2    O7    1.507706 D    
C30   C31   1.424837 A    
C16   H34   1.110074 S    
P3    O8    1.744300 S    
C3    H25   1.112212 S    
O37   H51   0.991894 S    
N4    O33   1.302466 A    
C28   C33   1.392909 A    
P7    O21   1.565642 D    
C9    H16   1.110886 S    
C13   C14   1.526632 S    
P8    C25   1.859921 S    
C22   C25   1.414519 A    
C48   C50   1.489725 S    
C17   C20   1.430458 A    
C11   C12   1.530182 S    
C33   H37   1.072410 S    
C44   C56   1.397814 A    
C6    H11   1.103115 S    
C15   H31   1.111200 S    
C12   N2    1.459801 S    
C14   H28   1.110468 S    
C52   C54   1.391094 A    
N1    O25   1.299737 A    
C43   C47   1.337019 D    
C14   N3    1.459517 S    
C35   C36   1.439918 A    
C5    H9    1.105197 S    
N4    O32   1.296098 A    
O1    Ba1   2.834896 S    
N2    O28   1.299499 A    
C2    H4    1.112856 S    
C19   C21   1.388806 A    
C54   C55   1.397761 A    
C27   C28   1.431714 A    
P2    O20   1.576378 S    
C8    C9    1.519389 S    
N1    O26   1.300863 A    
C22   C23   1.417237 A    
P8    O24   1.751067 S    
C26   O34   1.370024 S    
O16   Ba2   2.909434 S    
C31   C42   1.430481 A    
Ba1   O20   2.910202 S    
O14   Ba2   2.781859 S    
P1    Ba1   3.388898 S    
P3    C56   1.841209 S    
C38   C40   1.410464 A    
C18   H41   1.075005 S    
C1    H20   1.111245 S    
C4    H7    1.109216 S    
C34   N5    1.430002 S    
C13   H26   1.110712 S    
P8    O23   1.545463 D    
C17   C29   1.414019 A    
C24   C35   1.424648 A    
P5    O19   1.748741 S    
C7    H14   1.107228 S    
C5    H10   1.110784 S    
C16   H33   1.109879 S    
P3    O9    1.544210 D    
C33   C34   1.397095 A    
O27   H49   0.993639 S    
C41   H39   1.081792 S    
O6    P6    1.753327 S    
C45   H43   1.084993 S    
C21   C22   1.399769 A    
N5    O35   1.301145 A    
P4    O15   1.749551 S    
O3    Ba1   2.782462 S    
C48   C49   1.535431 S    
C2    C3    1.534125 S    
