data_mof_unit_3721.cif
_audit_creation_date              2012-12-10T20:36:42-0500
_audit_creation_method            fapswitch 2.2
_symmetry_space_group_name_H-M    P1
_symmetry_Int_Tables_number       1
_space_group_crystal_system       triclinic
_cell_length_a                    10.514324
_cell_length_b                    10.67782
_cell_length_c                    9.865263
_cell_angle_alpha                 90.151527
_cell_angle_beta                  90.760013
_cell_angle_gamma                 90.065191
_cell_volume                      1107.47158613

loop_
_atom_site_label
_atom_site_type_symbol
_atom_type_description
_atom_site_fract_x
_atom_site_fract_y
_atom_site_fract_z
_atom_type_partial_charge
C1    C     C_R   0.496235 0.259970 0.499872 0.868445
C2    C     C_3   0.957164 0.597736 0.426504 -0.231215
C3    C     C_3   0.037512 0.488223 0.371422 -0.085482
C4    C     C_3   0.122770 0.499836 0.497752 -0.056014
C5    C     C_R   0.477625 0.064335 0.622777 0.113458
C6    C     C_R   0.476257 0.128592 0.500186 -0.098244
C7    C     C_R   0.450865 0.064351 0.378661 -0.221385
C8    C     C_R   0.450537 0.934869 0.378877 -0.222909
C9    C     C_R   0.475817 0.871421 0.500621 -0.098320
C10   C     C_R   0.477178 0.936573 0.623080 0.132547
C11   C     C_3   0.568679 0.930004 0.740169 -0.474732
C12   C     C_R   0.257431 0.499486 0.499091 0.890257
C13   C     C_3   0.569553 0.071911 0.739415 -0.452340
C14   C     C_R   0.456654 0.398195 0.070234 0.220849
C15   C     C_R   0.553277 0.595614 0.073005 -0.112516
C16   C     C_R   0.553043 0.595686 0.929100 -0.026472
C17   C     C_R   0.457258 0.397958 0.927700 0.219393
C18   C     C_3   0.327132 0.343067 0.919041 -0.494136
C19   C     C_3   0.325722 0.344494 0.072983 -0.500968
C20   C     C_R   0.496091 0.740051 0.500093 0.872986
C21   C     C_R   0.742737 0.501313 0.501198 0.897249
C22   C     C_3   0.044292 0.403975 0.575535 -0.252256
C23   C     C_3   0.955975 0.392590 0.449266 -0.229716
C24   C     C_3   0.877811 0.502073 0.504015 -0.106698
C25   C     C_3   0.964712 0.513592 0.628383 0.559131
C26   C     C_3   0.045582 0.609573 0.552542 -0.236836
H1    H     H_    0.915280 0.304434 0.407313 0.161823
H2    H     H_    0.661553 0.887851 0.712650 0.223726
H3    H     H_    0.526118 0.113687 0.831075 0.202738
H4    H     H_    0.662801 0.112595 0.710813 0.217548
H5    H     H_    0.594455 0.673846 0.127948 0.149519
H6    H     H_    0.593911 0.673869 0.875776 0.166993
H7    H     H_    0.256992 0.407721 0.871722 0.266230
H8    H     H_    0.327560 0.247047 0.875371 0.194316
H9    H     H_    0.255066 0.410839 0.115221 0.223085
H10   H     H_    0.324106 0.249229 0.117831 0.193992
H11   H     H_    0.083977 0.325670 0.636628 0.161900
H12   H     H_    0.086426 0.697443 0.595081 0.166653
H13   H     H_    0.917559 0.676520 0.366129 0.164184
H14   H     H_    0.071312 0.477782 0.265900 0.146973
H15   H     H_    0.440328 0.112950 0.283003 0.166546
H16   H     H_    0.439560 0.885584 0.283301 0.171762
H17   H     H_    0.524014 0.890385 0.832093 0.198198
N1    N     N_R   0.499140 0.499140 0.142800 -0.112631
N2    N     N_R   0.499140 0.499180 0.857150 -0.106471
O1    O     O_R   0.500020 0.316790 0.614690 -0.618496
O2    O     O_R   0.500000 0.316760 0.385350 -0.624512
O3    O     O_R   0.313960 0.499990 0.614650 -0.616892
O4    O     O_R   0.313940 0.499950 0.385310 -0.630646
O5    O     O_R   0.500000 0.683240 0.614650 -0.622385
O6    O     O_R   0.499980 0.683210 0.385310 -0.634265
O7    O     O_R   0.686060 0.500050 0.614690 -0.556487
O8    O     O_R   0.686040 0.500010 0.385350 -0.613457
Zn1   Zn    Zn3+2 0.500010 0.500020 0.653130 0.998374
Zn2   Zn    Zn3+2 0.499990 0.499980 0.346870 0.950779
S1    S     S_3+6 0.920528 0.533515 0.801117 0.000710
O9    O     O_2   0.842638 0.650658 0.814396 -0.337510
O10   O     O_2   0.844277 0.422319 0.846061 -0.312464
O11   O     O_3   0.052490 0.546557 0.898101 -0.587886
H18   H     H_    0.021583 0.549234 0.992499 0.373980

loop_
_geom_bond_atom_site_label_1
_geom_bond_atom_site_label_2
_ccdc_geom_bond_type
C16   N2    A    
C15   N1    A    
C4    C26   S    
C23   C24   S    
C25   S1    S    
C15   H5    S    
C6    C7    A    
C23   H1    S    
S1    O10   D    
C16   H6    S    
C4    C22   S    
C9    C10   A    
C2    H13   S    
C9    C20   S    
C3    C23   S    
C14   C17   A    
S1    O11   S    
C12   O3    A    
O1    Zn1   S    
C7    H15   S    
C12   O4    A    
O2    Zn2   S    
C7    C8    A    
C2    C26   S    
C19   H9    S    
C24   C25   S    
O3    Zn1   S    
C11   C13   S    
N1    Zn2   S    
O5    Zn1   S    
C11   H2    S    
C18   H8    S    
C21   O8    A    
C13   H3    S    
C8    H16   S    
N2    Zn1   S    
C17   C18   S    
C20   O6    A    
C2    C3    S    
C19   H10   S    
O8    Zn2   S    
C2    C24   S    
C5    C6    A    
C18   H7    S    
C1    O1    A    
C4    C12   S    
C10   C11   S    
C5    C10   A    
C15   C16   A    
C13   H4    S    
O11   H18   S    
S1    O9    D    
C14   N1    A    
C18   C19   S    
C21   C24   S    
C1    C6    S    
C22   C23   S    
C26   H12   S    
C20   O5    A    
C11   H17   S    
C3    H14   S    
O6    Zn2   S    
C25   C26   S    
O4    Zn2   S    
C22   H11   S    
C5    C13   S    
C14   C19   S    
C21   O7    A    
C1    O2    A    
C3    C4    S    
C17   N2    A    
O7    Zn1   S    
C8    C9    A    
C22   C25   S    
