data_mof_unit_2232.cif
_audit_creation_date              2012-12-10T18:29:37-0500
_audit_creation_method            fapswitch 2.2
_symmetry_space_group_name_H-M    P1
_symmetry_Int_Tables_number       1
_space_group_crystal_system       triclinic
_cell_length_a                    11.530623
_cell_length_b                    15.018054
_cell_length_c                    15.377451
_cell_angle_alpha                 81.79483
_cell_angle_beta                  91.244726
_cell_angle_gamma                 103.323706
_cell_volume                      2564.50246233

loop_
_atom_site_label
_atom_site_type_symbol
_atom_type_description
_atom_site_fract_x
_atom_site_fract_y
_atom_site_fract_z
_atom_type_partial_charge
C1    C     C_R   0.482185 0.442083 0.662766 0.886448
C2    C     C_R   0.516092 0.558174 0.337792 0.885154
C3    C     C_R   0.564178 0.372998 0.930486 0.035824
C4    C     C_R   0.569114 0.665286 0.065693 0.023133
C5    C     C_R   0.569851 0.535503 0.949235 -0.011013
C6    C     C_R   0.593987 0.513037 0.038511 0.020271
C7    C     C_R   0.638143 0.432695 0.066297 -0.121296
C8    C     C_R   0.580155 0.631579 0.916401 -0.102312
C9    C     C_R   0.623466 0.362505 0.012046 -0.229255
C10   C     C_R   0.592658 0.697313 0.975646 -0.106786
C11   C     C_R   0.720270 0.846234 0.604005 -0.212360
C12   C     C_R   0.354706 0.173254 0.338882 -0.235158
C13   C     C_R   0.672851 0.755458 0.591923 0.008809
C14   C     C_R   0.369102 0.255284 0.373774 0.023560
C15   C     C_R   0.507586 0.796523 0.515260 0.032209
C16   C     C_R   0.486285 0.202208 0.490035 0.060839
C17   C     C_R   0.560380 0.891984 0.515625 -0.044265
C18   C     C_R   0.485543 0.121221 0.451841 -0.045423
C19   C     C_R   0.662742 0.915787 0.568398 0.081990
C20   C     C_R   0.414593 0.105642 0.376200 0.089699
C21   C     C_R   0.516051 0.964190 0.465501 0.073145
C22   C     C_R   0.550027 0.054332 0.487363 0.084314
C23   C     C_R   0.717699 0.500533 0.500196 0.922720
C24   C     C_R   0.282299 0.499485 0.499769 0.898071
C25   C     C_R   0.653242 0.076648 0.537834 -0.224088
C26   C     C_R   0.451568 0.952002 0.387612 -0.228270
C27   C     C_R   0.709281 0.009124 0.579072 -0.016958
C28   C     C_R   0.404238 0.022208 0.341023 -0.021299
C29   C     C_1   0.838654 0.501438 0.500307 -0.130402
C30   C     C_1   0.161364 0.498681 0.499485 -0.141670
C31   C     C_1   0.940802 0.500808 0.500050 0.045854
C32   C     C_1   0.059239 0.499394 0.499633 0.045946
C33   C     C_R   0.485409 0.409234 0.757367 -0.091896
C34   C     C_R   0.531858 0.595504 0.244859 -0.084789
C35   C     C_R   0.531685 0.300286 0.877220 -0.035485
C36   C     C_R   0.542012 0.722049 0.125961 -0.016346
C37   C     C_R   0.500457 0.321399 0.789516 -0.223316
C38   C     C_R   0.530590 0.687594 0.215416 -0.189276
C39   C     C_R   0.488260 0.472219 0.815668 -0.175618
C40   C     C_R   0.547840 0.538082 0.185419 -0.209268
C41   C     C_R   0.541864 0.461480 0.897868 0.112606
C42   C     C_R   0.573666 0.572556 0.097087 0.110408
H1    H     H_    0.695179 0.147809 0.542298 0.188569
H2    H     H_    0.447699 0.890983 0.357283 0.195733
H3    H     H_    0.537895 0.465209 0.208387 0.167854
H4    H     H_    0.450231 0.530538 0.794130 0.168993
H5    H     H_    0.512281 0.730935 0.261628 0.216310
H6    H     H_    0.484401 0.268645 0.747128 0.219559
H7    H     H_    0.328539 0.309383 0.341943 0.150602
H8    H     H_    0.721520 0.703178 0.614158 0.204201
H9    H     H_    0.804606 0.861256 0.637168 0.200208
H10   H     H_    0.297095 0.164086 0.282958 0.191689
N1    N     N_R   0.566020 0.731700 0.552730 -0.158150
N2    N     N_R   0.433980 0.268300 0.447270 -0.138277
O1    O     O_R   0.466720 0.383110 0.605620 -0.595989
O2    O     O_R   0.533280 0.616890 0.394380 -0.576116
O3    O     O_R   0.509090 0.531900 0.639510 -0.601148
O4    O     O_R   0.490910 0.468100 0.360490 -0.630809
O5    O     O_R   0.644370 0.425610 0.483050 -0.558737
O6    O     O_R   0.355630 0.574390 0.516950 -0.587307
O7    O     O_R   0.686740 0.574390 0.516930 -0.625715
O8    O     O_R   0.313260 0.425610 0.483070 -0.613493
Zn1   Zn    Zn3+2 0.471710 0.400660 0.477370 0.998359
Zn2   Zn    Zn3+2 0.528290 0.599340 0.522630 1.000657
C43   C     C_2   0.685977 0.286104 0.034887 1.004313
O9    O     O_2   0.771306 0.283617 0.990445 -0.542150
O10   O     O_R   0.647946 0.216221 0.105446 -0.681814
H11   H     H_    0.572622 0.222153 0.134602 0.366921
C44   C     C_2   0.648420 0.797064 0.946606 0.963513
O11   O     O_2   0.613960 0.839407 0.881064 -0.518230
O12   O     O_R   0.740343 0.842698 0.996282 -0.770783
H12   H     H_    0.770789 0.910123 0.971187 0.370367
C45   C     C_2   0.520918 0.201140 0.910331 0.945352
O13   O     O_2   0.468733 0.167073 0.979775 -0.604047
O14   O     O_R   0.564769 0.145589 0.859672 -0.741593
H13   H     H_    0.550544 0.078879 0.888533 0.383929
C46   C     C_2   0.509753 0.812117 0.098958 0.946719
O15   O     O_2   0.446214 0.822250 0.035304 -0.571551
O16   O     O_R   0.546995 0.883880 0.149326 -0.767222
H14   H     H_    0.517938 0.941259 0.125300 0.376973
C47   C     C_2   0.719283 0.431456 0.143252 0.901919
O17   O     O_2   0.798696 0.499652 0.150580 -0.574732
O18   O     O_R   0.702769 0.354398 0.208302 -0.796321
H15   H     H_    0.762432 0.363189 0.257534 0.360076
C48   C     C_2   0.590945 0.667021 0.821958 0.930160
O19   O     O_2   0.672412 0.655807 0.778419 -0.628080
O20   O     O_R   0.504106 0.710812 0.783203 -0.731653
H16   H     H_    0.516305 0.730739 0.718014 0.355767
C49   C     C_2   0.812516 0.038963 0.636084 0.931064
O21   O     O_2   0.888661 0.109005 0.611412 -0.598757
O22   O     O_R   0.819840 0.989733 0.719599 -0.758737
H17   H     H_    0.893290 0.017772 0.752466 0.365376
C50   C     C_2   0.346861 0.005714 0.255473 0.919246
O23   O     O_2   0.285817 0.929283 0.246958 -0.580684
O24   O     O_R   0.367051 0.075867 0.183483 -0.787683
H18   H     H_    0.324590 0.055439 0.128787 0.384649
C51   C     C_2   0.525491 0.209793 0.581134 0.905553
O25   O     O_2   0.472679 0.153787 0.641060 -0.593546
O26   O     O_R   0.627720 0.275309 0.598093 -0.782369
H19   H     H_    0.651759 0.268118 0.662018 0.350701
C52   C     C_2   0.385587 0.765273 0.483149 0.946178
O27   O     O_2   0.301203 0.777087 0.523195 -0.589781
O28   O     O_R   0.367105 0.726019 0.405409 -0.800764
H20   H     H_    0.279796 0.709517 0.389308 0.350282

loop_
_geom_bond_atom_site_label_1
_geom_bond_atom_site_label_2
_ccdc_geom_bond_type
O20   H16   S    
C4    C36   A    
C50   O23   D    
C45   O13   D    
O24   H18   S    
C21   C26   A    
C25   H1    S    
C51   O25   D    
C26   H2    S    
C39   C41   A    
C46   O15   D    
C23   O5    A    
C11   C19   A    
C33   C39   A    
C34   C40   A    
C15   N1    A    
C35   C37   A    
C36   C46   S    
C5    C6    A    
N1    Zn2   S    
C16   C51   S    
C14   H7    S    
N2    Zn1   S    
C7    C9    A    
C8    C48   S    
C44   O12   S    
C51   O26   S    
C35   C45   S    
C31   C32   S    
C43   O10   S    
C22   C25   A    
O1    Zn1   S    
O2    Zn2   S    
C49   O22   S    
C19   C27   A    
C2    C34   S    
C40   C42   A    
C52   O28   S    
C34   C38   A    
C21   C22   A    
C45   O14   S    
C47   O18   S    
C47   O17   D    
C13   N1    A    
C46   O16   S    
C40   H3    S    
C48   O20   S    
C1    C33   S    
O10   H11   S    
C52   O27   D    
O22   H17   S    
C20   C28   A    
C48   O19   D    
C33   C37   A    
C13   H8    S    
C28   C50   S    
O7    Zn2   S    
O14   H13   S    
O8    Zn1   S    
C3    C9    A    
C1    O3    A    
O18   H15   S    
C3    C35   A    
C24   O6    A    
C12   C20   A    
C9    C43   S    
C15   C52   S    
C37   H6    S    
C38   H5    S    
C39   H4    S    
C16   C18   A    
C7    C47   S    
C12   C14   A    
C4    C10   A    
C23   C29   S    
O3    Zn2   S    
O4    Zn1   S    
C15   C17   A    
C5    C41   A    
C3    C41   A    
C24   O8    A    
C14   N2    A    
C18   C22   A    
C26   C28   A    
C5    C8    A    
C2    O4    A    
C6    C7    A    
C25   C27   A    
C12   H10   S    
O5    Zn1   S    
O26   H19   S    
O6    Zn2   S    
C16   N2    A    
C36   C38   A    
C1    O1    A    
O12   H12   S    
C29   C31   T    
C2    O2    A    
C30   C32   T    
C11   C13   A    
C50   O24   S    
C4    C42   A    
C17   C19   A    
C27   C49   S    
C18   C20   A    
C44   O11   D    
C24   C30   S    
C11   H9    S    
O16   H14   S    
C10   C44   S    
C23   O7    A    
C8    C10   A    
C43   O9    D    
C6    C42   A    
O28   H20   S    
C49   O21   D    
C17   C21   A    
