data_mof_unit_2992.cif
_audit_creation_date              2012-12-11T16:23:20-0500
_audit_creation_method            fapswitch 2.2
_symmetry_space_group_name_H-M    P1
_symmetry_Int_Tables_number       1
_space_group_crystal_system       triclinic
_cell_length_a                    20.444803
_cell_length_b                    7.308152
_cell_length_c                    19.588846
_cell_angle_alpha                 89.800691
_cell_angle_beta                  98.835506
_cell_angle_gamma                 89.262527
_cell_volume                      2891.82714984

loop_
_atom_site_label
_atom_site_type_symbol
_atom_type_description
_atom_site_fract_x
_atom_site_fract_y
_atom_site_fract_z
_atom_type_partial_charge
O1    O     O_R   0.188410 0.619490 0.310050 -0.505838
O2    O     O_R   0.811590 0.380510 0.689950 -0.505806
O3    O     O_R   0.311590 0.119490 0.189950 -0.508521
O4    O     O_R   0.688410 0.880510 0.810050 -0.506232
O5    O     O_R   0.327280 0.288800 0.321740 -0.522130
O6    O     O_R   0.672720 0.711200 0.678260 -0.523528
O7    O     O_R   0.172720 0.788800 0.178260 -0.530929
O8    O     O_R   0.827280 0.211200 0.821740 -0.532284
C1    C     C_R   0.350994 0.456119 0.338935 0.781840
C2    C     C_R   0.649001 0.543884 0.661092 0.777540
C3    C     C_R   0.149213 0.957752 0.160983 0.783643
C4    C     C_R   0.850412 0.040840 0.839276 0.772637
O9    O     O_R   0.189900 0.289710 0.318190 -0.513628
O10   O     O_R   0.810100 0.710290 0.681810 -0.514784
O11   O     O_R   0.310100 0.789710 0.181810 -0.512035
O12   O     O_R   0.689900 0.210290 0.818190 -0.520716
O13   O     O_R   0.173230 0.120350 0.186370 -0.549306
O14   O     O_R   0.826770 0.879650 0.813630 -0.526851
O15   O     O_R   0.326770 0.620350 0.313630 -0.520618
O16   O     O_R   0.673230 0.379650 0.686370 -0.520676
C5    C     C_R   0.170354 0.459659 0.334820 0.786556
C6    C     C_R   0.829730 0.540360 0.665269 0.787895
C7    C     C_R   0.331180 0.959263 0.166924 0.817697
C8    C     C_R   0.669610 0.042201 0.833919 0.798997
O17   O     O_3   0.244690 0.453290 0.206760 -0.391199
O18   O     O_3   0.755310 0.546710 0.793240 -0.383524
O19   O     O_3   0.255310 0.953290 0.293240 -0.371078
O20   O     O_3   0.744690 0.046710 0.706760 -0.372841
V1    V     V_3+5 0.250980 0.178070 0.258020 1.610933
V2    V     V_3+5 0.749020 0.821930 0.741980 1.634305
V3    V     V_3+5 0.249020 0.678070 0.241980 1.616452
V4    V     V_3+5 0.750980 0.321930 0.758020 1.621239
C9    C     C_R   0.450709 0.161191 0.054239 0.330183
C10   C     C_R   0.550503 0.854095 0.948928 0.355484
C11   C     C_R   0.052594 0.655697 0.452459 0.351059
C12   C     C_R   0.947840 0.344086 0.548098 0.350363
C13   C     C_R   0.412873 0.142755 0.107580 0.295392
C14   C     C_R   0.589221 0.866880 0.896260 0.277773
C15   C     C_R   0.092966 0.644224 0.400950 0.300333
C16   C     C_R   0.907492 0.355870 0.599613 0.299525
C17   C     C_R   0.377940 0.977807 0.114533 -0.372014
C18   C     C_R   0.623003 0.031345 0.886451 -0.383270
C19   C     C_R   0.125134 0.475781 0.388929 -0.395010
C20   C     C_R   0.875132 0.524237 0.611345 -0.394403
C21   C     C_R   0.380072 0.844595 0.062254 0.316067
C22   C     C_R   0.616549 0.176803 0.933428 0.323963
C23   C     C_R   0.119013 0.330579 0.436113 0.340492
C24   C     C_R   0.881300 0.669310 0.564114 0.339673
C25   C     C_R   0.424320 0.862560 0.013601 0.483466
C26   C     C_R   0.574214 0.158815 0.983904 0.451252
C27   C     C_R   0.075328 0.347891 0.485253 0.462016
C28   C     C_R   0.924982 0.651723 0.514976 0.461995
C29   C     C_R   0.470079 0.007486 0.019388 -0.169317
C30   C     C_R   0.530362 0.009860 0.981733 -0.179842
C31   C     C_R   0.030799 0.498355 0.482148 -0.196206
C32   C     C_R   0.969514 0.501231 0.518165 -0.195123
C33   C     C_R   0.087724 0.960207 0.108106 -0.199769
C34   C     C_R   0.911869 0.031291 0.891688 -0.229314
C35   C     C_R   0.411856 0.454762 0.392811 -0.237475
C36   C     C_R   0.588152 0.545255 0.607234 -0.235552
C37   C     C_R   0.028879 0.099682 0.924177 -0.183408
C38   C     C_R   0.973452 0.865162 0.072101 -0.180230
C39   C     C_R   0.481260 0.683528 0.559018 -0.178780
C40   C     C_R   0.518780 0.316594 0.441036 -0.178424
C41   C     C_R   0.970414 0.111975 0.877090 0.342133
C42   C     C_R   0.029427 0.877027 0.122714 0.329433
C43   C     C_R   0.536209 0.673204 0.611128 0.339800
C44   C     C_R   0.463756 0.326577 0.389006 0.339999
C45   C     C_R   0.913019 0.944735 0.957040 0.362483
C46   C     C_R   0.089358 0.018555 0.039407 0.318937
C47   C     C_R   0.583640 0.432001 0.547863 0.391091
C48   C     C_R   0.416434 0.568320 0.452116 0.391445
C49   C     C_R   0.971679 0.945412 0.006711 -0.038506
C50   C     C_R   0.030212 0.023050 0.990234 -0.035756
C51   C     C_R   0.525728 0.436448 0.497336 -0.053167
C52   C     C_R   0.474343 0.563844 0.502656 -0.052706
H1    H     H_    0.072593 0.157358 0.908698 0.186165
H2    H     H_    0.931340 0.791308 0.084530 0.198725
H3    H     H_    0.443546 0.786508 0.563169 0.200421
H4    H     H_    0.556497 0.213591 0.436916 0.200652
Cl1   Cl    Cl    0.441951 0.369535 0.009374 -0.418775
Cl2   Cl    Cl    0.553291 0.646338 0.992879 -0.441758
Cl3   Cl    Cl    0.057796 0.854205 0.501984 -0.440825
Cl4   Cl    Cl    0.942766 0.144988 0.498929 -0.440552
Cl5   Cl    Cl    0.408996 0.338346 0.160128 -0.473780
Cl6   Cl    Cl    0.589249 0.672705 0.842513 -0.471902
Cl7   Cl    Cl    0.101083 0.849188 0.355288 -0.445752
Cl8   Cl    Cl    0.899892 0.151476 0.645864 -0.446567
O21   O     O_3   0.337790 0.698407 0.056441 -0.489217
C53   C     C_3   0.274364 0.760505 0.025676 0.169621
H5    H     H_    0.273744 0.795910 0.970605 0.097184
H6    H     H_    0.257178 0.880986 0.052339 0.116420
C54   C     C_3   0.225890 0.609177 0.029492 -0.649428
H7    H     H_    0.215065 0.593514 0.082823 0.222213
H8    H     H_    0.179103 0.636877 0.993798 0.187778
H9    H     H_    0.249818 0.482670 0.014848 0.232512
O22   O     O_3   0.644982 0.345371 0.926481 -0.466727
C55   C     C_3   0.709139 0.349050 0.964943 0.198774
H10   H     H_    0.744483 0.285695 0.934398 0.069661
H11   H     H_    0.712612 0.279046 0.015865 0.068660
C56   C     C_3   0.730021 0.546140 0.977899 -0.581109
H12   H     H_    0.698254 0.614390 0.011571 0.225147
H13   H     H_    0.782222 0.547933 0.003845 0.165879
H14   H     H_    0.726294 0.622336 0.928308 0.242511
O23   O     O_3   0.152826 0.166667 0.433843 -0.467547
C57   C     C_3   0.217884 0.183293 0.468982 0.174295
H15   H     H_    0.220020 0.254731 0.519328 0.065600
H16   H     H_    0.248233 0.256508 0.435926 0.065051
C58   C     C_3   0.248155 0.994095 0.482771 -0.563136
H17   H     H_    0.246521 0.918539 0.433488 0.247447
H18   H     H_    0.300567 0.007099 0.507214 0.161960
H19   H     H_    0.220373 0.916942 0.517704 0.219306
O24   O     O_3   0.847689 0.833544 0.566485 -0.467832
C59   C     C_3   0.782675 0.817739 0.531129 0.174544
H20   H     H_    0.752137 0.744325 0.563936 0.063784
H21   H     H_    0.780593 0.746858 0.480679 0.066220
C60   C     C_3   0.752630 0.007289 0.517575 -0.564252
H22   H     H_    0.780494 0.084504 0.482733 0.219229
H23   H     H_    0.700202 0.994873 0.493113 0.162461
H24   H     H_    0.754349 0.082473 0.566947 0.246602
O25   O     O_3   0.417965 0.747989 0.956855 -0.471656
C61   C     C_3   0.375460 0.828598 0.900326 0.109262
H25   H     H_    0.352805 0.962901 0.911713 0.062793
H26   H     H_    0.334386 0.732529 0.884266 0.144802
C62   C     C_3   0.411905 0.853546 0.838813 -0.570929
H27   H     H_    0.438378 0.725064 0.828886 0.277493
H28   H     H_    0.375875 0.888933 0.792100 0.167691
H29   H     H_    0.447638 0.966841 0.848554 0.213310
O26   O     O_3   0.580267 0.282544 0.037582 -0.473372
C63   C     C_3   0.610920 0.196323 0.099243 0.145087
H30   H     H_    0.655469 0.115111 0.091279 0.049962
H31   H     H_    0.576030 0.103750 0.120117 0.133750
C64   C     C_3   0.632165 0.342170 0.152946 -0.581362
H32   H     H_    0.588305 0.422820 0.163190 0.264649
H33   H     H_    0.656112 0.276668 0.201847 0.158557
H34   H     H_    0.667954 0.435539 0.133953 0.203901
O27   O     O_3   0.081085 0.223146 0.539059 -0.470530
C65   C     C_3   0.109928 0.307902 0.601060 0.146901
H35   H     H_    0.074471 0.405304 0.619698 0.136267
H36   H     H_    0.155626 0.383168 0.594539 0.054514
C66   C     C_3   0.128246 0.161516 0.656252 -0.559311
H37   H     H_    0.164433 0.063018 0.639589 0.205763
H38   H     H_    0.150727 0.225855 0.705434 0.157603
H39   H     H_    0.083255 0.086783 0.665005 0.271664
O28   O     O_3   0.919365 0.776543 0.461198 -0.470665
C67   C     C_3   0.890608 0.691928 0.399134 0.145537
H40   H     H_    0.844756 0.617216 0.405503 0.054092
H41   H     H_    0.926005 0.594064 0.380649 0.136013
C68   C     C_3   0.872684 0.838345 0.343873 -0.558858
H42   H     H_    0.917839 0.912526 0.335283 0.272387
H43   H     H_    0.850271 0.774119 0.294643 0.157452
H44   H     H_    0.836558 0.937311 0.360368 0.205606
O29   O     O_3   0.149448 0.013572 0.015806 -0.576441
C69   C     C_3   0.173452 0.190235 0.007814 0.032016
H45   H     H_    0.207809 0.224613 0.055502 0.143532
H46   H     H_    0.134032 0.298597 0.999378 0.128787
C70   C     C_3   0.211183 0.187624 0.946014 -0.732628
H47   H     H_    0.263879 0.149344 0.963345 0.195639
H48   H     H_    0.208628 0.323598 0.920294 0.201016
H49   H     H_    0.189459 0.087154 0.906785 0.240141
O30   O     O_3   0.857291 0.858045 0.972711 -0.558898
C71   C     C_3   0.814199 0.987104 0.997089 0.060707
H50   H     H_    0.764672 0.972533 0.965441 0.101536
H51   H     H_    0.829560 0.132427 0.993478 0.090085
C72   C     C_3   0.807554 0.948061 0.072241 -0.731544
H52   H     H_    0.851411 0.998765 0.107122 0.225176
H53   H     H_    0.763471 0.020784 0.085657 0.169845
H54   H     H_    0.802116 0.799506 0.081119 0.230494
O31   O     O_3   0.362197 0.671870 0.464192 -0.556042
C73   C     C_3   0.319325 0.560086 0.496401 0.052721
H55   H     H_    0.329373 0.410523 0.492640 0.084342
H56   H     H_    0.267851 0.586476 0.470460 0.117253
C74   C     C_3   0.323221 0.604628 0.572962 -0.722669
H57   H     H_    0.369092 0.544544 0.602674 0.230751
H58   H     H_    0.280263 0.544367 0.592971 0.176334
H59   H     H_    0.322734 0.754304 0.581493 0.228735
O32   O     O_3   0.637910 0.328612 0.535770 -0.556160
C75   C     C_3   0.680796 0.440623 0.503673 0.053825
H60   H     H_    0.732265 0.414147 0.529614 0.116566
H61   H     H_    0.670763 0.590169 0.507559 0.084228
C76   C     C_3   0.676926 0.396428 0.427087 -0.724553
H62   H     H_    0.630955 0.456083 0.397425 0.230364
H63   H     H_    0.719779 0.457314 0.407078 0.175483
H64   H     H_    0.677644 0.246782 0.418503 0.229273
Cl9   Cl    Cl    0.025143 0.772115 0.202561 -0.607645
Cl10  Cl    Cl    0.973603 0.232220 0.799918 -0.596919
Cl11  Cl    Cl    0.462836 0.172282 0.319969 -0.598009
Cl12  Cl    Cl    0.536960 0.826505 0.680457 -0.598679

loop_
_geom_bond_atom_site_label_1
_geom_bond_atom_site_label_2
_ccdc_geom_bond_type
O17   V3    S    
C31   C32   S    
O1    C5    A    
C72   H52   S    
O19   V1    S    
C46   O29   S    
O13   V1    S    
C49   C50   A    
O3    C7    A    
C15   Cl7   S    
C33   C42   A    
C48   C52   A    
O15   V3    S    
C3    C33   S    
C60   H23   S    
C59   H20   S    
C39   H3    S    
C74   H57   S    
O7    C3    A    
C54   H7    S    
C57   H16   S    
C14   Cl6   S    
C40   C44   A    
O9    V1    S    
C54   H9    S    
C45   O30   S    
C14   C18   A    
C66   H38   S    
O4    C8    A    
C75   H61   S    
C76   H64   S    
C39   C52   A    
C71   C72   S    
O22   C55   S    
O1    V3    S    
C8    C18   S    
O2    V4    S    
C18   C22   A    
O3    V1    S    
C54   H8    S    
C58   H18   S    
C5    C19   S    
C28   C32   A    
C1    O15   A    
C70   H47   S    
C6    C20   S    
C73   H55   S    
C44   Cl11  S    
C2    O16   A    
C23   O23   S    
C46   C50   A    
C64   H34   S    
C38   C49   A    
C45   C49   A    
C63   H31   S    
O14   V2    S    
C33   C46   A    
C21   O21   S    
C16   C20   A    
C69   H46   S    
C35   C48   A    
C4    C34   S    
O11   C7    A    
O27   C65   S    
O12   C8    A    
C60   H24   S    
O10   C6    A    
C40   H4    S    
O10   V2    S    
O28   C67   S    
C67   H41   S    
C74   H58   S    
C9    C29   A    
C59   C60   S    
C39   C43   A    
O7    V3    S    
C38   C42   A    
C11   C31   A    
O8    V4    S    
C56   H12   S    
C75   H60   S    
C12   C16   A    
C36   C43   A    
C69   C70   S    
C76   H63   S    
C37   H1    S    
C28   O28   S    
C11   Cl3   S    
O18   V4    S    
C15   C19   A    
C36   C47   A    
C76   H62   S    
C9    C13   A    
C58   H19   S    
C1    C35   S    
C70   H48   S    
C11   C15   A    
C51   C52   A    
O5    C1    A    
C12   C32   A    
C26   O26   S    
C23   C27   A    
C35   C44   A    
C62   H29   S    
C67   C68   S    
C34   C41   A    
C53   H6    S    
C21   C25   A    
O8    C4    A    
C25   O25   S    
C4    O14   A    
C69   H45   S    
O9    C5    A    
O31   C73   S    
C26   C30   A    
O11   V3    S    
O25   C61   S    
C67   H40   S    
C65   H36   S    
O32   C75   S    
C27   O27   S    
O6    V2    S    
C22   O22   S    
C10   C30   A    
C72   H54   S    
C55   H11   S    
C62   H27   S    
C68   H44   S    
C63   C64   S    
O12   V4    S    
C61   H26   S    
O21   C53   S    
O5    V1    S    
C43   Cl12  S    
C53   C54   S    
C64   H33   S    
O24   C59   S    
O16   V4    S    
C74   H59   S    
C13   Cl5   S    
C41   Cl10  S    
C3    O13   A    
C10   C14   A    
C38   H2    S    
C19   C23   A    
C65   C66   S    
O6    C2    A    
C59   H21   S    
C34   C45   A    
C29   C30   S    
C66   H39   S    
C37   C50   A    
C71   H50   S    
C55   C56   S    
O23   C57   S    
C22   C26   A    
C60   H22   S    
C7    C17   S    
C56   H13   S    
C48   O31   S    
C47   O32   S    
C61   C62   S    
C68   H43   S    
C63   H30   S    
O26   C63   S    
C71   H51   S    
O30   C71   S    
C68   H42   S    
C47   C51   A    
C70   H49   S    
C16   Cl8   S    
C53   H5    S    
C64   H32   S    
C73   H56   S    
C12   Cl4   S    
C25   C29   A    
O20   V2    S    
O2    C6    A    
C40   C51   A    
C27   C31   A    
C13   C17   A    
C75   C76   S    
C2    C36   S    
C65   H35   S    
C37   C41   A    
C24   C28   A    
C72   H53   S    
C55   H10   S    
C57   H15   S    
C42   Cl9   S    
C58   H17   S    
C62   H28   S    
C17   C21   A    
C56   H14   S    
C10   Cl2   S    
C61   H25   S    
C66   H37   S    
C9    Cl1   S    
C73   C74   S    
O4    V2    S    
C20   C24   A    
C24   O24   S    
O29   C69   S    
C57   C58   S    
