data_mof_unit_4585.cif
_audit_creation_date              2012-12-11T14:48:13-0500
_audit_creation_method            fapswitch 2.2
_symmetry_space_group_name_H-M    P1
_symmetry_Int_Tables_number       1
_space_group_crystal_system       triclinic
_cell_length_a                    11.520664
_cell_length_b                    11.474302
_cell_length_c                    19.449941
_cell_angle_alpha                 90.352389
_cell_angle_beta                  89.891486
_cell_angle_gamma                 60.020006
_cell_volume                      2227.02384615

loop_
_atom_site_label
_atom_site_type_symbol
_atom_type_description
_atom_site_fract_x
_atom_site_fract_y
_atom_site_fract_z
_atom_type_partial_charge
C1    C     C_R   0.640801 0.118123 0.598941 0.557241
C2    C     C_1   0.653220 0.150827 0.668309 0.009028
C3    C     C_R   0.585916 0.607786 0.311464 -0.017732
C4    C     C_R   0.612964 0.744788 0.598281 0.544923
C5    C     C_R   0.585169 0.608563 0.240476 -0.216871
C6    C     C_R   0.681273 0.623897 0.203283 -0.070497
C7    C     C_R   0.785241 0.628524 0.238559 0.432435
C8    C     C_R   0.782092 0.634907 0.309903 0.429274
C9    C     C_R   0.672434 0.642548 0.345448 -0.047376
C10   C     C_R   0.260831 0.236659 0.284778 -0.169185
C11   C     C_R   0.212285 0.264396 0.218492 -0.118609
C12   C     C_1   0.641864 0.702234 0.667619 0.012371
C13   C     C_R   0.166483 0.185178 0.186881 -0.047261
C14   C     C_R   0.183010 0.069324 0.219885 -0.084967
C15   C     C_R   0.233846 0.039977 0.286463 0.381094
C16   C     C_R   0.237627 0.146855 0.597302 0.558950
C17   C     C_R   0.266232 0.128356 0.320711 0.011938
C18   C     C_R   0.716899 0.010882 0.278060 0.408194
C19   C     C_R   0.728622 0.039546 0.210321 0.422213
C20   C     C_R   0.660201 0.173734 0.187570 -0.041795
C21   C     C_R   0.567716 0.275509 0.230912 -0.216950
C22   C     C_R   0.553390 0.245577 0.298293 -0.208988
C23   C     C_1   0.061337 0.235802 0.850699 0.003350
C24   C     C_R   0.631939 0.113844 0.323028 -0.047500
C25   C     C_R   0.023651 0.264255 0.921631 0.545195
C26   C     C_R   0.683553 0.605707 0.929752 0.542966
C27   C     C_R   0.707947 0.206381 0.930355 0.540796
C28   C     C_R   0.620698 0.082336 0.394415 0.559261
C29   C     C_R   0.086683 0.234091 0.124385 0.554949
C30   C     C_R   0.687902 0.600369 0.129510 0.588123
C31   C     C_R   0.705152 0.208476 0.124988 0.571972
C32   C     C_R   0.622598 0.727743 0.406687 0.578082
C33   C     C_R   0.302563 0.114283 0.393637 0.544195
C34   C     C_1   0.131722 0.191173 0.721263 -0.025350
C35   C     C_1   0.670498 0.647527 0.860282 0.007765
C36   C     C_1   0.655515 0.682519 0.728218 -0.028540
C37   C     C_1   0.663949 0.666843 0.799625 -0.029945
C38   C     C_2   0.494575 0.573103 0.348876 0.635666
C39   C     C_1   0.091938 0.214505 0.790836 -0.027338
C40   C     C_1   0.173771 0.171361 0.663168 0.007407
C41   C     C_1   0.678245 0.191022 0.860954 0.009459
C42   C     C_1   0.658572 0.168206 0.728868 -0.028157
C43   C     C_1   0.665419 0.181189 0.800332 -0.027921
Cr1   Cr    Cr6+3 0.404720 0.198220 0.499960 1.047331
Cr2   Cr    Cr6+3 0.698290 0.897110 0.500380 1.130064
Cr3   Cr    Cr6+3 0.396970 0.904720 0.499610 1.116455
Cr4   Cr    Cr6+3 0.926180 0.152240 0.028110 1.085675
Cr5   Cr    Cr6+3 0.921340 0.452070 0.027460 1.106837
Cr6   Cr    Cr6+3 0.626260 0.447120 0.028700 1.041305
F1    F     F_    0.812892 0.936721 0.168169 -0.532178
F2    F     F_    0.888034 0.629030 0.204540 -0.509320
F3    F     F_    0.881628 0.641146 0.344016 -0.506530
F4    F     F_    0.244483 0.929842 0.317965 -0.568280
F5    F     F_    0.792255 0.883129 0.300217 -0.513016
H1    H     H_    0.512493 0.378925 0.214116 0.174929
H2    H     H_    0.484074 0.326535 0.331538 0.195236
H3    H     H_    0.512240 0.591051 0.214410 0.196427
H4    H     H_    0.287852 0.304694 0.309142 0.173039
H5    H     H_    0.203258 0.352866 0.193745 0.197205
H6    H     H_    0.150467 0.005306 0.195690 0.183629
H7    H     H_    0.460675 0.494700 0.434066 0.340885
O1    O     O_R   0.267740 0.231990 0.575440 -0.493586
O2    O     O_R   0.596140 0.579600 0.952720 -0.497577
O3    O     O_R   0.639070 0.321380 0.958660 -0.496391
O4    O     O_R   0.527280 0.186680 0.570530 -0.490040
O5    O     O_R   0.821240 0.124490 0.104360 -0.433303
O6    O     O_R   0.036900 0.167320 0.097830 -0.500290
O7    O     O_R   0.056190 0.349890 0.102870 -0.475264
O8    O     O_R   0.797670 0.565150 0.097930 -0.420451
O9    O     O_R   0.595880 0.584540 0.104260 -0.526004
O10   O     O_R   0.638830 0.325960 0.099140 -0.516344
O11   O     O_3   0.824590 0.350480 0.028090 -0.302612
O12   O     O_R   0.685970 0.784630 0.430010 -0.442408
O13   O     O_R   0.728090 0.003480 0.576380 -0.496486
O14   O     O_R   0.682970 0.789220 0.570490 -0.497756
O15   O     O_R   0.499290 0.771920 0.575530 -0.498978
O16   O     O_R   0.285330 0.030900 0.569730 -0.489181
O17   O     O_R   0.270980 0.227040 0.423900 -0.503705
O18   O     O_R   0.530280 0.182090 0.430050 -0.532221
O19   O     O_R   0.731330 0.998530 0.424830 -0.403506
O20   O     O_2   0.389367 0.594176 0.322735 -0.462922
O21   O     O_R   0.530283 0.514278 0.413857 -0.678488
O22   O     O_R   0.502530 0.766960 0.423990 -0.465020
O23   O     O_R   0.288330 0.026310 0.429250 -0.412557
O24   O     O_3   0.499990 0.000020 0.499980 -0.330068
O25   O     O_R   0.821500 0.119550 0.952820 -0.502172
O26   O     O_R   0.037130 0.162750 0.957360 -0.489329
O27   O     O_R   0.056440 0.344950 0.951330 -0.497393
O28   O     O_R   0.797900 0.560570 0.957460 -0.507507

loop_
_geom_bond_atom_site_label_1
_geom_bond_atom_site_label_2
_ccdc_geom_bond_type
C31   O5    A    
Cr6   O2    S    
C19   C20   A    
Cr5   O8    S    
Cr3   O15   S    
C7    C8    A    
C26   O28   A    
C16   O1    A    
C34   C40   T    
C1    O13   A    
C15   F4    S    
C13   C29   S    
C36   C37   S    
C35   C37   T    
C16   O16   A    
H7    O21   S    
C5    C6    A    
C33   O17   A    
C10   C17   A    
C25   O26   A    
Cr2   O12   S    
C1    C2    S    
C28   O18   A    
C4    O14   A    
C9    C32   S    
C29   O6    A    
C3    C38   S    
C8    C9    A    
Cr6   O11   S    
C1    O4    A    
Cr5   O27   S    
C18   C24   A    
C12   C36   T    
C8    F3    S    
Cr4   O5    S    
Cr3   O24   S    
C31   O10   A    
Cr6   O3    S    
C21   C22   A    
C38   O21   S    
C41   C43   T    
Cr1   O4    S    
C17   C33   S    
Cr5   O11   S    
C11   H5    S    
Cr4   O6    S    
C30   O9    A    
C34   C39   S    
Cr4   O25   S    
C10   C11   A    
C32   O12   A    
C21   H1    S    
C18   C19   A    
C22   H2    S    
Cr1   O1    S    
C25   O27   A    
Cr2   O13   S    
Cr4   O26   S    
C27   O25   A    
Cr2   O24   S    
C26   O2    A    
C3    C9    A    
C29   O7    A    
C27   C41   S    
Cr5   O7    S    
C16   C40   S    
Cr3   O23   S    
C6    C30   S    
Cr6   O9    S    
C38   O20   D    
C22   C24   A    
C4    C12   S    
C42   C43   S    
Cr1   O24   S    
C30   O8    A    
C15   C17   A    
C32   O22   A    
C10   H4    S    
Cr1   O18   S    
C24   C28   S    
C3    C5    A    
Cr3   O16   S    
C6    C7    A    
C14   H6    S    
C5    H3    S    
Cr2   O14   S    
Cr1   O17   S    
C7    F2    S    
C11   C13   A    
C19   F1    S    
C2    C42   T    
C23   C39   T    
Cr2   O19   S    
C23   C25   S    
C28   O19   A    
C33   O23   A    
Cr4   O11   S    
C4    O15   A    
C27   O3    A    
C18   F5    S    
Cr3   O22   S    
C26   C35   S    
C20   C21   A    
Cr6   O10   S    
C14   C15   A    
C13   C14   A    
Cr5   O28   S    
C20   C31   S    
