data_mof_unit_1286.cif
_audit_creation_date              2012-12-10T19:32:20-0500
_audit_creation_method            fapswitch 2.2
_symmetry_space_group_name_H-M    P1
_symmetry_Int_Tables_number       1
_space_group_crystal_system       triclinic
_cell_length_a                    23.381683
_cell_length_b                    15.728583
_cell_length_c                    14.930649
_cell_angle_alpha                 91.528627
_cell_angle_beta                  90.413133
_cell_angle_gamma                 90.043675
_cell_volume                      5488.80726171

loop_
_atom_site_label
_atom_site_type_symbol
_atom_type_description
_atom_site_fract_x
_atom_site_fract_y
_atom_site_fract_z
_atom_type_partial_charge
C1    C     C_R   0.500180 0.337461 0.498868 0.901595
C2    C     C_R   0.704356 0.538218 0.430881 0.437726
C3    C     C_R   0.239635 0.551406 0.421077 -0.217446
C4    C     C_R   0.763585 0.546644 0.439233 -0.229014
C5    C     C_R   0.208328 0.527497 0.495515 0.268533
C6    C     C_R   0.791916 0.517545 0.515111 0.283502
C7    C     C_3   0.557509 0.970566 0.486869 0.480257
C8    C     C_3   0.451673 0.027659 0.510685 0.451464
C9    C     C_3   0.523765 0.023096 0.419283 0.422130
C10   C     C_3   0.485680 0.976327 0.578416 0.418177
C11   C     C_1   0.501939 0.248617 0.496348 -0.175210
C12   C     C_R   0.500015 0.662358 0.501132 0.900482
C13   C     C_1   0.501268 0.750860 0.503669 -0.191426
C14   C     C_3   0.539765 0.031101 0.565215 -0.426330
C15   C     C_3   0.469473 0.967669 0.432267 -0.543128
C16   C     C_R   0.389038 0.502653 0.499579 0.894625
C17   C     C_R   0.611019 0.500883 0.500376 0.911069
C18   C     C_3   0.505086 0.082699 0.496575 -0.048311
C19   C     C_3   0.504009 0.916222 0.501589 -0.070532
C20   C     C_1   0.503627 0.173407 0.495378 0.082088
C21   C     C_1   0.502584 0.825874 0.504173 0.038963
C22   C     C_3   0.461289 0.443978 0.966994 -0.196997
C23   C     C_R   0.236140 0.499447 0.572479 -0.093990
C24   C     C_3   0.536432 0.559918 0.033082 -0.199968
C25   C     C_3   0.514090 0.425179 0.026232 0.176247
C26   C     C_3   0.483656 0.578692 0.973764 0.167721
C27   C     C_3   0.446159 0.520270 0.031075 -0.192936
C28   C     C_3   0.551581 0.483607 0.969101 -0.194229
C29   C     C_3   0.499160 0.500596 0.089592 0.061941
C30   C     C_3   0.498676 0.503137 0.910495 0.053516
C31   C     C_1   0.499660 0.500082 0.189770 0.020497
C32   C     C_1   0.499324 0.501670 0.810258 0.032995
C33   C     C_R   0.879407 0.597235 0.521309 0.506387
C34   C     C_R   0.761391 0.482232 0.584885 -0.101711
C35   C     C_R   0.119564 0.451705 0.488418 0.503968
C36   C     C_R   0.882079 0.446062 0.509623 0.492966
C37   C     C_R   0.119288 0.603392 0.488260 0.501544
C38   C     C_R   0.941840 0.446829 0.510130 -0.075175
C39   C     C_R   0.058829 0.605663 0.481999 -0.066608
C40   C     C_R   0.969884 0.526020 0.498885 -0.072415
C41   C     C_R   0.029508 0.527272 0.487948 -0.070543
C42   C     C_R   0.938524 0.603272 0.501941 -0.064822
C43   C     C_R   0.059860 0.449246 0.481979 -0.082412
C44   C     C_R   0.973941 0.370665 0.512573 0.104363
C45   C     C_R   0.295280 0.491922 0.573705 -0.291621
C46   C     C_R   0.027078 0.682216 0.469747 0.073801
C47   C     C_R   0.029497 0.371398 0.477961 0.102293
C48   C     C_R   0.966427 0.681667 0.481634 0.074452
C49   C     C_3   0.953876 0.292534 0.562462 -0.376225
C50   C     C_3   0.992533 0.276321 0.644043 -0.386451
C51   C     C_3   0.973796 0.196945 0.692669 -0.871362
C52   C     C_3   0.056282 0.760572 0.431965 -0.358686
C53   C     C_3   0.072043 0.827266 0.505671 -0.285525
C54   C     C_3   0.100995 0.904426 0.465829 -0.886219
C55   C     C_3   0.531110 0.336193 0.054808 -0.433312
C56   C     C_R   0.702286 0.476540 0.579036 -0.291561
C57   C     C_3   0.545084 0.279182 0.972955 -0.334213
C58   C     C_3   0.559022 0.188891 0.000241 -0.894943
C59   C     C_3   0.466651 0.667618 0.944738 -0.426357
C60   C     C_3   0.452765 0.725381 0.026117 -0.345349
C61   C     C_3   0.439275 0.815726 0.998076 -0.890888
C62   C     C_3   0.051882 0.292014 0.428449 -0.371706
C63   C     C_3   0.013559 0.268054 0.347451 -0.385015
C64   C     C_3   0.034553 0.186955 0.299870 -0.875488
C65   C     C_3   0.931449 0.762749 0.465976 -0.357190
C66   C     C_3   0.895674 0.755224 0.379199 -0.316298
C67   C     C_R   0.327021 0.513080 0.498122 -0.154085
C68   C     C_3   0.854903 0.830345 0.370657 -0.857756
C69   C     C_3   0.342663 0.657126 0.356419 0.100352
C70   C     C_3   0.379414 0.682292 0.277077 -0.287280
C71   C     C_3   0.397789 0.775309 0.285185 -1.018300
C72   C     C_3   0.686575 0.516893 0.281664 0.103554
C73   C     C_3   0.665749 0.561056 0.197684 -0.327827
C74   C     C_3   0.676566 0.506269 0.113625 -0.984407
C75   C     C_3   0.525340 0.007703 0.264826 0.069762
C76   C     C_3   0.560303 0.028594 0.182379 -0.317314
C77   C     C_3   0.537805 0.980835 0.098998 -1.001286
C78   C     C_R   0.673344 0.504646 0.502519 -0.141940
C79   C     C_3   0.463115 0.010070 0.725096 0.088614
C80   C     C_3   0.432527 0.977566 0.807493 -0.319658
C81   C     C_3   0.435294 0.042140 0.885516 -0.986850
C82   C     C_3   0.622177 0.893908 0.399136 0.089099
C83   C     C_3   0.673538 0.834705 0.408805 -0.302663
C84   C     C_3   0.685061 0.784497 0.321949 -0.942404
C85   C     C_3   0.355203 0.997873 0.529009 0.123988
C86   C     C_3   0.317713 0.998074 0.444567 -0.352667
C87   C     C_3   0.273822 0.926179 0.444395 -0.965445
C88   C     C_R   0.299012 0.546259 0.422320 0.440564
H1    H     H_    0.430426 0.395872 0.940182 0.135546
H2    H     H_    0.787856 0.575031 0.386182 0.130188
H3    H     H_    0.440987 0.939524 0.379710 0.173428
H4    H     H_    0.568759 0.058587 0.617601 0.176156
H5    H     H_    0.929195 0.204222 0.716812 0.264698
H6    H     H_    0.976479 0.140097 0.647120 0.262962
H7    H     H_    0.002303 0.187158 0.751290 0.253810
H8    H     H_    0.037773 0.267990 0.623682 0.238054
H9    H     H_    0.990458 0.332005 0.691395 0.229587
H10   H     H_    0.910430 0.300622 0.590048 0.251389
H11   H     H_    0.953008 0.235614 0.516986 0.208046
H12   H     H_    0.566810 0.608801 0.059563 0.136378
H13   H     H_    0.140633 0.884839 0.430341 0.276550
H14   H     H_    0.071607 0.935675 0.418079 0.254140
H15   H     H_    0.112509 0.950997 0.520210 0.250223
H16   H     H_    0.033603 0.848977 0.542778 0.193344
H17   H     H_    0.101232 0.799733 0.556003 0.267875
H18   H     H_    0.094467 0.742577 0.392216 0.230168
H19   H     H_    0.029147 0.789298 0.379573 0.169091
H20   H     H_    0.596074 0.189024 0.047218 0.266048
H21   H     H_    0.521316 0.160170 0.032656 0.272285
H22   H     H_    0.570019 0.149656 0.939889 0.248480
H23   H     H_    0.594938 0.468091 0.943726 0.136122
H24   H     H_    0.507975 0.276860 0.925976 0.223106
H25   H     H_    0.582425 0.305500 0.937270 0.221503
H26   H     H_    0.569035 0.341162 0.099888 0.198190
H27   H     H_    0.495114 0.308466 0.092521 0.209423
H28   H     H_    0.477314 0.844363 0.966499 0.270269
H29   H     H_    0.402750 0.815676 0.950088 0.266688
H30   H     H_    0.427736 0.855206 0.058001 0.250676
H31   H     H_    0.415237 0.699635 0.061791 0.222475
H32   H     H_    0.489739 0.727626 0.073360 0.219235
H33   H     H_    0.502605 0.695027 0.906671 0.208888
H34   H     H_    0.402737 0.535679 0.056301 0.137583
H35   H     H_    0.428639 0.662339 0.899833 0.203330
H36   H     H_    0.078852 0.195692 0.275323 0.265661
H37   H     H_    0.033650 0.132893 0.346240 0.261253
H38   H     H_    0.006269 0.171523 0.241616 0.253898
H39   H     H_    0.968643 0.257987 0.368179 0.237871
H40   H     H_    0.013888 0.320795 0.299306 0.229282
H41   H     H_    0.094816 0.302045 0.400058 0.254038
H42   H     H_    0.054889 0.237949 0.474469 0.208258
H43   H     H_    0.824350 0.832135 0.427307 0.281028
H44   H     H_    0.879228 0.891023 0.370261 0.254382
H45   H     H_    0.211702 0.481428 0.630328 0.152401
H46   H     H_    0.830219 0.823585 0.307042 0.246071
H47   H     H_    0.924875 0.753417 0.320757 0.200172
H48   H     H_    0.870148 0.695731 0.376474 0.235273
H49   H     H_    0.905399 0.779756 0.525302 0.249892
H50   H     H_    0.957493 0.820694 0.460947 0.175894
H51   H     H_    0.367339 0.670511 0.419480 0.123823
H52   H     H_    0.302958 0.696326 0.356774 0.137490
H53   H     H_    0.418217 0.641587 0.274191 0.241685
H54   H     H_    0.354781 0.671953 0.213765 0.209413
H55   H     H_    0.359755 0.817585 0.287107 0.271203
H56   H     H_    0.783534 0.459386 0.643468 0.143583
H57   H     H_    0.424316 0.791604 0.226688 0.265288
H58   H     H_    0.423605 0.786228 0.347081 0.271866
H59   H     H_    0.662642 0.456174 0.288461 0.156036
H60   H     H_    0.732901 0.502346 0.273009 0.124576
H61   H     H_    0.619256 0.574486 0.203369 0.225819
H62   H     H_    0.688743 0.622503 0.191722 0.224237
H63   H     H_    0.722616 0.489697 0.108451 0.267332
H64   H     H_    0.664325 0.542081 0.053430 0.264348
H65   H     H_    0.650835 0.446971 0.115157 0.265753
H66   H     H_    0.479950 0.025872 0.252959 0.160622
H67   H     H_    0.316060 0.467967 0.632990 0.182646
H68   H     H_    0.528069 0.937804 0.274665 0.121672
H69   H     H_    0.558340 0.098112 0.171702 0.234907
H70   H     H_    0.605720 0.010758 0.193741 0.218466
H71   H     H_    0.540010 0.911080 0.108410 0.272016
H72   H     H_    0.564277 0.996774 0.040333 0.275255
H73   H     H_    0.492815 0.999223 0.085082 0.269744
H74   H     H_    0.439919 0.067101 0.701027 0.158949
H75   H     H_    0.507639 0.028035 0.744610 0.147038
H76   H     H_    0.387029 0.964067 0.790260 0.219634
H77   H     H_    0.452918 0.917404 0.828292 0.236718
H78   H     H_    0.679184 0.449693 0.634225 0.179685
H79   H     H_    0.480453 0.053946 0.905730 0.270868
H80   H     H_    0.412059 0.016880 0.943718 0.270036
H81   H     H_    0.415190 0.103041 0.866340 0.269941
H82   H     H_    0.631323 0.939800 0.345763 0.173898
H83   H     H_    0.584408 0.854451 0.379030 0.122412
H84   H     H_    0.712105 0.872793 0.427385 0.229052
H85   H     H_    0.665186 0.789370 0.463090 0.242993
H86   H     H_    0.647353 0.744766 0.302967 0.281385
H87   H     H_    0.722480 0.742132 0.331426 0.287516
H88   H     H_    0.694568 0.828435 0.266959 0.249091
H89   H     H_    0.217724 0.573214 0.361783 0.150570
H90   H     H_    0.327831 0.011801 0.588106 0.156296
H91   H     H_    0.373132 0.932893 0.538428 0.155126
H92   H     H_    0.295033 0.059985 0.440976 0.238024
H93   H     H_    0.344841 0.990513 0.384155 0.221071
H94   H     H_    0.295711 0.863519 0.445380 0.265145
H95   H     H_    0.247064 0.928583 0.382781 0.265816
H96   H     H_    0.245569 0.932837 0.503666 0.274010
N1    N     N_R   0.852779 0.520234 0.518466 -0.335002
N2    N     N_R   0.147409 0.527641 0.490756 -0.332071
N3    N     N_1   0.500020 0.500000 0.268010 -0.091780
N4    N     N_1   0.499980 0.500000 0.731990 -0.089845
O1    O     O_R   0.500000 0.376780 0.574460 -0.614115
O2    O     O_2   0.149831 0.379572 0.498796 -0.588501
O3    O     O_2   0.853018 0.372917 0.493981 -0.589098
O4    O     O_2   0.150258 0.675380 0.497125 -0.598746
O5    O     O_3   0.328941 0.569819 0.347372 -0.628913
O6    O     O_3   0.676565 0.570759 0.357211 -0.638675
O7    O     O_3   0.547191 0.054232 0.339588 -0.633542
O8    O     O_3   0.463986 0.944582 0.658840 -0.639319
O9    O     O_3   0.613929 0.938875 0.481073 -0.621315
O10   O     O_3   0.396905 0.062964 0.525032 -0.643881
O11   O     O_R   0.500000 0.623220 0.425540 -0.618401
O12   O     O_R   0.500010 0.376780 0.425520 -0.608209
O13   O     O_R   0.499990 0.623220 0.574480 -0.603687
O14   O     O_R   0.416150 0.499970 0.574490 -0.625169
O15   O     O_R   0.583850 0.500030 0.425510 -0.583942
O16   O     O_R   0.416160 0.499980 0.425550 -0.567232
O17   O     O_R   0.583840 0.500020 0.574450 -0.623654
O18   O     O_2   0.847933 0.666384 0.542615 -0.577921
Zn1   Zn    Zn3+2 0.499990 0.500000 0.599450 0.974678
Zn2   Zn    Zn3+2 0.500010 0.500000 0.400550 0.996235

loop_
_geom_bond_atom_site_label_1
_geom_bond_atom_site_label_2
_ccdc_geom_bond_type
C44   C49   S    
C69   H51   S    
C66   C68   S    
C82   H82   S    
N4    Zn1   S    
C34   C56   A    
C23   C45   A    
C73   H62   S    
C27   C29   S    
C36   O3    S    
C73   C74   S    
C62   H42   S    
C54   H13   S    
C8    O10   S    
C68   H46   S    
C1    C11   S    
C53   H17   S    
C47   C62   S    
C39   C41   A    
C53   C54   S    
C25   C28   S    
C15   C19   S    
C7    O9    S    
C6    N1    S    
C34   H56   S    
C67   C88   A    
C1    O1    A    
C33   C42   A    
C16   O16   A    
C19   C21   S    
C24   C26   S    
C87   H95   S    
C16   O14   A    
C57   H24   S    
C53   H16   S    
C58   H21   S    
C46   C52   S    
C56   C78   A    
C60   H31   S    
C68   H44   S    
C36   N1    A    
C17   O15   A    
C14   C18   S    
C24   C29   S    
C80   H76   S    
C49   H10   S    
C75   H68   S    
C81   H80   S    
C7    C14   S    
O16   Zn2   S    
C52   H19   S    
C85   H90   S    
C70   H53   S    
C22   C25   S    
N3    Zn2   S    
C45   C67   A    
C86   H93   S    
C17   O17   A    
C70   C71   S    
C45   H67   S    
C81   H81   S    
C48   C65   S    
C84   H87   S    
C35   C43   A    
C26   C59   S    
C58   H20   S    
C63   H40   S    
C64   H37   S    
C44   C47   A    
C65   H49   S    
C69   H52   S    
C40   C42   A    
C3    C88   A    
C52   H18   S    
C59   C60   S    
O12   Zn2   S    
C38   C40   A    
C24   H12   S    
C59   H35   S    
C41   C43   A    
C62   H41   S    
C74   H64   S    
C5    N2    S    
C87   H94   S    
C84   H86   S    
C69   O5    S    
C27   H34   S    
C4    H2    S    
O17   Zn1   S    
C28   H23   S    
C25   C29   S    
C76   H69   S    
C46   C48   A    
C33   O18   S    
C70   H54   S    
C32   N4    T    
C63   C64   S    
C61   H29   S    
C25   C55   S    
C54   H15   S    
C76   C77   S    
C82   O9    S    
C4    C6    A    
C10   C14   S    
C87   H96   S    
C23   H45   S    
C86   C87   S    
C72   C73   S    
C57   H25   S    
C51   H6    S    
C85   C86   S    
C11   C20   T    
C8    C18   S    
C79   O8    S    
C66   H47   S    
C74   H65   S    
C60   C61   S    
C2    O6    S    
C77   H73   S    
C68   H43   S    
C2    C4    A    
C75   C76   S    
C38   C44   A    
C62   C63   S    
C2    C78   A    
C10   O8    S    
C49   H11   S    
C85   O10   S    
C83   C84   S    
C5    C23   A    
C10   C19   S    
C85   H91   S    
C76   H70   S    
C83   H84   S    
C71   H58   S    
C61   H28   S    
C86   H92   S    
C50   C51   S    
O13   Zn1   S    
C13   C21   T    
C16   C67   S    
C42   C48   A    
C12   O13   A    
C81   H79   S    
C14   H4    S    
C51   H5    S    
C39   C46   A    
C66   H48   S    
C65   H50   S    
C8    C10   S    
C40   C41   A    
C71   H57   S    
C77   H71   S    
C49   C50   S    
C8    C15   S    
C7    C19   S    
C22   C27   S    
C83   H85   S    
C26   C27   S    
C64   H36   S    
C74   H63   S    
C1    O12   A    
C79   H74   S    
C31   N3    T    
C80   H77   S    
C52   C53   S    
C71   H55   S    
C7    C9    S    
C82   H83   S    
C50   H9    S    
O11   Zn2   S    
C22   C30   S    
C73   H61   S    
C61   H30   S    
C58   H22   S    
C88   O5    S    
C54   H14   S    
C24   C28   S    
C79   H75   S    
C80   C81   S    
C3    C5    A    
C9    O7    S    
C37   N2    A    
C26   C30   S    
C55   H26   S    
C35   O2    S    
C72   H59   S    
O15   Zn2   S    
C64   H38   S    
O14   Zn1   S    
C55   C57   S    
C3    H89   S    
C28   C30   S    
C29   C31   S    
C72   H60   S    
C30   C32   S    
C75   H66   S    
C50   H8    S    
C57   C58   S    
C55   H27   S    
O1    Zn1   S    
C35   N2    A    
C36   C38   A    
C17   C78   S    
C22   H1    S    
C60   H32   S    
C18   C20   S    
C65   C66   S    
C12   O11   A    
C69   C70   S    
C77   H72   S    
C15   H3    S    
C79   C80   S    
C6    C34   A    
C9    C18   S    
C37   O4    S    
C12   C13   S    
C37   C39   A    
C82   C83   S    
C56   H78   S    
C72   O6    S    
C33   N1    A    
C84   H88   S    
C59   H33   S    
C43   C47   A    
C63   H39   S    
C9    C15   S    
C51   H7    S    
C75   O7    S    
