data_mof_unit_2026.cif
_audit_creation_date              2013-03-05T15:42:51-0500
_audit_creation_method            fapswitch 2.2
_symmetry_space_group_name_H-M    P1
_symmetry_Int_Tables_number       1
_space_group_crystal_system       triclinic
_cell_length_a                    15.021105
_cell_length_b                    15.023569
_cell_length_c                    10.039926
_cell_angle_alpha                 90.003837
_cell_angle_beta                  93.733354
_cell_angle_gamma                 89.981131
_cell_volume                      2260.90795803

loop_
_atom_site_label
_atom_site_type_symbol
_atom_site_description
_atom_site_fract_x
_atom_site_fract_y
_atom_site_fract_z
_atom_type_partial_charge
O1    O     O_R   0.409520 0.909540 0.613040 -0.602043
O2    O     O_R   0.409520 0.090460 0.613040 -0.620355
O3    O     O_R   0.909520 0.409540 0.613040 -0.625755
O4    O     O_R   0.909520 0.590460 0.613040 -0.626767
O5    O     O_R   0.409560 0.909540 0.386900 -0.617140
O6    O     O_R   0.409560 0.090460 0.386900 -0.620917
O7    O     O_R   0.909560 0.409540 0.386900 -0.616317
O8    O     O_R   0.909560 0.590460 0.386900 -0.601768
C1    C     C_R   0.378853 0.883572 0.496222 0.788253
C2    C     C_R   0.383510 0.121508 0.496756 0.726051
C3    C     C_R   0.883836 0.378157 0.496823 0.732240
C4    C     C_R   0.877869 0.615555 0.496221 0.789667
Zn1   Zn    Zn3+2 0.499970 0.000000 0.650990 0.926687
Zn2   Zn    Zn3+2 0.999970 0.500000 0.650990 0.918924
Zn3   Zn    Zn3+2 0.500030 0.000000 0.349010 0.925626
Zn4   Zn    Zn3+2 0.000030 0.500000 0.349010 0.930799
O9    O     O_R   0.590440 0.090460 0.613100 -0.618966
O10   O     O_R   0.590440 0.909540 0.613100 -0.606286
O11   O     O_R   0.090440 0.590460 0.613100 -0.602538
O12   O     O_R   0.090440 0.409540 0.613100 -0.618667
O13   O     O_R   0.590480 0.090460 0.386960 -0.621961
O14   O     O_R   0.590480 0.909540 0.386960 -0.606752
O15   O     O_R   0.090480 0.590460 0.386960 -0.609010
O16   O     O_R   0.090480 0.409540 0.386960 -0.622720
C5    C     C_R   0.609980 0.127028 0.502104 0.896829
C6    C     C_R   0.626986 0.889905 0.503972 0.932385
C7    C     C_R   0.127092 0.609837 0.503944 0.929324
C8    C     C_R   0.110007 0.373016 0.502028 0.898176
C9    C     C_2   0.761687 0.827253 0.411475 0.240980
C10   C     C_2   0.671687 0.261369 0.400298 0.228181
C11   C     C_2   0.172166 0.239370 0.399339 0.227472
C12   C     C_2   0.261061 0.672971 0.410708 0.233691
C13   C     C_2   0.714087 0.846819 0.518067 0.070916
C14   C     C_2   0.650492 0.215349 0.510346 0.079397
C15   C     C_2   0.150443 0.284703 0.509740 0.077226
C16   C     C_2   0.214549 0.652120 0.517730 0.068043
C17   C     C_2   0.242632 0.173018 0.414194 -0.256010
C18   C     C_2   0.327506 0.742947 0.424965 -0.260006
C19   C     C_2   0.827840 0.756764 0.425438 -0.240986
C20   C     C_2   0.742215 0.327754 0.415493 -0.251551
C21   C     C_2   0.319135 0.192367 0.484599 0.343935
C22   C     C_2   0.307893 0.820206 0.483033 0.319427
C23   C     C_2   0.807275 0.679763 0.483497 0.314456
C24   C     C_2   0.819002 0.307682 0.484795 0.338062
H1    H     H_    0.232611 0.109271 0.364184 0.103911
H2    H     H_    0.391937 0.732174 0.383776 0.130026
H3    H     H_    0.893623 0.768477 0.389327 0.119159
H4    H     H_    0.731714 0.392306 0.367790 0.117495
C25   C     C_2   0.570824 0.016428 0.933127 0.204677
C26   C     C_2   0.070740 0.483206 0.933124 0.205817
N1    N     N_2   0.501330 0.000000 0.852150 -0.186732
N2    N     N_2   0.001330 0.500000 0.852150 -0.187291
H5    H     H_    0.445978 0.973513 0.892165 0.143326
H6    H     H_    0.946014 0.526609 0.892156 0.137740
C27   C     C_2   0.571845 0.006448 0.082514 -0.142541
C28   C     C_2   0.071791 0.493014 0.082520 -0.143382
N3    N     N_2   0.501360 0.000000 0.147810 -0.200979
N4    N     N_2   0.001360 0.500000 0.147810 -0.201556
H7    H     H_    0.635436 0.009743 0.139599 0.168298
H8    H     H_    0.135334 0.489147 0.139612 0.167683
H9    H     H_    0.440432 0.004471 0.095569 0.154534
H10   H     H_    0.940394 0.496130 0.095573 0.154443
C29   C     C_3   0.747065 0.869374 0.275403 -0.899561
H11   H     H_    0.802091 0.852064 0.211271 0.231997
H12   H     H_    0.684224 0.844887 0.223820 0.266115
H13   H     H_    0.746193 0.942932 0.285567 0.231912
C30   C     C_3   0.635535 0.241594 0.259486 -0.879457
H14   H     H_    0.652496 0.295989 0.190584 0.229007
H15   H     H_    0.665475 0.179456 0.222638 0.257520
H16   H     H_    0.561652 0.236275 0.255460 0.241294
C31   C     C_3   0.136418 0.259637 0.258449 -0.878931
H17   H     H_    0.153664 0.205540 0.189181 0.228181
H18   H     H_    0.062516 0.264851 0.253902 0.242339
H19   H     H_    0.166423 0.321925 0.222339 0.256902
C32   C     C_3   0.245061 0.632728 0.273504 -0.900042
H20   H     H_    0.299294 0.650981 0.208478 0.233312
H21   H     H_    0.244480 0.559058 0.281489 0.233134
H22   H     H_    0.181753 0.657784 0.224010 0.264456
C33   C     C_3   0.751462 0.829051 0.660821 -0.879054
H23   H     H_    0.753742 0.892089 0.717913 0.221633
H24   H     H_    0.708184 0.781100 0.710460 0.264606
H25   H     H_    0.821022 0.803956 0.668129 0.233950
C34   C     C_3   0.664664 0.255811 0.649637 -0.910456
H26   H     H_    0.602627 0.250247 0.703169 0.218505
H27   H     H_    0.718766 0.219998 0.707946 0.276141
H28   H     H_    0.680883 0.327866 0.648123 0.234480
C35   C     C_3   0.163704 0.243394 0.648543 -0.908592
H29   H     H_    0.101312 0.248869 0.701306 0.218057
H30   H     H_    0.179738 0.171304 0.646127 0.235277
H31   H     H_    0.217588 0.278688 0.708033 0.277875
C36   C     C_3   0.253748 0.667127 0.660208 -0.839772
H32   H     H_    0.257458 0.602792 0.713909 0.210722
H33   H     H_    0.323006 0.693021 0.666471 0.236767
H34   H     H_    0.210832 0.713433 0.713736 0.273692
O17   O     O_3   0.334464 0.278732 0.533612 -0.615961
C37   C     C_3   0.423516 0.293782 0.581290 0.101841
H35   H     H_    0.470260 0.278292 0.502893 0.130906
H36   H     H_    0.439929 0.253581 0.672567 0.160499
C38   C     C_3   0.434685 0.391414 0.618251 -0.833119
H37   H     H_    0.388216 0.409615 0.695524 0.255714
H38   H     H_    0.504175 0.403443 0.658411 0.209024
H39   H     H_    0.420549 0.433821 0.528730 0.259973
O18   O     O_3   0.222786 0.837067 0.525869 -0.610326
C39   C     C_3   0.199348 0.927830 0.511485 0.102005
H40   H     H_    0.212123 0.952478 0.409800 0.126218
H41   H     H_    0.237084 0.968806 0.588327 0.147651
C40   C     C_3   0.100359 0.938744 0.530205 -0.837966
H42   H     H_    0.085217 0.917583 0.632310 0.258128
H43   H     H_    0.081426 0.009715 0.515963 0.209492
H44   H     H_    0.060678 0.897753 0.455778 0.258693
O19   O     O_3   0.718710 0.660884 0.509357 -0.611337
C41   C     C_3   0.710936 0.588499 0.597525 0.108513
H45   H     H_    0.750824 0.600622 0.693185 0.154856
H46   H     H_    0.732297 0.525388 0.551028 0.129400
C42   C     C_3   0.613855 0.578728 0.629276 -0.842969
H47   H     H_    0.572194 0.562052 0.537190 0.260003
H48   H     H_    0.607750 0.524767 0.703609 0.203996
H49   H     H_    0.589397 0.641827 0.671586 0.259241
O20   O     O_3   0.834387 0.220579 0.530816 -0.614934
C43   C     C_3   0.920737 0.206905 0.590837 0.096953
H50   H     H_    0.931900 0.248918 0.681569 0.162155
H51   H     H_    0.971939 0.220849 0.518419 0.133540
C44   C     C_3   0.929693 0.110117 0.633910 -0.841866
H52   H     H_    0.919991 0.065744 0.545655 0.262726
H53   H     H_    0.997082 0.098448 0.682987 0.210239
H54   H     H_    0.878791 0.093943 0.705671 0.256364
C45   C     C_3   0.655947 0.047847 0.878986 -0.803871
H55   H     H_    0.712637 0.045177 0.955604 0.190769
H56   H     H_    0.673558 0.005630 0.794742 0.263817
H57   H     H_    0.647784 0.118029 0.847386 0.244431
C46   C     C_3   0.155779 0.451583 0.878939 -0.800623
H58   H     H_    0.212459 0.453909 0.955599 0.190586
H59   H     H_    0.147420 0.381487 0.846979 0.244345
H60   H     H_    0.173497 0.493969 0.794976 0.264026

loop_
_geom_bond_atom_site_label_1
_geom_bond_atom_site_label_2
_geom_bond_distance
_ccdc_geom_bond_type
N4    H10   1.026926 S    
C35   H29   1.109197 S    
C29   H12   1.109563 S    
C27   H7    1.082622 S    
Zn3   N3    2.021432 S    
O17   C37   1.409384 S    
O10   C6    1.291116 A    
C46   H60   1.102886 S    
C22   O18   1.398143 S    
C12   C32   1.509211 S    
C39   H41   1.112969 S    
C44   H52   1.110833 S    
O7    C3    1.282692 A    
C1    C22   1.429057 S    
Zn1   O10   1.975979 S    
C12   C16   1.356000 D    
C18   C22   1.340140 D    
C4    C23   1.432816 S    
C44   H53   1.110461 S    
C42   H47   1.110799 S    
C37   C38   1.519635 S    
C9    C13   1.357337 D    
C33   H25   1.108610 S    
O2    Zn1   1.941528 S    
C41   H45   1.113405 S    
O6    Zn3   1.975978 S    
Zn1   N1    2.018403 S    
C15   C35   1.526683 S    
Zn3   O14   1.941531 S    
Zn2   N2    2.018403 S    
C34   H26   1.108826 S    
C8    C15   1.458973 S    
N2    H6    1.027008 S    
C42   H48   1.109783 S    
C37   H36   1.111719 S    
C38   H39   1.110825 S    
C26   N2    1.304270 D    
C40   H42   1.110911 S    
O15   C7    1.297160 A    
O4    C4    1.292708 A    
O11   C7    1.291365 A    
C10   C30   1.510597 S    
C43   C44   1.520489 S    
C5    C14   1.460057 S    
C11   C31   1.510951 S    
C29   H13   1.109959 S    
O8    Zn4   1.975978 S    
C2    C21   1.437773 S    
C17   C21   1.341320 D    
C40   H43   1.110283 S    
C23   O19   1.401034 S    
C41   H46   1.113160 S    
C39   H40   1.114369 S    
C43   H51   1.112210 S    
C25   C45   1.498043 S    
C18   H2    1.088990 S    
C10   C14   1.358742 D    
C30   H14   1.111061 S    
Zn2   O12   1.975979 S    
O1    C1    1.292153 A    
C36   H32   1.106412 S    
C33   H24   1.110181 S    
C13   C33   1.528328 S    
C44   H54   1.111140 S    
C19   C23   1.340617 D    
O12   C8    1.293661 A    
C24   O20   1.401885 S    
C25   N1    1.304295 D    
C25   C27   1.506410 S    
C26   C28   1.506194 S    
C11   C17   1.454328 S    
C30   H15   1.109934 S    
C32   H20   1.111078 S    
C45   H56   1.102984 S    
O5    C1    1.278965 A    
C36   H33   1.108739 S    
C6    C13   1.458141 S    
C38   H37   1.110962 S    
Zn3   O13   1.942120 S    
O8    C4    1.281128 A    
C42   H49   1.110902 S    
C37   H35   1.112898 S    
C9    C19   1.452497 S    
C10   C20   1.456004 S    
C3    C24   1.438529 S    
Zn4   N4    2.021432 S    
C32   H21   1.109770 S    
O3    Zn2   1.942119 S    
C16   C36   1.527785 S    
O7    Zn4   1.976630 S    
C38   H38   1.109098 S    
Zn4   O15   1.942120 S    
C12   C18   1.450489 S    
C35   H30   1.110031 S    
C40   H44   1.111339 S    
C11   C15   1.358582 D    
O1    Zn1   1.942119 S    
C14   C34   1.527015 S    
C17   H1    1.087274 S    
C46   H58   1.110473 S    
O2    C2    1.293755 A    
C43   H50   1.111942 S    
C19   H3    1.088850 S    
C20   H4    1.088522 S    
O13   C5    1.296137 A    
O19   C41   1.411924 S    
C34   H27   1.109244 S    
Zn2   O11   1.976629 S    
O16   C8    1.295238 A    
C29   H11   1.111104 S    
C46   H59   1.105676 S    
O6    C2    1.281869 A    
C31   H19   1.109891 S    
O20   C43   1.409189 S    
N3    H9    1.026968 S    
C7    C16   1.457856 S    
Zn1   O9    1.976629 S    
C30   H16   1.110800 S    
O9    C5    1.293297 A    
C27   N3    1.284754 D    
C45   H57   1.105591 S    
C31   H17   1.111096 S    
C36   H34   1.110460 S    
C21   O17   1.401451 S    
C9    C29   1.508644 S    
C28   N4    1.284594 D    
C41   C42   1.519991 S    
O4    Zn2   1.941528 S    
C32   H22   1.109590 S    
O5    Zn3   1.976630 S    
O3    C3    1.293842 A    
C26   C46   1.497798 S    
C33   H23   1.106362 S    
C28   H8    1.082448 S    
C20   C24   1.341917 D    
C34   H28   1.110000 S    
Zn4   O16   1.941531 S    
O14   C6    1.297649 A    
C35   H31   1.109198 S    
C31   H18   1.110807 S    
O18   C39   1.413243 S    
N1    H5    1.027036 S    
C39   C40   1.519666 S    
C45   H55   1.110472 S    
