data_mof_unit_1264.cif
_audit_creation_date              2012-12-10T20:30:10-0500
_audit_creation_method            fapswitch 2.2
_symmetry_space_group_name_H-M    P1
_symmetry_Int_Tables_number       1
_space_group_crystal_system       triclinic
_cell_length_a                    9.891062
_cell_length_b                    10.839055
_cell_length_c                    12.995593
_cell_angle_alpha                 90.486828
_cell_angle_beta                  68.376702
_cell_angle_gamma                 88.617156
_cell_volume                      1294.60267604

loop_
_atom_site_label
_atom_site_type_symbol
_atom_type_description
_atom_site_fract_x
_atom_site_fract_y
_atom_site_fract_z
_atom_type_partial_charge
C1    C     C_R   0.498228 0.739533 0.501024 0.914131
C2    C     C_R   0.447005 0.488836 0.981998 0.061626
C3    C     C_R   0.462628 0.444315 0.876439 0.045635
C4    C     C_R   0.562433 0.468706 0.020297 0.055624
C5    C     C_R   0.671478 0.375530 0.968391 0.092514
C6    C     C_R   0.674475 0.320232 0.869390 -0.150246
C7    C     C_R   0.575171 0.357286 0.822362 -0.184206
C8    C     C_R   0.568023 0.533608 0.112901 -0.121771
C9    C     C_R   0.740665 0.381033 0.128875 -0.247630
C10   C     C_R   0.362758 0.484720 0.828361 -0.145686
C11   C     C_R   0.390526 0.942530 0.486602 0.011754
C12   C     C_R   0.417615 0.494332 0.706075 0.908255
C13   C     C_R   0.499094 0.870738 0.501150 -0.112655
C14   C     C_R   0.617029 0.930171 0.513406 -0.117312
C15   C     C_R   0.624410 0.058333 0.512407 -0.051269
C16   C     C_R   0.509766 0.128838 0.496921 -0.159657
C17   C     C_R   0.396701 0.065944 0.483311 -0.059452
C18   C     C_3   0.250388 0.083310 0.475306 0.163619
C19   C     C_3   0.242261 0.941196 0.481703 0.037012
C20   C     C_R   0.883830 0.542981 0.590173 0.112701
C21   C     C_R   0.971382 0.444158 0.416085 0.002965
C22   C     C_R   0.115208 0.446631 0.415839 -0.031410
C23   C     C_R   0.502617 0.260394 0.499413 0.862793
C24   C     C_R   0.026504 0.543343 0.589920 0.311573
C25   C     C_3   0.005246 0.672068 0.634770 -0.567811
C26   C     C_3   0.850669 0.670388 0.637667 -0.245505
C27   C     C_R   0.582321 0.498085 0.294677 0.841933
C28   C     C_R   0.766961 0.336123 0.021863 -0.013088
C29   C     C_R   0.638726 0.476864 0.175367 -0.101351
C30   C     C_R   0.224475 0.534031 0.898449 -0.079878
C31   C     C_R   0.200757 0.562317 0.009669 0.264220
C32   C     C_R   0.311900 0.542704 0.049663 -0.069401
H1    H     H_    0.797954 0.339356 0.176871 0.158529
H2    H     H_    0.161075 0.912167 0.561437 0.165201
H3    H     H_    0.204872 0.404346 0.348123 0.175421
H4    H     H_    0.014714 0.680813 0.716713 0.198389
H5    H     H_    0.074043 0.734169 0.571672 0.232749
H6    H     H_    0.750438 0.246446 0.827627 0.239099
H7    H     H_    0.830058 0.736943 0.580528 0.210838
H8    H     H_    0.288135 0.563524 0.136228 0.176963
H9    H     H_    0.581522 0.311202 0.746357 0.181574
H10   H     H_    0.704975 0.877270 0.523611 0.192750
N1    N     N_R   0.856940 0.500860 0.500710 -0.161302
N2    N     N_R   0.142580 0.500820 0.500710 -0.116073
O1    O     O_R   0.385310 0.683210 0.499990 -0.603942
O2    O     O_R   0.614650 0.683240 0.500000 -0.615150
O3    O     O_R   0.328390 0.499940 0.653610 -0.552421
O4    O     O_R   0.557730 0.499980 0.653620 -0.617065
O5    O     O_R   0.385350 0.316760 0.500000 -0.584167
O6    O     O_R   0.614690 0.316790 0.500010 -0.690804
O7    O     O_R   0.442270 0.500020 0.346380 -0.630227
O8    O     O_R   0.671610 0.500060 0.346390 -0.607391
Zn1   Zn    Zn3+2 0.346870 0.499980 0.499990 1.010898
Zn2   Zn    Zn3+2 0.653130 0.500020 0.500010 0.956689
C33   C     C_2   0.751975 0.110653 0.529782 0.482113
H11   H     H_    0.812038 0.184714 0.479753 0.093637
O9    O     O_2   0.794786 0.067212 0.599104 -0.522682
Br1   Br    Br    0.108498 0.167084 0.604629 -0.358349
C34   C     C_2   0.257901 0.138759 0.367676 0.525408
H12   H     H_    0.358196 0.177324 0.311911 0.032709
O10   O     O_2   0.150527 0.141503 0.342585 -0.521911
Br2   Br    Br    0.238800 0.851953 0.351816 -0.453559
C35   C     C_2   0.946965 0.376002 0.326282 0.507334
H13   H     H_    0.842254 0.338613 0.339384 0.076324
O11   O     O_2   0.045777 0.356770 0.237169 -0.567456
C36   C     C_2   0.737210 0.673068 0.752707 0.547392
H14   H     H_    0.748290 0.612421 0.815399 0.075630
O12   O     O_2   0.631549 0.743415 0.776361 -0.521379
C37   C     C_2   0.886610 0.241939 0.976340 0.475739
H15   H     H_    0.920848 0.187465 0.032646 0.082508
O13   O     O_2   0.954081 0.228649 0.877138 -0.485048
C38   C     C_2   0.518751 0.665245 0.138400 0.450715
H16   H     H_    0.506409 0.706351 0.217821 0.101523
O14   O     O_2   0.500815 0.731289 0.068546 -0.502375
C39   C     C_2   0.101191 0.550692 0.861151 0.441685
H17   H     H_    0.028986 0.631258 0.888290 0.079900
O15   O     O_2   0.072544 0.470308 0.806754 -0.512581
Br3   Br    Br    0.017534 0.628258 0.111636 -0.475861

loop_
_geom_bond_atom_site_label_1
_geom_bond_atom_site_label_2
_ccdc_geom_bond_type
C36   O12   D    
C33   H11   S    
C35   O11   D    
C27   C29   S    
C28   C37   S    
C12   O4    A    
O4    Zn2   S    
C22   H3    S    
C11   C19   S    
O6    Zn2   S    
C8    C29   A    
C3    C7    A    
C5    C6    A    
C26   H7    S    
C23   O5    A    
C19   Br2   S    
C15   C16   A    
C2    C32   A    
C18   C19   S    
C4    C8    A    
C37   O13   D    
C25   H5    S    
C21   N1    A    
N2    Zn1   S    
C18   Br1   S    
C22   N2    A    
C20   C24   A    
C27   O7    A    
C16   C17   A    
C6    H6    S    
C9    C29   A    
O3    Zn1   S    
C7    H9    S    
C36   H14   S    
O1    Zn1   S    
C34   H12   S    
C21   C22   A    
C9    H1    S    
C12   O3    A    
O8    Zn2   S    
C8    C38   S    
C34   O10   D    
C26   C36   S    
C24   C25   S    
C38   O14   D    
C38   H16   S    
C23   O6    A    
C25   C26   S    
O7    Zn1   S    
C15   C33   S    
C2    C4    A    
C39   H17   S    
C5    C28   A    
C10   C30   A    
N1    Zn2   S    
C31   C32   A    
O2    Zn2   S    
C17   C18   S    
C39   O15   D    
C10   C12   S    
C16   C23   S    
C33   O9    D    
C24   N2    A    
C1    C13   S    
C20   N1    A    
C27   O8    A    
C31   Br3   S    
C11   C17   A    
C4    C5    A    
C19   H2    S    
C6    C7    A    
C14   H10   S    
C2    C3    A    
C3    C10   A    
C30   C39   S    
C11   C13   A    
C1    O1    A    
C30   C31   A    
C20   C26   S    
O5    Zn1   S    
C32   H8    S    
C37   H15   S    
C1    O2    A    
C21   C35   S    
C25   H4    S    
C35   H13   S    
C18   C34   S    
C14   C15   A    
C13   C14   A    
C9    C28   A    
