data_mof_unit_2045.cif
_audit_creation_date              2012-12-10T18:48:42-0500
_audit_creation_method            fapswitch 2.2
_symmetry_space_group_name_H-M    P1
_symmetry_Int_Tables_number       1
_space_group_crystal_system       orthorhombic
_cell_length_a                    15.315852
_cell_length_b                    15.013911
_cell_length_c                    9.896806
_cell_angle_alpha                 90.0
_cell_angle_beta                  90.0
_cell_angle_gamma                 90.0
_cell_volume                      2275.77884131

loop_
_atom_site_label
_atom_site_type_symbol
_atom_type_description
_atom_site_fract_x
_atom_site_fract_y
_atom_site_fract_z
_atom_type_partial_charge
C1    C     C_R   0.119930 0.379957 0.500000 0.896145
C2    C     C_R   0.000000 0.421630 0.928182 0.307601
C3    C     C_R   0.000000 0.421630 0.071818 0.307600
C4    C     C_R   0.000000 0.578370 0.928182 0.307601
C5    C     C_R   0.500000 0.078370 0.071818 0.307600
C6    C     C_R   0.500000 0.921630 0.928182 0.307601
C7    C     C_R   0.500000 0.921630 0.071818 0.307600
C8    C     C_R   0.500000 0.078370 0.928182 0.307601
C9    C     C_R   0.781923 0.281925 0.376772 -0.140438
C10   C     C_R   0.218077 0.718075 0.623228 -0.140439
C11   C     C_R   0.218077 0.718075 0.376772 -0.140439
C12   C     C_R   0.880070 0.620043 0.500000 0.896145
C13   C     C_R   0.781923 0.281925 0.623228 -0.140439
C14   C     C_R   0.218077 0.281925 0.623228 -0.140439
C15   C     C_R   0.781923 0.718075 0.376772 -0.140439
C16   C     C_R   0.781923 0.718075 0.623228 -0.140439
C17   C     C_R   0.218077 0.281925 0.376772 -0.140439
C18   C     C_R   0.281923 0.781925 0.376772 -0.140438
C19   C     C_R   0.718077 0.218075 0.623228 -0.140439
C20   C     C_R   0.718077 0.218075 0.376772 -0.140439
C21   C     C_R   0.281923 0.781925 0.623228 -0.140439
C22   C     C_R   0.718077 0.781925 0.623228 -0.140439
C23   C     C_R   0.880070 0.379957 0.500000 0.896145
C24   C     C_R   0.281923 0.218075 0.376772 -0.140439
C25   C     C_R   0.281923 0.218075 0.623228 -0.140439
C26   C     C_R   0.718077 0.781925 0.376772 -0.140439
C27   C     C_R   0.186233 0.686292 0.500000 -0.044389
C28   C     C_R   0.813767 0.313708 0.500000 -0.044389
C29   C     C_R   0.813767 0.686292 0.500000 -0.044389
C30   C     C_R   0.186233 0.313708 0.500000 -0.044389
C31   C     C_R   0.686233 0.186292 0.500000 -0.044389
C32   C     C_R   0.313767 0.813708 0.500000 -0.044389
C33   C     C_R   0.313767 0.186292 0.500000 -0.044389
C34   C     C_R   0.119930 0.620043 0.500000 0.896144
C35   C     C_R   0.686233 0.813708 0.500000 -0.044389
C36   C     C_R   0.619930 0.879957 0.500000 0.896145
C37   C     C_R   0.380070 0.120043 0.500000 0.896145
C38   C     C_R   0.380070 0.879957 0.500000 0.896145
C39   C     C_R   0.619930 0.120043 0.500000 0.896144
C40   C     C_R   0.000000 0.578370 0.071818 0.307600
Cl1   Cl    Cl    0.000000 0.680477 0.159001 -0.530537
Cl2   Cl    Cl    0.000000 0.319523 0.840999 -0.530537
Cl3   Cl    Cl    0.000000 0.319523 0.159001 -0.530537
Cl4   Cl    Cl    0.000000 0.680477 0.840999 -0.530537
Cl5   Cl    Cl    0.500000 0.180477 0.159001 -0.530537
Cl6   Cl    Cl    0.500000 0.819523 0.840999 -0.530537
Cl7   Cl    Cl    0.500000 0.819523 0.159001 -0.530537
Cl8   Cl    Cl    0.500000 0.180477 0.840999 -0.530537
H1    H     H_    0.806038 0.306145 0.280646 0.201114
H2    H     H_    0.693962 0.193855 0.719354 0.201114
H3    H     H_    0.693962 0.193855 0.280646 0.201114
H4    H     H_    0.306038 0.806145 0.719354 0.201114
H5    H     H_    0.693962 0.806145 0.719354 0.201114
H6    H     H_    0.306038 0.193855 0.280646 0.201114
H7    H     H_    0.306038 0.193855 0.719354 0.201114
H8    H     H_    0.693962 0.806145 0.280646 0.201114
H9    H     H_    0.193961 0.693855 0.719354 0.201114
H10   H     H_    0.193961 0.693855 0.280646 0.201114
H11   H     H_    0.806038 0.306145 0.719354 0.201114
H12   H     H_    0.193962 0.306145 0.719354 0.201114
H13   H     H_    0.806038 0.693855 0.280646 0.201114
H14   H     H_    0.806038 0.693855 0.719354 0.201114
H15   H     H_    0.193962 0.306145 0.280646 0.201114
H16   H     H_    0.306038 0.806145 0.280646 0.201114
N1    N     N_R   0.000000 0.500000 0.857200 -0.191496
N2    N     N_R   0.000000 0.500000 0.142800 -0.191496
N3    N     N_R   0.500000 1.000000 0.857200 -0.191496
N4    N     N_R   0.500000 0.000000 0.142800 -0.191496
O1    O     O_R   0.091610 0.408380 0.614620 -0.590209
O2    O     O_R   0.408390 0.091620 0.385380 -0.590209
O3    O     O_R   0.408390 0.091620 0.614620 -0.590209
O4    O     O_R   0.591610 0.908380 0.385380 -0.590209
O5    O     O_R   0.408390 0.908380 0.385380 -0.590209
O6    O     O_R   0.591610 0.091620 0.614620 -0.590209
O7    O     O_R   0.591610 0.091620 0.385380 -0.590209
O8    O     O_R   0.408390 0.908380 0.614620 -0.590209
O9    O     O_R   0.908390 0.591620 0.385380 -0.590209
O10   O     O_R   0.908390 0.591620 0.614620 -0.590209
O11   O     O_R   0.091610 0.408380 0.385380 -0.590209
O12   O     O_R   0.908390 0.408380 0.385380 -0.590209
O13   O     O_R   0.091610 0.591620 0.614620 -0.590209
O14   O     O_R   0.091610 0.591620 0.385380 -0.590209
O15   O     O_R   0.908390 0.408380 0.614620 -0.590209
O16   O     O_R   0.591610 0.908380 0.614620 -0.590209
Zn1   Zn    Zn3+2 0.000000 0.500000 0.653120 1.051993
Zn2   Zn    Zn3+2 0.000000 0.500000 0.346880 1.051993
Zn3   Zn    Zn3+2 0.500000 1.000000 0.653120 1.051993
Zn4   Zn    Zn3+2 0.500000 0.000000 0.346880 1.051993

loop_
_geom_bond_atom_site_label_1
_geom_bond_atom_site_label_2
_ccdc_geom_bond_type
C10   C27   A    
C11   C18   A    
C12   C29   S    
C35   C36   S    
O16   Zn3   S    
C2    N1    A    
C19   C31   A    
C38   O8    A    
C22   C35   A    
C3    Cl3   S    
C23   O15   A    
C2    Cl2   S    
C20   H3    S    
C4    N1    A    
N4    Zn4   S    
C24   H6    S    
C39   O6    A    
O12   Zn2   S    
C7    N4    A    
C4    C40   A    
C12   O10   A    
C13   C28   A    
C34   O13   A    
C39   O7    A    
O6    Zn3   S    
C11   H10   S    
O2    Zn4   S    
C10   C21   A    
C40   N2    A    
C37   O2    A    
C17   C30   A    
C16   H14   S    
C14   C30   A    
C5    N4    A    
O4    Zn4   S    
C15   C29   A    
C22   H5    S    
C27   C34   S    
C21   C32   A    
C17   C24   A    
C13   C19   A    
C10   H9    S    
C9    H1    S    
C15   C26   A    
C4    Cl4   S    
C16   C29   A    
O14   Zn2   S    
C5    Cl5   S    
C33   C37   S    
C7    Cl7   S    
C8    Cl8   S    
O5    Zn4   S    
C26   C35   A    
C9    C20   A    
C11   C27   A    
C12   O9    A    
C15   H13   S    
C23   C28   S    
O8    Zn3   S    
O3    Zn3   S    
O10   Zn1   S    
C6    N3    A    
O15   Zn1   S    
O9    Zn2   S    
C32   C38   S    
C37   O3    A    
C23   O12   A    
C3    N2    A    
C18   C32   A    
O1    Zn1   S    
C40   Cl1   S    
C16   C22   A    
C6    Cl6   S    
C25   H7    S    
C26   H8    S    
N2    Zn2   S    
C5    C8    A    
N1    Zn1   S    
C6    C7    A    
C13   H11   S    
C14   H12   S    
N3    Zn3   S    
C24   C33   A    
C2    C3    A    
C17   H15   S    
C19   H2    S    
C18   H16   S    
C36   O16   A    
C1    O11   A    
C1    C30   S    
C31   C39   S    
O11   Zn2   S    
C14   C25   A    
C1    O1    A    
O7    Zn4   S    
C8    N3    A    
C34   O14   A    
C20   C31   A    
C21   H4    S    
O13   Zn1   S    
C36   O4    A    
C9    C28   A    
C25   C33   A    
C38   O5    A    
