data_mof_unit_823.cif
_audit_creation_date              2012-12-11T15:44:52-0500
_audit_creation_method            fapswitch 2.2
_symmetry_space_group_name_H-M    P1
_symmetry_Int_Tables_number       1
_space_group_crystal_system       triclinic
_cell_length_a                    6.93435
_cell_length_b                    16.822079
_cell_length_c                    17.089834
_cell_angle_alpha                 100.395121
_cell_angle_beta                  90.327287
_cell_angle_gamma                 90.117669
_cell_volume                      1960.7704754

loop_
_atom_site_label
_atom_site_type_symbol
_atom_type_description
_atom_site_fract_x
_atom_site_fract_y
_atom_site_fract_z
_atom_type_partial_charge
O1    O     O_R   0.494370 0.415690 0.413450 -0.536725
O2    O     O_R   0.819420 0.429360 0.578420 -0.528425
O3    O     O_R   0.994280 0.584310 0.586550 -0.548450
C1    C     C_R   0.651514 0.413176 0.604289 0.701620
O4    O     O_R   0.823790 0.406230 0.413570 -0.534880
O5    O     O_R   0.998670 0.561000 0.420530 -0.516197
C2    C     C_R   0.653479 0.382368 0.385417 0.715566
O6    O     O_R   0.489970 0.439000 0.579470 -0.536682
O7    O     O_3   0.662300 0.550810 0.502470 -0.370868
V1    V     V_3+5 0.935380 0.490570 0.499540 1.502298
O8    O     O_R   0.328650 0.570640 0.421580 -0.551225
C3    C     C_R   0.158659 0.587150 0.395605 0.785235
O9    O     O_R   0.324290 0.593770 0.586430 -0.513663
C4    C     C_R   0.156006 0.616394 0.615665 0.718474
V2    V     V_3+5 0.435930 0.509430 0.500460 1.489671
O10   O     O_3   0.159140 0.449190 0.497530 -0.374209
C5    C     C_R   0.309657 0.707322 0.734678 0.359654
C6    C     C_R   0.295100 0.772414 0.799346 -0.239659
H1    H     H_    0.420493 0.789839 0.836659 0.115300
C7    C     C_R   0.120527 0.814030 0.816970 -0.070791
C8    C     C_R   0.959122 0.789750 0.768556 -0.160878
H2    H     H_    0.822640 0.820701 0.780243 0.127486
C9    C     C_R   0.972677 0.726280 0.703375 -0.234221
H3    H     H_    0.845932 0.710347 0.666553 0.166437
C10   C     C_R   0.147148 0.684427 0.685172 -0.078836
C11   C     C_R   0.140207 0.639822 0.334189 -0.187190
C12   C     C_R   0.125873 0.865975 0.169619 -0.094910
C13   C     C_R   0.307031 0.840382 0.286415 0.397545
C14   C     C_R   0.266757 0.888323 0.228656 -0.279264
C15   C     C_R   0.022431 0.794305 0.168465 -0.190759
C16   C     C_R   0.063241 0.744043 0.224280 0.007820
C17   C     C_R   0.204693 0.766707 0.284751 0.076331
C18   C     C_R   0.240106 0.714817 0.341031 0.168177
C19   C     C_R   0.004365 0.617861 0.272083 0.338673
C20   C     C_R   0.966057 0.670345 0.218613 -0.244586
H4    H     H_    0.860102 0.653095 0.171683 0.123285
H5    H     H_    0.348135 0.943515 0.229187 0.115035
H6    H     H_    0.916158 0.775873 0.121893 0.123991
C21   C     C_R   0.649064 0.362178 0.666810 -0.218024
C22   C     C_R   0.616378 0.135362 0.831163 -0.258757
C23   C     C_R   0.503349 0.153234 0.699109 0.298472
C24   C     C_R   0.521493 0.105034 0.758167 0.226795
C25   C     C_R   0.698918 0.214035 0.843327 0.298710
C26   C     C_R   0.682580 0.261885 0.783174 -0.054416
C27   C     C_R   0.580954 0.233001 0.711273 -0.058443
C28   C     C_R   0.561792 0.284073 0.653195 0.323888
C29   C     C_R   0.751437 0.389804 0.738235 0.239154
C30   C     C_R   0.765514 0.339561 0.795385 -0.126898
H7    H     H_    0.841318 0.361368 0.850481 0.186250
C31   C     C_R   0.804416 0.269130 0.289608 -0.173416
H8    H     H_    0.941089 0.283109 0.319409 0.165781
C32   C     C_R   0.796436 0.206107 0.223850 -0.142476
H9    H     H_    0.927709 0.173634 0.204960 0.132923
C33   C     C_R   0.621288 0.184903 0.183608 -0.118563
C34   C     C_R   0.454804 0.228171 0.210748 -0.162751
H10   H     H_    0.317452 0.213000 0.181211 0.142278
C35   C     C_R   0.460536 0.290299 0.277232 0.352101
C36   C     C_R   0.638320 0.312959 0.317207 -0.134749
O11   O     O_R   0.774880 0.061150 0.920630 -0.535164
O12   O     O_R   0.440980 0.093710 0.086500 -0.546353
O13   O     O_R   0.266190 0.938890 0.079390 -0.539808
C37   C     C_R   0.610337 0.116842 0.114950 0.698659
O14   O     O_R   0.445420 0.070740 0.921670 -0.526292
O15   O     O_R   0.270660 0.915760 0.913380 -0.540083
C38   C     C_R   0.613349 0.086768 0.895640 0.706237
O16   O     O_R   0.770400 0.084270 0.086640 -0.542884
O17   O     O_3   0.602590 0.949210 0.997500 -0.374401
V3    V     V_3+5 0.329470 0.009420 0.000470 1.439011
O18   O     O_R   0.940650 0.906250 0.913470 -0.548052
C39   C     C_R   0.109424 0.883002 0.885040 0.714097
O19   O     O_R   0.936210 0.929220 0.078300 -0.542227
C40   C     C_R   0.106253 0.914243 0.105331 0.710465
V4    V     V_3+5 0.828930 0.990510 0.999490 1.413774
O20   O     O_3   0.105680 0.050790 0.002500 -0.363322
O21   O     O_3   0.479572 0.664571 0.720332 -0.653424
H11   H     H_    0.575370 0.686140 0.762117 0.273180
O22   O     O_3   0.458310 0.256084 0.584129 -0.622218
H12   H     H_    0.486933 0.288385 0.542737 0.271545
N1    N     N_2   0.836712 0.469005 0.751205 -0.503305
H13   H     H_    0.751500 0.514193 0.736115 0.263442
C41   C     C_3   0.966720 0.494940 0.817491 -0.535429
H14   H     H_    0.033174 0.553680 0.811536 0.199124
H15   H     H_    0.084587 0.450319 0.817530 0.210405
H16   H     H_    0.886416 0.503282 0.874424 0.191076
N2    N     N_2   0.409321 0.119390 0.626292 -0.439640
H17   H     H_    0.284050 0.088346 0.633406 0.279855
C42   C     C_3   0.535487 0.074115 0.567384 -0.442639
H18   H     H_    0.454440 0.054978 0.510876 0.188597
H19   H     H_    0.590126 0.019360 0.588115 0.194204
H20   H     H_    0.659469 0.112123 0.555552 0.198147
O23   O     O_3   0.444763 0.027673 0.741312 -0.646340
H21   H     H_    0.503355 0.993417 0.776342 0.284837
O24   O     O_3   0.792083 0.247460 0.913657 -0.645101
H22   H     H_    0.777227 0.212839 0.954144 0.291332
O25   O     O_3   0.289710 0.327887 0.300922 -0.639021
H23   H     H_    0.267219 0.318425 0.355743 0.282470
N3    N     N_2   0.368988 0.739993 0.406066 -0.461928
H24   H     H_    0.473041 0.698661 0.414256 0.269320
C43   C     C_3   0.277805 0.779059 0.478829 -0.444565
H25   H     H_    0.182996 0.735874 0.502616 0.137774
H26   H     H_    0.191063 0.831486 0.467897 0.208575
H27   H     H_    0.390155 0.801417 0.524056 0.193084
O26   O     O_3   0.910171 0.544299 0.264712 -0.630788
H28   H     H_    0.819670 0.538075 0.218856 0.290335
O27   O     O_3   0.449739 0.863840 0.342715 -0.624196
H29   H     H_    0.505729 0.916231 0.335253 0.279595

loop_
_geom_bond_atom_site_label_1
_geom_bond_atom_site_label_2
_ccdc_geom_bond_type
C42   H18   S    
O14   C38   A    
O24   H22   S    
C12   C14   A    
V4    O20   S    
O25   H23   S    
C29   N1    S    
C34   H10   S    
N3    H24   S    
N2    H17   S    
C26   C27   A    
O15   V3    S    
C13   C14   A    
C6    H1    S    
O5    C3    A    
C15   C16   A    
V3    O20   S    
V2    O10   S    
C15   H6    S    
O12   C37   A    
C19   C20   A    
C23   C24   A    
N3    C43   S    
O14   V3    S    
O8    V2    S    
C11   C19   A    
C22   C25   A    
C29   C30   A    
C31   C32   A    
C9    H3    S    
O18   V4    S    
O17   V4    S    
O15   C39   A    
O7    V1    S    
O11   V4    S    
C2    C36   S    
C6    C7    A    
C1    O6    A    
C22   C24   A    
O9    C4    A    
C12   C15   A    
C7    C39   S    
C24   O23   S    
C41   H15   S    
C32   C33   A    
C31   H8    S    
O4    C2    A    
N2    C42   S    
C8    C9    A    
C37   O16   A    
O17   V3    S    
C31   C36   A    
C13   C17   A    
O23   H21   S    
N1    C41   S    
C33   C37   S    
O22   H12   S    
O16   V4    S    
C41   H14   S    
C3    C11   S    
C20   H4    S    
O2    C1    A    
O21   H11   S    
C11   C18   A    
C43   H25   S    
C1    C21   S    
C13   O27   S    
C5    C6    A    
O3    C4    A    
C21   C28   A    
O1    V2    S    
O13   C40   A    
C30   H7    S    
C43   H26   S    
O6    V2    S    
C22   C38   S    
C34   C35   A    
C25   C26   A    
C16   C20   A    
C14   H5    S    
O2    V1    S    
C41   H16   S    
C32   H9    S    
C21   C29   A    
C33   C34   A    
O1    C2    A    
C16   C17   A    
O5    V1    S    
C28   O22   S    
O8    C3    A    
C23   N2    S    
O27   H29   S    
C19   O26   S    
C5    C10   A    
C17   C18   A    
O9    V2    S    
O7    V2    S    
O19   C40   A    
O3    V1    S    
V1    O10   S    
O11   C38   A    
O13   V3    S    
C35   C36   A    
C25   O24   S    
C18   N3    S    
C9    C10   A    
C4    C10   S    
O18   C39   A    
N1    H13   S    
C27   C28   A    
O4    V1    S    
C43   H27   S    
C7    C8    A    
O12   V3    S    
C35   O25   S    
C42   H20   S    
O19   V4    S    
O26   H28   S    
C5    O21   S    
C42   H19   S    
C23   C27   A    
C8    H2    S    
C12   C40   S    
C26   C30   A    
