data_mof_unit_1105.cif
_audit_creation_date              2012-12-11T15:08:48-0500
_audit_creation_method            fapswitch 2.2
_symmetry_space_group_name_H-M    P1
_symmetry_Int_Tables_number       1
_space_group_crystal_system       monoclinic
_cell_length_a                    19.42104
_cell_length_b                    11.282665
_cell_length_c                    18.715626
_cell_angle_alpha                 90.0
_cell_angle_beta                  90.045357
_cell_angle_gamma                 90.0
_cell_volume                      4100.98705181

loop_
_atom_site_label
_atom_site_type_symbol
_atom_type_description
_atom_site_fract_x
_atom_site_fract_y
_atom_site_fract_z
_atom_type_partial_charge
C1    C     C_R   0.272693 0.041619 0.854988 0.537037
C2    C     C_3   0.688298 0.516518 0.958289 -0.237294
C3    C     C_R   0.226843 0.543268 0.354256 0.537939
C4    C     C_R   0.468779 0.823126 0.645381 0.539956
C5    C     C_R   0.531220 0.823126 0.354619 0.539956
C6    C     C_R   0.968780 0.323126 0.645381 0.539956
C7    C     C_R   0.031220 0.323126 0.354619 0.539956
C8    C     C_R   0.261060 0.640304 0.643486 0.537202
C9    C     C_R   0.738940 0.640304 0.356514 0.537203
C10   C     C_R   0.761060 0.140304 0.643486 0.537202
C11   C     C_R   0.238940 0.140304 0.356514 0.537203
C12   C     C_3   0.481858 0.921369 0.036856 -0.099171
C13   C     C_3   0.811702 0.016518 0.041711 -0.237295
C14   C     C_3   0.518142 0.921369 0.963144 -0.099170
C15   C     C_3   0.981858 0.421369 0.036856 -0.099171
C16   C     C_3   0.018142 0.421369 0.963144 -0.099171
C17   C     C_3   0.431966 0.824533 0.010562 -0.172474
C18   C     C_3   0.568034 0.824533 0.989438 -0.172474
C19   C     C_3   0.931966 0.324532 0.010562 -0.172474
C20   C     C_3   0.068033 0.324533 0.989438 -0.172474
C21   C     C_3   0.468954 0.824639 0.937268 0.046846
C22   C     C_3   0.531045 0.824639 0.062732 0.046846
C23   C     C_3   0.968954 0.324639 0.937268 0.046847
C24   C     C_3   0.188298 0.016518 0.958289 -0.237295
C25   C     C_3   0.031046 0.324639 0.062732 0.046847
C26   C     C_2   0.382446 0.517375 0.931450 0.245596
C27   C     C_2   0.617554 0.517375 0.068550 0.245596
C28   C     C_2   0.882445 0.017375 0.931450 0.245595
C29   C     C_2   0.117554 0.017375 0.068550 0.245595
C30   C     C_3   0.310143 0.508455 0.959133 -0.105488
C31   C     C_3   0.689857 0.508455 0.040867 -0.105488
C32   C     C_3   0.810143 0.008455 0.959133 -0.105488
C33   C     C_3   0.189857 0.008455 0.040867 -0.105488
C34   C     C_3   0.179821 0.518471 0.025295 -0.230391
C35   C     C_3   0.820180 0.518472 0.974704 -0.230389
C36   C     C_3   0.679820 0.018471 0.025295 -0.230389
C37   C     C_R   0.727307 0.041620 0.145012 0.537037
C38   C     C_3   0.320180 0.018471 0.974704 -0.230389
C39   C     C_3   0.243777 0.700154 0.053118 -0.258009
C40   C     C_3   0.756223 0.700154 0.946882 -0.258010
C41   C     C_3   0.743777 0.200154 0.053118 -0.258010
C42   C     C_3   0.256223 0.200154 0.946882 -0.258010
C43   C     C_3   0.241790 0.568384 0.068744 0.044842
C44   C     C_3   0.758209 0.568384 0.931256 0.044842
C45   C     C_3   0.741791 0.068384 0.068744 0.044843
C46   C     C_3   0.258209 0.068384 0.931256 0.044842
C47   C     C_3   0.255344 0.599962 0.929704 0.035122
C48   C     C_R   0.772693 0.541620 0.854988 0.537038
C49   C     C_3   0.744656 0.599962 0.070296 0.035123
C50   C     C_3   0.755344 0.099962 0.929704 0.035123
C51   C     C_3   0.244656 0.099962 0.070296 0.035123
C52   C     C_3   0.184044 0.548299 0.945141 -0.260517
C53   C     C_3   0.815956 0.548298 0.054859 -0.260517
C54   C     C_3   0.684044 0.048298 0.945140 -0.260517
C55   C     C_3   0.315956 0.048298 0.054859 -0.260516
C56   C     C_3   0.261974 0.715432 0.973212 -0.240794
C57   C     C_3   0.738026 0.715432 0.026788 -0.240794
C58   C     C_3   0.761974 0.215432 0.973212 -0.240794
C59   C     C_R   0.227307 0.541620 0.145012 0.537038
C60   C     C_3   0.238026 0.215432 0.026788 -0.240793
C61   C     C_3   0.503733 0.701082 0.460345 -0.227769
C62   C     C_3   0.496267 0.701082 0.539654 -0.227769
C63   C     C_3   0.003733 0.201081 0.460345 -0.227769
C64   C     C_3   0.996267 0.201081 0.539654 -0.227769
C65   C     C_R   0.442583 0.817652 0.862618 0.525234
C66   C     C_R   0.557417 0.817652 0.137382 0.525235
C67   C     C_R   0.942583 0.317652 0.862618 0.525235
C68   C     C_R   0.057417 0.317652 0.137382 0.525235
C69   C     C_3   0.564508 0.905114 0.473432 -0.216838
C70   C     C_3   0.518317 0.728559 0.963660 -0.126113
C71   C     C_3   0.435492 0.905114 0.526568 -0.216838
C72   C     C_3   0.064508 0.405114 0.473432 -0.216838
C73   C     C_3   0.935492 0.405114 0.526568 -0.216838
C74   C     C_3   0.440893 0.887385 0.444620 -0.263397
C75   C     C_3   0.559107 0.887385 0.555380 -0.263397
C76   C     C_3   0.940893 0.387385 0.444620 -0.263397
C77   C     C_3   0.059107 0.387385 0.555380 -0.263397
C78   C     C_3   0.510547 0.829242 0.430901 0.061775
C79   C     C_3   0.489453 0.829241 0.569099 0.061775
C80   C     C_3   0.010547 0.329242 0.430901 0.061775
C81   C     C_3   0.481682 0.728560 0.036340 -0.126113
C82   C     C_3   0.989453 0.329242 0.569099 0.061775
C83   C     C_3   0.179741 0.646935 0.459395 -0.228322
C84   C     C_3   0.820259 0.646935 0.540605 -0.228321
C85   C     C_3   0.679741 0.146935 0.459395 -0.228322
C86   C     C_3   0.320259 0.146935 0.540605 -0.228321
C87   C     C_3   0.184655 0.659687 0.538601 -0.226943
C88   C     C_3   0.815345 0.659687 0.461399 -0.226943
C89   C     C_3   0.684655 0.159687 0.538601 -0.226943
C90   C     C_3   0.315345 0.159687 0.461399 -0.226943
C91   C     C_3   0.252471 0.454707 0.472971 -0.215912
C92   C     C_3   0.018318 0.228560 0.963660 -0.126114
C93   C     C_3   0.747529 0.454707 0.527029 -0.215912
C94   C     C_3   0.752471 0.954707 0.472971 -0.215913
C95   C     C_3   0.247529 0.954707 0.527029 -0.215912
C96   C     C_3   0.304648 0.647858 0.442235 -0.263509
C97   C     C_3   0.695352 0.647858 0.557765 -0.263509
C98   C     C_3   0.804648 0.147858 0.442235 -0.263509
C99   C     C_3   0.195352 0.147858 0.557765 -0.263509
C100  C     C_3   0.240561 0.572508 0.429943 0.064698
C101  C     C_3   0.759439 0.572508 0.570056 0.064698
C102  C     C_3   0.740561 0.072508 0.429943 0.064698
C103  C     C_3   0.981682 0.228559 0.036339 -0.126114
C104  C     C_3   0.259439 0.072508 0.570056 0.064699
C105  C     C_3   0.252959 0.606087 0.567502 0.064077
C106  C     C_3   0.747041 0.606087 0.432498 0.064077
C107  C     C_3   0.752959 0.106087 0.567502 0.064077
C108  C     C_3   0.247041 0.106087 0.432498 0.064077
C109  C     C_3   0.247390 0.472959 0.554728 -0.263899
C110  C     C_3   0.752610 0.472959 0.445272 -0.263899
C111  C     C_3   0.747390 0.972959 0.554728 -0.263899
C112  C     C_3   0.252610 0.972959 0.445272 -0.263899
C113  C     C_R   0.261105 0.635842 0.852929 0.531263
C114  C     C_3   0.311702 0.516518 0.041711 -0.237294
C115  C     C_R   0.738895 0.635842 0.147071 0.531263
C116  C     C_R   0.761105 0.135842 0.852929 0.531264
C117  C     C_R   0.238895 0.135842 0.147071 0.531264
C118  C     C_3   0.317444 0.648477 0.523913 -0.218285
C119  C     C_3   0.682556 0.648477 0.476087 -0.218285
C120  C     C_3   0.817444 0.148477 0.523913 -0.218285
C121  C     C_3   0.182556 0.148477 0.476087 -0.218285
C122  C     C_R   0.273157 0.043268 0.645744 0.537939
C123  C     C_R   0.726843 0.043268 0.354256 0.537939
C124  C     C_R   0.773157 0.543268 0.645744 0.537939
Cr1   Cr    Cr6+3 0.229620 0.836040 0.749110 1.003266
Cr2   Cr    Cr6+3 0.613980 0.676590 0.250790 1.036233
Cr3   Cr    Cr6+3 0.886020 0.176590 0.749210 1.036234
Cr4   Cr    Cr6+3 0.113980 0.176590 0.250790 1.036233
Cr5   Cr    Cr6+3 0.770380 0.836040 0.250890 1.003266
Cr6   Cr    Cr6+3 0.729620 0.336040 0.749110 1.003266
Cr7   Cr    Cr6+3 0.270380 0.336040 0.250890 1.003266
Cr8   Cr    Cr6+3 0.387630 0.990680 0.750730 1.018590
Cr9   Cr    Cr6+3 0.612370 0.990680 0.249270 1.018590
Cr10  Cr    Cr6+3 0.887630 0.490680 0.750730 1.018590
Cr11  Cr    Cr6+3 0.112370 0.490680 0.249270 1.018590
Cr12  Cr    Cr6+3 0.386020 0.676590 0.749210 1.036231
H1    H     H_    0.381346 0.820181 0.035763 0.097211
H2    H     H_    0.718346 0.746414 0.912186 0.101479
H3    H     H_    0.142363 0.081232 0.466232 0.118570
H4    H     H_    0.306374 0.429073 0.462125 0.120105
H5    H     H_    0.693626 0.429073 0.537875 0.120105
H6    H     H_    0.806374 0.929073 0.462125 0.120105
H7    H     H_    0.193626 0.929073 0.537875 0.120105
H8    H     H_    0.289699 0.425711 0.582685 0.112164
H9    H     H_    0.710301 0.425711 0.417315 0.112164
H10   H     H_    0.789699 0.925711 0.582685 0.112164
H11   H     H_    0.210301 0.925711 0.417315 0.112164
H12   H     H_    0.327460 0.431911 0.065758 0.141526
H13   H     H_    0.781654 0.246414 0.087814 0.101479
H14   H     H_    0.672540 0.431910 0.934242 0.141525
H15   H     H_    0.827460 0.931911 0.065758 0.141525
H16   H     H_    0.172540 0.931911 0.934242 0.141525
H17   H     H_    0.353478 0.577355 0.059294 0.106774
H18   H     H_    0.646522 0.577354 0.940706 0.106774
H19   H     H_    0.853478 0.077354 0.059294 0.106773
H20   H     H_    0.146522 0.077354 0.940706 0.106773
H21   H     H_    0.291326 0.420546 0.944151 0.137633
H22   H     H_    0.708674 0.420546 0.055849 0.137633
H23   H     H_    0.791326 0.920546 0.944151 0.137633
H24   H     H_    0.218346 0.246414 0.912186 0.101479
H25   H     H_    0.208674 0.920546 0.055849 0.137633
H26   H     H_    0.680302 0.923813 0.033949 0.099858
H27   H     H_    0.319697 0.923813 0.966051 0.099858
H28   H     H_    0.180304 0.423813 0.033948 0.099858
H29   H     H_    0.819698 0.423814 0.966051 0.099859
H30   H     H_    0.675405 0.968357 0.911760 0.103822
H31   H     H_    0.324595 0.968357 0.088240 0.103822
H32   H     H_    0.175404 0.468358 0.911760 0.103823
H33   H     H_    0.824595 0.468357 0.088240 0.103822
H34   H     H_    0.410180 0.598692 0.937873 0.127764
H35   H     H_    0.315574 0.740484 0.965744 0.089763
H36   H     H_    0.589820 0.598692 0.062126 0.127761
H37   H     H_    0.910180 0.098690 0.937875 0.127761
H38   H     H_    0.089820 0.098691 0.062126 0.127762
H39   H     H_    0.684426 0.740484 0.034256 0.089764
H40   H     H_    0.815574 0.240484 0.965744 0.089764
H41   H     H_    0.184426 0.240484 0.034256 0.089764
H42   H     H_    0.229372 0.784356 0.950900 0.141792
H43   H     H_    0.770628 0.784355 0.049100 0.141792
H44   H     H_    0.729371 0.284355 0.950900 0.141793
H45   H     H_    0.618654 0.820181 0.964237 0.097211
H46   H     H_    0.270628 0.284355 0.049100 0.141792
H47   H     H_    0.629572 0.051941 0.045554 0.158767
H48   H     H_    0.370428 0.051941 0.954445 0.158767
H49   H     H_    0.129572 0.551938 0.045555 0.158766
H50   H     H_    0.870428 0.551942 0.954445 0.158766
H51   H     H_    0.143133 0.613634 0.931470 0.152031
H52   H     H_    0.856867 0.613633 0.068531 0.152030
H53   H     H_    0.643133 0.113632 0.931469 0.152030
H54   H     H_    0.356867 0.113632 0.068531 0.152031
H55   H     H_    0.546923 0.644293 0.446160 0.136808
H56   H     H_    0.881346 0.320180 0.035763 0.097211
H57   H     H_    0.453077 0.644293 0.553839 0.136808
H58   H     H_    0.046923 0.144293 0.446160 0.136808
H59   H     H_    0.953077 0.144293 0.553839 0.136808
H60   H     H_    0.458780 0.656218 0.435730 0.116186
H61   H     H_    0.541220 0.656218 0.564270 0.116186
H62   H     H_    0.958780 0.156218 0.435730 0.116186
H63   H     H_    0.041220 0.156218 0.564270 0.116186
H64   H     H_    0.616457 0.896556 0.453204 0.112079
H65   H     H_    0.383543 0.896556 0.546796 0.112079
H66   H     H_    0.116457 0.396556 0.453204 0.112079
H67   H     H_    0.118654 0.320182 0.964237 0.097211
H68   H     H_    0.883543 0.396556 0.546796 0.112079
H69   H     H_    0.601150 0.830825 0.575619 0.110073
H70   H     H_    0.398850 0.830825 0.424381 0.110073
H71   H     H_    0.101150 0.330825 0.575619 0.110073
H72   H     H_    0.898850 0.330825 0.424381 0.110073
H73   H     H_    0.467544 0.002246 0.067101 0.126559
H74   H     H_    0.532456 0.002246 0.932899 0.126559
H75   H     H_    0.967543 0.502245 0.067101 0.126559
H76   H     H_    0.032456 0.502246 0.932899 0.126559
H77   H     H_    0.437757 0.973597 0.416254 0.111153
H78   H     H_    0.191729 0.736758 0.064078 0.169724
H79   H     H_    0.562243 0.973597 0.583746 0.111153
H80   H     H_    0.937757 0.473597 0.416254 0.111153
H81   H     H_    0.062243 0.473597 0.583746 0.111153
H82   H     H_    0.449768 0.998335 0.536684 0.119008
H83   H     H_    0.550232 0.998335 0.463316 0.119008
H84   H     H_    0.949768 0.498335 0.536684 0.119008
H85   H     H_    0.050232 0.498335 0.463316 0.119008
H86   H     H_    0.129551 0.610293 0.446047 0.135413
H87   H     H_    0.870449 0.610293 0.553952 0.135414
H88   H     H_    0.629551 0.110293 0.446047 0.135413
H89   H     H_    0.808271 0.736759 0.935921 0.169723
H90   H     H_    0.370449 0.110293 0.553952 0.135414
H91   H     H_    0.179188 0.735899 0.434083 0.116773
H92   H     H_    0.820812 0.735899 0.565917 0.116773
H93   H     H_    0.679188 0.235899 0.434083 0.116773
H94   H     H_    0.320812 0.235899 0.565917 0.116773
H95   H     H_    0.178315 0.752934 0.551984 0.135859
H96   H     H_    0.821685 0.752934 0.448016 0.135859
H97   H     H_    0.678315 0.252934 0.551984 0.135859
H98   H     H_    0.321685 0.252934 0.448016 0.135859
H99   H     H_    0.139873 0.615938 0.564217 0.116932
H100  H     H_    0.691729 0.236759 0.064079 0.169724
H101  H     H_    0.860127 0.615938 0.435783 0.116932
H102  H     H_    0.639873 0.115938 0.564217 0.116932
H103  H     H_    0.360127 0.115938 0.435783 0.116932
H104  H     H_    0.721898 0.880956 0.453888 0.112644
H105  H     H_    0.278102 0.880956 0.546112 0.112644
H106  H     H_    0.221898 0.380956 0.453888 0.112644
H107  H     H_    0.778102 0.380956 0.546112 0.112644
H108  H     H_    0.698227 0.938684 0.575858 0.109662
H109  H     H_    0.301773 0.938684 0.424142 0.109662
H110  H     H_    0.198227 0.438684 0.575858 0.109662
H111  H     H_    0.308271 0.236759 0.935921 0.169724
H112  H     H_    0.801773 0.438684 0.424142 0.109662
H113  H     H_    0.349258 0.609207 0.413430 0.112033
H114  H     H_    0.650741 0.609207 0.586570 0.112033
H115  H     H_    0.849258 0.109207 0.413430 0.112033
H116  H     H_    0.150742 0.109207 0.586570 0.112033
H117  H     H_    0.296711 0.738531 0.421548 0.109235
H118  H     H_    0.703289 0.738531 0.578452 0.109235
H119  H     H_    0.796711 0.238531 0.421548 0.109235
H120  H     H_    0.203289 0.238531 0.578452 0.109235
H121  H     H_    0.533574 0.646966 0.934631 0.139657
H122  H     H_    0.281653 0.746414 0.087814 0.101479
H123  H     H_    0.466426 0.646967 0.065369 0.139657
H124  H     H_    0.033574 0.146967 0.934630 0.139656
H125  H     H_    0.966426 0.146966 0.065369 0.139656
H126  H     H_    0.338844 0.731160 0.542935 0.111613
H127  H     H_    0.661156 0.731160 0.457065 0.111613
H128  H     H_    0.838844 0.231160 0.542935 0.111613
H129  H     H_    0.161156 0.231160 0.457065 0.111613
H130  H     H_    0.357637 0.581232 0.533767 0.118570
H131  H     H_    0.642363 0.581232 0.466232 0.118570
H132  H     H_    0.857637 0.081232 0.533767 0.118570
O1    O     O_R   0.214130 0.708570 0.829890 -0.526727
O2    O     O_R   0.542830 0.717300 0.331620 -0.527648
O3    O     O_R   0.957170 0.217300 0.668380 -0.527647
O4    O     O_R   0.042830 0.217300 0.331620 -0.527648
O5    O     O_R   0.320870 0.624890 0.673130 -0.508462
O6    O     O_R   0.679130 0.624890 0.326870 -0.508462
O7    O     O_R   0.820870 0.124890 0.673130 -0.508462
O8    O     O_R   0.179130 0.124890 0.326870 -0.508462
O9    O     O_3   0.334430 0.834430 0.749680 -0.294064
O10   O     O_3   0.665570 0.834430 0.250320 -0.294064
O11   O     O_3   0.834430 0.334430 0.749680 -0.294064
O12   O     O_R   0.785870 0.708570 0.170110 -0.526728
O13   O     O_3   0.165570 0.334430 0.250320 -0.294064
O14   O     O_R   0.236050 0.959150 0.825270 -0.513893
O15   O     O_R   0.763950 0.959150 0.174730 -0.513893
O16   O     O_R   0.736050 0.459150 0.825270 -0.513893
O17   O     O_R   0.263950 0.459150 0.174730 -0.513893
O18   O     O_R   0.332100 0.076650 0.832310 -0.515788
O19   O     O_R   0.667900 0.076650 0.167690 -0.515787
O20   O     O_R   0.832100 0.576650 0.832310 -0.515788
O21   O     O_R   0.167900 0.576650 0.167690 -0.515787
O22   O     O_R   0.446500 0.918620 0.826240 -0.501213
O23   O     O_R   0.714130 0.208570 0.829890 -0.526728
O24   O     O_R   0.553500 0.918620 0.173760 -0.501213
O25   O     O_R   0.946500 0.418620 0.826240 -0.501213
O26   O     O_R   0.053500 0.418620 0.173760 -0.501214
O27   O     O_R   0.457310 0.715830 0.831280 -0.511126
O28   O     O_R   0.542690 0.715830 0.168720 -0.511126
O29   O     O_R   0.957310 0.215830 0.831280 -0.511124
O30   O     O_R   0.042690 0.215830 0.168720 -0.511125
O31   O     O_R   0.321000 0.623520 0.824130 -0.497496
O32   O     O_R   0.679000 0.623520 0.175870 -0.497494
O33   O     O_R   0.821000 0.123520 0.824130 -0.497492
O34   O     O_R   0.285870 0.208570 0.170110 -0.526728
O35   O     O_R   0.179000 0.123520 0.175870 -0.497493
O36   O     O_R   0.213990 0.710040 0.667000 -0.532602
O37   O     O_R   0.786010 0.710040 0.333000 -0.532602
O38   O     O_R   0.713990 0.210040 0.667000 -0.532602
O39   O     O_R   0.286010 0.210040 0.333000 -0.532602
O40   O     O_R   0.235920 0.960520 0.674260 -0.511144
O41   O     O_R   0.764080 0.960520 0.325740 -0.511144
O42   O     O_R   0.735920 0.460520 0.674260 -0.511144
O43   O     O_R   0.264080 0.460520 0.325740 -0.511144
O44   O     O_R   0.331960 0.078120 0.669410 -0.529429
O45   O     O_R   0.446360 0.919990 0.675230 -0.507824
O46   O     O_R   0.668040 0.078120 0.330590 -0.529429
O47   O     O_R   0.831960 0.578120 0.669410 -0.529429
O48   O     O_R   0.168040 0.578120 0.330590 -0.529429
O49   O     O_2   0.409875 0.433410 0.901736 -0.507813
O50   O     O_2   0.590126 0.433410 0.098267 -0.507810
O51   O     O_2   0.909873 0.933412 0.901732 -0.507811
O52   O     O_2   0.090126 0.933411 0.098267 -0.507812
O53   O     O_R   0.553640 0.919990 0.324770 -0.507824
O54   O     O_R   0.946360 0.419990 0.675230 -0.507824
O55   O     O_R   0.053640 0.419990 0.324770 -0.507824
O56   O     O_R   0.457170 0.717300 0.668380 -0.527647

loop_
_geom_bond_atom_site_label_1
_geom_bond_atom_site_label_2
_ccdc_geom_bond_type
C8    O36   A    
C54   H53   S    
C35   C53   S    
Cr7   O34   S    
C10   O7    A    
C48   O16   A    
C20   C92   S    
Cr10  O11   S    
C14   C21   S    
Cr11  O26   S    
C98   H115  S    
C28   H37   S    
C41   H13   S    
C10   O38   A    
C64   H59   S    
C29   C33   S    
C94   C111  S    
Cr10  O54   S    
C87   H99   S    
Cr5   O15   S    
Cr1   O36   S    
Cr5   O37   S    
C3    C100  S    
C38   C55   S    
C40   H2    S    
Cr10  O20   S    
C52   H51   S    
C91   C100  S    
C110  H9    S    
C108  C121  S    
C93   C110  S    
C99   C121  S    
C96   H113  S    
C1    O18   A    
Cr2   O28   S    
C81   H123  S    
C27   C31   S    
C28   C32   S    
C85   H93   S    
C13   H15   S    
C86   C90   S    
C121  H129  S    
Cr7   O17   S    
Cr6   O38   S    
C60   H41   S    
C98   C102  S    
Cr7   O43   S    
C17   C21   S    
C19   C23   S    
C55   H54   S    
Cr2   O10   S    
C9    O6    A    
C39   C56   S    
C66   O28   A    
C16   C20   S    
C123  O46   A    
C103  H125  S    
Cr11  O21   S    
C61   H60   S    
C95   H105  S    
C49   C115  S    
C83   C100  S    
C56   H35   S    
Cr4   O8    S    
C105  C118  S    
C37   C45   S    
C102  C123  S    
C107  C120  S    
C89   H102  S    
Cr2   O2    S    
C84   C88   S    
C20   H67   S    
Cr3   O7    S    
C84   H87   S    
C98   C120  S    
C47   C52   S    
C59   O21   A    
C24   C46   S    
Cr1   O40   S    
C13   C45   S    
C75   H69   S    
C77   H81   S    
C77   C82   S    
C49   C53   S    
C75   H79   S    
C109  H8    S    
C51   C55   S    
C1    C46   S    
C85   H88   S    
C91   H4    S    
C26   H34   S    
C61   H55   S    
C41   C45   S    
C17   H1    S    
C75   C79   S    
C44   C48   S    
C115  O12   A    
C2    H14   S    
C13   C32   S    
Cr12  O5    S    
C86   C104  S    
C8    C105  S    
C37   O19   A    
C71   C79   S    
C56   H42   S    
C59   O17   A    
C5    O2    A    
C71   H82   S    
Cr1   O9    S    
C7    O4    A    
C113  O1    A    
C41   C58   S    
C34   H28   S    
C77   H71   S    
C15   C25   S    
C104  C122  S    
C12   C22   S    
C49   C57   S    
C89   H97   S    
Cr6   O11   S    
C57   H39   S    
C70   H121  S    
C2    C44   S    
Cr6   O23   S    
C43   C59   S    
Cr2   O6    S    
C2    H18   S    
Cr3   O3    S    
C122  O40   A    
Cr4   O4    S    
C117  O35   A    
C98   H119  S    
C63   C80   S    
C112  H109  S    
C101  C124  S    
C11   O39   A    
C94   H6    S    
C111  H10   S    
Cr5   O41   S    
Cr4   O35   S    
C18   H45   S    
C97   C119  S    
C124  O47   A    
C99   H120  S    
C39   H122  S    
C87   C105  S    
C64   C82   S    
C63   H58   S    
Cr5   O10   S    
C36   H47   S    
C94   C102  S    
C38   H27   S    
C26   C30   S    
C16   C23   S    
Cr7   O13   S    
C72   H66   S    
Cr6   O42   S    
Cr7   O39   S    
C6    O3    A    
C18   C22   S    
C107  C111  S    
C42   H24   S    
C34   C43   S    
C76   C80   S    
C62   H61   S    
C4    O45   A    
C58   H44   S    
C112  H11   S    
C121  H3    S    
C90   C108  S    
C72   C80   S    
C35   H50   S    
C72   H85   S    
C96   C100  S    
C51   C117  S    
C61   C62   S    
C11   O8    A    
C38   C46   S    
C36   C54   S    
C63   C64   S    
C24   H20   S    
C40   C44   S    
C5    O53   A    
C11   C108  S    
C23   C92   S    
C51   C60   S    
Cr3   O11   S    
Cr10  O47   S    
C85   C102  S    
C47   C56   S    
C65   O22   A    
C30   H21   S    
C83   C87   S    
C95   H7    S    
C120  H132  S    
C106  C119  S    
C55   H31   S    
C29   H38   S    
C15   C19   S    
C50   C54   S    
C90   H103  S    
Cr9   O46   S    
C53   H52   S    
C31   C49   S    
C95   C112  S    
C43   C114  S    
C106  C110  S    
C20   C25   S    
Cr11  O55   S    
Cr5   O12   S    
C42   C46   S    
C105  C109  S    
C24   H16   S    
C12   C17   S    
C69   H64   S    
C124  O42   A    
C37   O15   A    
C8    O5    A    
Cr12  O31   S    
C53   H33   S    
C32   H23   S    
C99   C104  S    
C113  O31   A    
C67   O29   A    
C36   H26   S    
C25   C68   S    
C54   H30   S    
C76   H72   S    
C50   C58   S    
C22   C81   S    
C6    O54   A    
C93   H107  S    
C57   H43   S    
C85   C89   S    
C7    O55   A    
Cr9   O10   S    
C108  C112  S    
C73   H84   S    
C115  O32   A    
C86   H94   S    
Cr8   O45   S    
C13   H19   S    
C34   H49   S    
C28   O51   D    
C30   C47   S    
Cr3   O29   S    
C76   H80   S    
C91   H106  S    
C89   C107  S    
C122  O44   A    
C123  O41   A    
C94   H104  S    
C74   H77   S    
C73   C76   S    
Cr8   O22   S    
C93   C101  S    
C73   C82   S    
C93   H5    S    
Cr9   O53   S    
C30   C114  S    
C110  H112  S    
C47   C113  S    
C40   C57   S    
C21   C65   S    
C69   H83   S    
C3    O43   A    
C99   H116  S    
C12   H73   S    
C71   C74   S    
C97   H114  S    
C33   C51   S    
C34   C52   S    
C24   C33   S    
C63   H62   S    
C29   O52   D    
C114  H12   S    
C48   O20   A    
C68   O30   A    
C116  O33   A    
C69   C75   S    
C17   C81   S    
C31   H22   S    
Cr11  O48   S    
C9    O37   A    
C74   C78   S    
C64   H63   S    
C62   H57   S    
C5    C78   S    
C7    C80   S    
C18   C70   S    
C111  H108  S    
C6    C82   S    
C27   O50   D    
C14   C18   S    
C33   H25   S    
Cr11  O13   S    
C38   H48   S    
C83   H91   S    
Cr8   O9    S    
C96   C118  S    
C96   H117  S    
C1    O14   A    
Cr2   O32   S    
C23   C67   S    
C15   C16   S    
C90   H98   S    
C40   H89   S    
C70   C81   S    
C65   O27   A    
C22   C66   S    
Cr6   O16   S    
C92   C103  S    
C118  H130  S    
C83   H86   S    
C19   C103  S    
Cr8   O18   S    
Cr9   O19   S    
C68   O26   A    
C15   H75   S    
C114  H17   S    
C19   H56   S    
C66   O24   A    
C84   C101  S    
C69   C78   S    
Cr4   O13   S    
C92   H124  S    
C60   H46   S    
C73   H68   S    
C119  H127  S    
C42   H111  S    
C14   H74   S    
Cr9   O24   S    
C62   C79   S    
C16   H76   S    
C4    C79   S    
C42   C60   S    
C25   C103  S    
C39   C43   S    
C120  H128  S    
C9    C106  S    
Cr1   O1    S    
C2    C31   S    
C117  O34   A    
C72   C77   S    
Cr12  O27   S    
C88   C106  S    
C118  H126  S    
C61   C78   S    
C119  H131  S    
C67   O25   A    
C36   C45   S    
Cr8   O44   S    
C35   C44   S    
C32   C50   S    
C26   O49   D    
C12   C14   S    
C109  H110  S    
C86   H90   S    
C84   H92   S    
C10   C107  S    
C95   C104  S    
C74   H70   S    
C71   H65   S    
C39   H78   S    
C88   H96   S    
C58   H40   S    
Cr3   O33   S    
Cr4   O30   S    
C41   H100  S    
C116  O23   A    
C21   C70   S    
C3    O48   A    
C91   C109  S    
Cr12  O9    S    
Cr10  O25   S    
C52   H32   S    
C87   H95   S    
C88   H101  S    
C27   H36   S    
C35   H29   S    
Cr12  O56   S    
C50   C116  S    
Cr1   O14   S    
C4    O56   A    
C97   C101  S    
C97   H118  S    
