data_mof_unit_4346.cif
_audit_creation_date              2012-10-26T20:38:01-0400
_audit_creation_method            fapswitch 2.2
_symmetry_space_group_name_H-M    P1
_symmetry_Int_Tables_number       1
_space_group_crystal_system       triclinic
_cell_length_a                    9.809758
_cell_length_b                    11.086804
_cell_length_c                    13.022967
_cell_angle_alpha                 89.513236
_cell_angle_beta                  76.849331
_cell_angle_gamma                 111.638387
_cell_volume                      1275.32920152

loop_
_atom_site_label
_atom_site_type_symbol
_atom_type_description
_atom_site_fract_x
_atom_site_fract_y
_atom_site_fract_z
_atom_type_partial_charge
C1    C     C_R   0.439280 0.253602 0.505761 0.562398
C2    C     C_R   0.677536 0.634559 0.013942 -0.159759
C3    C     C_R   0.325713 0.405905 0.882577 -0.212859
C4    C     C_R   0.665470 0.614953 0.121038 -0.216748
C5    C     C_R   0.586190 0.561226 0.857922 0.247741
C6    C     C_R   0.418411 0.439799 0.142829 0.249251
C7    C     C_R   0.565587 0.552455 0.968215 0.018965
C8    C     C_R   0.430501 0.459882 0.034189 0.011631
C9    C     C_2   0.406088 0.113206 0.507440 0.106554
C10   C     C_2   0.600395 0.884285 0.463492 0.131793
C11   C     C_2   0.522131 0.072012 0.474650 0.234941
C12   C     C_R   0.561710 0.745845 0.488734 0.581038
C13   C     C_2   0.506415 0.940229 0.513521 0.263081
C14   C     C_3   0.306178 0.224836 0.205248 0.001188
C15   C     C_3   0.179657 0.127148 0.291550 -0.243122
C16   C     C_3   0.187375 0.992182 0.289366 -0.494207
C17   C     C_3   0.825363 0.587253 0.759874 0.030735
C18   C     C_3   0.948858 0.626217 0.821348 -0.313202
C19   C     C_3   0.081927 0.589771 0.768700 -0.447176
C20   C     C_3   0.427839 0.921084 0.695468 -0.012451
C21   C     C_3   0.518039 0.852807 0.736813 -0.245577
C22   C     C_3   0.541455 0.892915 0.845268 -0.480605
C23   C     C_2   0.082920 0.510709 0.490768 -0.017112
C24   C     C_3   0.663773 0.186272 0.313656 0.034674
C25   C     C_3   0.822936 0.275695 0.252431 -0.222073
C26   C     C_3   0.827296 0.311223 0.137898 -0.498276
C27   C     C_3   0.756513 0.902648 0.284266 -0.326835
C28   C     C_3   0.159933 0.030143 0.641100 -0.272243
C29   C     C_2   0.916807 0.485282 0.505534 -0.034763
C30   C     C_R   0.475502 0.496719 0.702247 0.556628
C31   C     C_R   0.524996 0.504992 0.298010 0.553554
C32   C     C_R   0.537390 0.517795 0.185340 0.007339
C33   C     C_R   0.463255 0.488926 0.815683 -0.000459
C34   C     C_R   0.310023 0.389906 0.990626 -0.159424
Cu1   Cu    Cu3+1 0.647370 0.522180 0.481340 0.916875
Cu2   Cu    Cu3+1 0.352630 0.477820 0.518660 0.934707
H1    H     H_    0.755341 0.677650 0.154069 0.120050
H2    H     H_    0.298293 0.187367 0.126921 0.121399
H3    H     H_    0.188383 0.162014 0.370407 0.210610
H4    H     H_    0.068788 0.120024 0.279454 0.163181
H5    H     H_    0.174345 0.954097 0.212072 0.136491
H6    H     H_    0.094317 0.923960 0.353334 0.150667
H7    H     H_    0.297334 0.996699 0.302036 0.138137
H8    H     H_    0.881211 0.623023 0.675240 0.182080
H9    H     H_    0.771489 0.478629 0.764363 0.112145
H10   H     H_    0.991418 0.733240 0.826366 0.159808
H11   H     H_    0.901445 0.574710 0.902540 0.157136
H12   H     H_    0.230915 0.350080 0.850765 0.127773
H13   H     H_    0.043010 0.482756 0.764742 0.142969
H14   H     H_    0.167771 0.618657 0.816069 0.153993
H15   H     H_    0.135745 0.641355 0.687695 0.210539
H16   H     H_    0.319879 0.900229 0.756049 0.144404
H17   H     H_    0.489861 0.029072 0.686432 0.120097
H18   H     H_    0.455995 0.745592 0.743450 0.188571
H19   H     H_    0.630473 0.878197 0.680416 0.165472
H20   H     H_    0.603129 0.000106 0.840678 0.133129
H21   H     H_    0.609207 0.843749 0.872210 0.182943
H22   H     H_    0.430615 0.863913 0.904285 0.136241
H23   H     H_    0.203082 0.322873 0.039706 0.150514
H24   H     H_    0.586619 0.237569 0.310738 0.123980
H25   H     H_    0.626502 0.095216 0.274110 0.125077
H26   H     H_    0.860527 0.366602 0.291783 0.202584
H27   H     H_    0.902751 0.226284 0.252904 0.179214
H28   H     H_    0.793134 0.221913 0.096255 0.132009
H29   H     H_    0.944113 0.376553 0.095859 0.152690
H30   H     H_    0.749938 0.362796 0.135476 0.152457
H31   H     H_    0.830904 0.986745 0.414004 0.258170
H32   H     H_    0.843175 0.979582 0.223088 0.129102
H33   H     H_    0.649202 0.866600 0.258319 0.135791
H34   H     H_    0.774933 0.714466 0.967453 0.150259
H35   H     H_    0.796508 0.822066 0.290608 0.159006
H36   H     H_    0.224530 0.932348 0.511305 0.269613
H37   H     H_    0.113699 0.934278 0.689248 0.143032
H38   H     H_    0.063866 0.053974 0.629185 0.154586
H39   H     H_    0.225986 0.105074 0.686039 0.133948
H40   H     H_    0.834352 0.406597 0.563588 0.152523
H41   H     H_    0.165284 0.587598 0.431189 0.153682
H42   H     H_    0.949810 0.631057 0.400040 0.196018
H43   H     H_    0.050242 0.370080 0.600967 0.192944
H44   H     H_    0.416658 0.232884 0.219318 0.102130
N1    N     N_2   0.131210 0.444490 0.546730 -0.358357
N2    N     N_2   0.868790 0.555510 0.453270 -0.364348
N3    N     N_2   0.735673 0.956688 0.384798 -0.514749
N4    N     N_2   0.251911 0.023057 0.538903 -0.536884
O1    O     O_R   0.578710 0.332530 0.490040 -0.468826
O2    O     O_3   0.720841 0.648717 0.793105 -0.584221
O3    O     O_3   0.390627 0.871169 0.601353 -0.596877
O4    O     O_3   0.665294 0.158293 0.419645 -0.553136
O5    O     O_R   0.421290 0.667470 0.509960 -0.474036
O6    O     O_R   0.329810 0.295070 0.521560 -0.493360
O7    O     O_R   0.670190 0.704930 0.478440 -0.505511
O8    O     O_R   0.604230 0.515670 0.637800 -0.484928
O9    O     O_R   0.395770 0.484330 0.362200 -0.454918
O10   O     O_R   0.355330 0.478200 0.669330 -0.515139
O11   O     O_R   0.644670 0.521800 0.330670 -0.523166
O12   O     O_3   0.289886 0.346324 0.208162 -0.564908

loop_
_geom_bond_atom_site_label_1
_geom_bond_atom_site_label_2
_ccdc_geom_bond_type
Cu2   O5    S    
C6    C32   A    
H31   N3    S    
C1    O6    A    
H42   N2    S    
C28   N4    S    
Cu1   O1    S    
C10   N3    S    
C12   O7    A    
C2    C7    A    
C28   H38   S    
C18   H11   S    
C22   H21   S    
C21   H19   S    
C7    C8    A    
C29   H40   S    
C24   H25   S    
C23   C29   S    
C17   H9    S    
C21   H18   S    
C3    C33   A    
C15   C16   S    
C20   O3    S    
C3    H12   S    
C18   C19   S    
C25   H27   S    
C26   H28   S    
C27   H32   S    
Cu2   O9    S    
Cu1   Cu2   S    
C4    H1    S    
C5    C33   A    
C14   H44   S    
Cu2   N1    S    
C27   H33   S    
Cu1   O8    S    
C21   C22   S    
C28   H37   S    
C18   H10   S    
C14   O12   S    
Cu1   N2    S    
C1    O1    A    
C17   O2    S    
C26   H30   S    
C12   O5    A    
C1    C9    S    
C24   C25   S    
C30   O8    A    
H43   N1    S    
C22   H20   S    
C3    C34   A    
C25   C26   S    
C31   O9    A    
C2    C4    A    
Cu2   O10   S    
C14   H2    S    
C9    C11   D    
C19   H13   S    
C31   C32   S    
C11   O4    S    
C24   H24   S    
C13   O3    S    
C17   C18   S    
C8    C34   A    
C23   H41   S    
C24   O4    S    
C16   H7    S    
C15   H3    S    
H36   N4    S    
C10   C12   S    
C5    O2    S    
C6    O12   S    
C34   H23   S    
C16   H6    S    
C27   H35   S    
C5    C7    A    
Cu2   O6    S    
C23   N1    D    
C30   C33   S    
C26   H29   S    
C20   H17   S    
C10   C13   D    
C22   H22   S    
C6    C8    A    
Cu1   O11   S    
C27   N3    S    
C17   H8    S    
C29   N2    D    
C30   O10   A    
C11   C13   S    
C19   H14   S    
C31   O11   A    
C25   H26   S    
C15   H4    S    
C9    N4    S    
C4    C32   A    
C19   H15   S    
C20   C21   S    
C20   H16   S    
C14   C15   S    
C2    H34   S    
C28   H39   S    
C16   H5    S    
Cu1   O7    S    
