data_mof_unit_2199.cif
_audit_creation_date              2012-10-26T19:48:50-0400
_audit_creation_method            fapswitch 2.2
_symmetry_space_group_name_H-M    P1
_symmetry_Int_Tables_number       1
_space_group_crystal_system       triclinic
_cell_length_a                    10.745651
_cell_length_b                    9.39324
_cell_length_c                    27.764013
_cell_angle_alpha                 89.922362
_cell_angle_beta                  90.000332
_cell_angle_gamma                 90.090822
_cell_volume                      2802.39561599

loop_
_atom_site_label
_atom_site_type_symbol
_atom_type_description
_atom_site_fract_x
_atom_site_fract_y
_atom_site_fract_z
_atom_type_partial_charge
C1    C     C_R   0.259635 0.499927 0.501208 0.617677
C2    C     C_R   0.389484 0.554002 0.974829 0.026836
C3    C     C_R   0.613497 0.501033 0.974888 0.018393
C4    C     C_R   0.499412 0.500092 0.407397 0.547601
C5    C     C_R   0.501364 0.526951 0.949544 -0.033075
C6    C     C_R   0.287873 0.613171 0.948792 0.294481
C7    C     C_R   0.288937 0.613053 0.898481 -0.089489
C8    C     C_R   0.393528 0.566145 0.873059 -0.029843
C9    C     C_R   0.501196 0.526355 0.898557 -0.046611
C10   C     C_R   0.608666 0.485634 0.873082 0.034288
C11   C     C_R   0.605439 0.482283 0.822574 0.401512
C12   C     C_R   0.497272 0.370996 0.277950 0.336698
C13   C     C_R   0.394790 0.562566 0.822505 0.404571
C14   C     C_R   0.526500 0.635316 0.720070 -0.078143
C15   C     C_R   0.525853 0.629323 0.669992 -0.196250
C16   C     C_R   0.739915 0.500104 0.501490 0.543049
C17   C     C_R   0.471324 0.377318 0.673218 0.261880
C18   C     C_R   0.468982 0.386395 0.723792 -0.042408
C19   C     C_R   0.498112 0.514053 0.746994 0.204845
C20   C     C_R   0.385986 0.526219 0.025163 0.056596
C21   C     C_R   0.500325 0.520640 0.050754 -0.048428
C22   C     C_R   0.615492 0.519077 0.025673 0.011830
C23   C     C_R   0.496377 0.501793 0.253377 0.267027
C24   C     C_R   0.274145 0.496620 0.050651 0.104238
C25   C     C_R   0.724367 0.534596 0.102807 -0.084710
C26   C     C_R   0.718280 0.454514 0.948598 -0.110179
C27   C     C_R   0.715859 0.447188 0.898550 -0.122672
C28   C     C_R   0.498742 0.499906 0.592708 0.600635
C29   C     C_R   0.727290 0.537156 0.052546 0.251116
C30   C     C_3   0.071166 0.639487 0.525976 0.185583
C31   C     C_3   0.070951 0.368074 0.530250 0.162003
C32   C     C_3   0.927669 0.632157 0.529141 -0.211293
C33   C     C_3   0.927371 0.365046 0.527226 -0.220323
C34   C     C_R   0.499435 0.514941 0.101709 -0.054464
C35   C     C_3   0.069893 0.496366 0.447357 0.114950
C36   C     C_3   0.121174 0.500049 0.501165 0.122616
C37   C     C_3   0.877560 0.500329 0.501745 -0.050221
C38   C     C_3   0.924937 0.503923 0.449211 -0.184286
C39   C     C_3   0.611414 0.084045 0.525914 -0.107535
C40   C     C_3   0.610537 0.916292 0.526509 -0.107299
C41   C     C_3   0.389319 0.083404 0.525873 -0.114311
C42   C     C_3   0.388652 0.915783 0.525446 -0.108288
C43   C     C_3   0.500467 0.083890 0.451453 -0.103470
C44   C     C_3   0.501577 0.916504 0.451457 -0.103639
C45   C     C_R   0.386189 0.501663 0.126779 0.010852
C46   C     C_R   0.387338 0.496416 0.177316 0.418567
C47   C     C_R   0.608636 0.516853 0.178185 0.425042
C48   C     C_R   0.493252 0.630089 0.278842 -0.114410
C49   C     C_R   0.493262 0.629597 0.328959 -0.165726
C50   C     C_R   0.500622 0.371478 0.328714 -0.138851
C51   C     C_3   0.517252 0.141179 0.662656 -0.137826
C52   C     C_3   0.849651 0.711598 0.021847 -0.125811
C53   C     C_3   0.108186 0.796824 0.589749 -0.115667
C54   C     C_3   0.110378 0.240878 0.601049 -0.085152
C55   C     C_3   0.421109 0.142416 0.268164 -0.107222
C56   C     C_R   0.275099 0.488617 0.100958 -0.119797
C57   C     C_3   0.228521 0.818554 0.984936 -0.127818
C58   C     C_R   0.611816 0.521245 0.127656 -0.019741
C59   C     C_R   0.497617 0.500388 0.354354 -0.035837
C60   C     C_R   0.498192 0.501225 0.645951 0.028298
Cu1   Cu    Cu3+1 0.499860 0.642410 0.500020 0.892735
Cu2   Cu    Cu3+1 0.499860 0.357590 0.500020 0.902993
H1    H     H_    0.507304 0.271935 0.348158 0.109615
H2    H     H_    0.885614 0.357466 0.563830 0.146619
H3    H     H_    0.889149 0.732184 0.513733 0.081175
H4    H     H_    0.898255 0.268174 0.507085 0.076937
H5    H     H_    0.890635 0.603222 0.431722 0.136355
H6    H     H_    0.882642 0.414434 0.428592 0.141001
H7    H     H_    0.616638 0.125287 0.563328 0.119648
H8    H     H_    0.612760 0.877432 0.564360 0.103626
H9    H     H_    0.697681 0.120171 0.507519 0.110860
H10   H     H_    0.697464 0.878456 0.509176 0.114014
H11   H     H_    0.386331 0.122086 0.563591 0.161570
H12   H     H_    0.491125 0.730463 0.259618 0.122606
H13   H     H_    0.382904 0.874781 0.562980 0.128126
H14   H     H_    0.417045 0.121916 0.431494 0.109152
H15   H     H_    0.419358 0.877094 0.431046 0.114193
H16   H     H_    0.583254 0.123525 0.431408 0.118432
H17   H     H_    0.585553 0.878522 0.431890 0.117570
H18   H     H_    0.302951 0.121211 0.508057 0.105780
H19   H     H_    0.303221 0.879604 0.506559 0.123086
H20   H     H_    0.188235 0.468263 0.119596 0.164677
H21   H     H_    0.547888 0.725336 0.650064 0.116802
H22   H     H_    0.548823 0.734398 0.738023 0.129549
H23   H     H_    0.811352 0.545554 0.122212 0.177762
H24   H     H_    0.208319 0.653792 0.879535 0.180239
H25   H     H_    0.490728 0.730494 0.347760 0.123019
H26   H     H_    0.500027 0.102836 0.699915 0.122834
H27   H     H_    0.616545 0.172702 0.658022 0.114297
H28   H     H_    0.499396 0.049875 0.638311 0.110214
H29   H     H_    0.849092 0.773009 0.056110 0.120061
H30   H     H_    0.774186 0.749447 0.997543 0.127210
H31   H     H_    0.939445 0.733008 0.003548 0.180491
H32   H     H_    0.137679 0.879126 0.563339 0.052099
H33   H     H_    0.166360 0.810821 0.622408 0.157633
H34   H     H_    0.801512 0.416669 0.966121 0.188531
H35   H     H_    0.009894 0.815140 0.600355 0.105248
H36   H     H_    0.178653 0.169068 0.583692 0.092447
H37   H     H_    0.016506 0.191106 0.600499 0.073451
H38   H     H_    0.138424 0.253252 0.639263 0.184341
H39   H     H_    0.328712 0.188221 0.277697 0.133542
H40   H     H_    0.461504 0.083884 0.299220 0.095929
H41   H     H_    0.405308 0.063593 0.239073 0.153222
H42   H     H_    0.212122 0.611106 0.414805 0.243618
H43   H     H_    0.077023 0.618895 0.385572 0.261423
H44   H     H_    0.066479 0.275319 0.436255 0.206110
H45   H     H_    0.798545 0.411133 0.879905 0.169690
H46   H     H_    0.203407 0.354120 0.421290 0.241841
H47   H     H_    0.257728 0.882102 0.952975 0.120219
H48   H     H_    0.304798 0.814876 0.012008 0.123299
H49   H     H_    0.148705 0.874184 0.001803 0.132919
H50   H     H_    0.141487 0.351324 0.034918 0.220227
H51   H     H_    0.090012 0.520414 0.038627 0.285757
H52   H     H_    0.443174 0.294899 0.745334 0.120818
H53   H     H_    0.096872 0.731270 0.502411 0.120701
H54   H     H_    0.107562 0.269202 0.513264 0.077394
H55   H     H_    0.896654 0.625725 0.567334 0.153499
N1    N     N_R   0.497473 0.504857 0.201798 -0.369129
N2    N     N_R   0.499449 0.520057 0.798504 -0.393529
N3    N     N_3   0.500250 0.143650 0.501060 -0.225179
N4    N     N_3   0.500250 0.856350 0.501060 -0.224729
N5    N     N_3   0.116145 0.620347 0.420093 -0.650525
N6    N     N_3   0.106827 0.366306 0.421236 -0.632938
N7    N     N_3   0.162489 0.456719 0.025823 -0.556645
O1    O     O_R   0.317570 0.620260 0.500030 -0.498541
O2    O     O_2   0.292334 0.600500 0.797514 -0.487740
O3    O     O_2   0.715564 0.524257 0.203565 -0.482408
O4    O     O_2   0.707230 0.441798 0.797662 -0.497633
O5    O     O_3   0.435435 0.252857 0.650230 -0.565388
O6    O     O_3   0.840356 0.564096 0.030677 -0.597074
O7    O     O_3   0.125201 0.656687 0.572382 -0.498880
O8    O     O_3   0.110326 0.376627 0.579061 -0.495127
O9    O     O_3   0.505171 0.246578 0.251086 -0.538807
O10   O     O_3   0.189941 0.680590 0.971537 -0.554201
O11   O     O_R   0.317570 0.379740 0.500030 -0.523918
O12   O     O_R   0.499900 0.620250 0.430280 -0.516679
O13   O     O_R   0.499900 0.379750 0.430280 -0.521149
O14   O     O_R   0.682190 0.620260 0.500010 -0.515480
O15   O     O_R   0.682190 0.379740 0.500010 -0.517179
O16   O     O_R   0.499860 0.620280 0.569750 -0.515309
O17   O     O_R   0.499860 0.379720 0.569750 -0.453277
O18   O     O_2   0.279478 0.483375 0.201845 -0.496133

loop_
_geom_bond_atom_site_label_1
_geom_bond_atom_site_label_2
_ccdc_geom_bond_type
C10   C27   A    
C8    C13   A    
C22   C29   A    
C53   H33   S    
C15   C60   A    
C49   H25   S    
C35   C36   S    
C28   O16   A    
C14   H22   S    
C32   H55   S    
C11   N2    A    
C18   H52   S    
C23   N1    S    
C51   O5    S    
C7    C8    A    
C46   O18   S    
C45   C46   A    
C43   H16   S    
C40   N4    S    
C12   C23   A    
C42   H13   S    
C31   O8    S    
C40   H8    S    
C50   C59   A    
C44   H15   S    
C1    O1    A    
H50   N7    S    
C51   H28   S    
Cu1   O14   S    
C7    H24   S    
H42   N5    S    
C30   O7    S    
C55   H41   S    
C44   N4    S    
C24   N7    S    
C42   N4    S    
C46   N1    A    
Cu1   N4    S    
C18   C19   A    
C41   C42   S    
C3    C26   A    
C4    O13   A    
C47   N1    A    
C57   H47   S    
C20   C24   A    
C45   C56   A    
C8    C9    A    
H44   N6    S    
C52   H29   S    
C31   C33   S    
C53   O7    S    
Cu2   O15   S    
C9    C10   A    
Cu2   N3    S    
C16   C37   S    
C4    O12   A    
C19   N2    S    
C44   H17   S    
C21   C22   A    
C26   H34   S    
C50   H1    S    
C54   H38   S    
C2    C6    A    
C42   H19   S    
C41   H18   S    
C13   N2    A    
C33   H4    S    
C30   H53   S    
C28   C60   S    
C25   C29   A    
C17   O5    S    
C48   H12   S    
C35   C38   S    
C39   C40   S    
C15   H21   S    
C21   C34   A    
C53   H35   S    
C55   O9    S    
C2    C20   A    
C33   C37   S    
Cu2   O11   S    
C43   C44   S    
C5    C9    A    
C37   C38   S    
C29   O6    S    
C55   H40   S    
C27   H45   S    
C25   H23   S    
C17   C18   A    
C26   C27   A    
C52   H31   S    
Cu1   O16   S    
C34   C45   A    
C32   C37   S    
C38   H5    S    
C56   H20   S    
C13   O2    S    
C48   C49   A    
C38   H6    S    
C12   O9    S    
C57   O10   S    
C52   H30   S    
C16   O15   A    
C25   C58   A    
Cu2   O17   S    
C31   H54   S    
C43   N3    S    
C43   H14   S    
C23   C48   A    
C40   H10   S    
C53   H32   S    
C31   C36   S    
C14   C19   A    
C35   N5    S    
C16   O14   A    
C3    C5    A    
C51   H26   S    
C12   C50   A    
C57   H48   S    
C47   O3    S    
C6    C7    A    
C41   N3    S    
C24   C56   A    
C54   O8    S    
C55   H39   S    
C49   C59   A    
C30   C36   S    
C52   O6    S    
C35   N6    S    
C11   O4    S    
C6    O10   S    
C51   H27   S    
C47   C58   A    
C30   C32   S    
C57   H49   S    
H51   N7    S    
C33   H2    S    
C4    C59   S    
C39   H7    S    
H43   N5    S    
Cu2   O13   S    
Cu1   Cu2   S    
C54   H37   S    
C10   C11   A    
C17   C60   A    
C41   H11   S    
C2    C5    A    
C20   C21   A    
Cu1   O12   S    
C34   C58   A    
C39   H9    S    
C14   C15   A    
C54   H36   S    
C3    C22   A    
Cu1   O1    S    
C28   O17   A    
H46   N6    S    
C1    O11   A    
C39   N3    S    
C1    C36   S    
C32   H3    S    
