data_mof_unit_4685.cif
_audit_creation_date              2012-12-10T17:48:43-0500
_audit_creation_method            fapswitch 2.2
_symmetry_space_group_name_H-M    P1
_symmetry_Int_Tables_number       1
_space_group_crystal_system       triclinic
_cell_length_a                    15.722166
_cell_length_b                    10.830338
_cell_length_c                    10.032093
_cell_angle_alpha                 90.849614
_cell_angle_beta                  88.75786
_cell_angle_gamma                 91.787925
_cell_volume                      1706.82435486

loop_
_atom_site_label
_atom_site_type_symbol
_atom_type_description
_atom_site_fract_x
_atom_site_fract_y
_atom_site_fract_z
_atom_type_partial_charge
C1    C     C_R   0.492531 0.260581 0.500672 0.936677
C2    C     C_3   0.945080 0.414048 0.612541 0.082538
C3    C     C_3   0.916723 0.511922 0.506394 0.116073
C4    C     C_3   0.953534 0.648047 0.540624 0.115036
C5    C     C_3   0.053818 0.645674 0.529525 0.196492
C6    C     C_1   0.825043 0.509816 0.500076 -0.050199
C7    C     C_1   0.174595 0.507466 0.507181 0.096073
C8    C     C_1   0.249878 0.504098 0.504833 -0.055170
C9    C     C_R   0.453104 0.127570 0.754037 0.361463
C10   C     C_R   0.492952 0.084579 0.867277 -0.046274
C11   C     C_R   0.524572 0.965905 0.861733 0.388184
C12   C     C_R   0.338717 0.500608 0.501428 0.944027
C13   C     C_R   0.494977 0.887971 0.759649 0.363400
C14   C     C_R   0.481621 0.939590 0.632205 -0.145670
C15   C     C_R   0.468288 0.066823 0.630010 -0.046786
C16   C     C_R   0.474433 0.128249 0.506287 -0.124308
C17   C     C_R   0.468978 0.060791 0.387732 -0.162519
C18   C     C_R   0.461849 0.934019 0.389572 0.414966
C19   C     C_R   0.478517 0.871590 0.508677 -0.174081
C20   C     C_R   0.354159 0.398948 0.129665 0.353090
C21   C     C_R   0.275050 0.409514 0.068793 0.367059
C22   C     C_R   0.270436 0.475521 0.951389 0.000063
C23   C     C_R   0.494301 0.739568 0.501979 0.901282
C24   C     C_R   0.345207 0.510130 0.884305 -0.002243
C25   C     C_R   0.425416 0.482330 0.932804 0.038264
C26   C     C_R   0.428817 0.456713 0.071596 -0.050468
C27   C     C_R   0.567852 0.544790 0.069581 0.110692
C28   C     C_R   0.568748 0.541253 0.927567 0.465456
C29   C     C_R   0.661145 0.501157 0.498783 0.897531
C30   C     C_3   0.044683 0.429836 0.624326 -0.144972
C31   C     C_3   0.050236 0.460536 0.372295 -0.350432
C32   C     C_3   0.952788 0.468253 0.366993 0.213491
C33   C     C_1   0.749844 0.505905 0.497214 -0.137245
C34   C     C_3   0.082764 0.510335 0.508042 0.017698
H1    H     H_    0.058149 0.482298 0.718056 0.160230
H2    H     H_    0.470038 0.105853 0.292363 0.236064
H3    H     H_    0.338304 0.572878 0.805291 0.234756
H4    H     H_    0.081232 0.512805 0.288971 0.277789
H5    H     H_    0.068053 0.362738 0.357783 0.212167
H6    H     H_    0.926354 0.374452 0.342235 0.152366
H7    H     H_    0.081652 0.682063 0.623932 0.125788
N1    N     N_R   0.499210 0.498800 0.142780 -0.128069
N2    N     N_R   0.499180 0.498720 0.857170 -0.145035
O1    O     O_R   0.500000 0.316780 0.614690 -0.605832
O2    O     O_R   0.499990 0.316750 0.385360 -0.583060
O3    O     O_R   0.377150 0.500020 0.614720 -0.623776
O4    O     O_R   0.377140 0.499990 0.385380 -0.573198
O5    O     O_R   0.500010 0.683250 0.614640 -0.567217
O6    O     O_R   0.500000 0.683220 0.385310 -0.584293
O7    O     O_R   0.622860 0.500010 0.614620 -0.564263
O8    O     O_R   0.622850 0.499980 0.385280 -0.659177
Zn1   Zn    Zn3+2 0.500010 0.500020 0.653130 1.047681
Zn2   Zn    Zn3+2 0.499990 0.499980 0.346870 1.025427
N3    N     N_3   0.920928 0.287122 0.567723 -0.469875
H8    H     H_    0.855629 0.280464 0.550298 0.188668
H9    H     H_    0.930757 0.224748 0.644035 0.202234
N4    N     N_3   0.904537 0.436899 0.744217 -0.457814
H10   H     H_    0.839369 0.414929 0.740872 0.220864
H11   H     H_    0.929731 0.378085 0.814074 0.213445
N5    N     N_3   0.921232 0.738336 0.447150 -0.293669
H12   H     H_    0.943164 0.826917 0.475492 0.243101
H13   H     H_    0.854959 0.741165 0.456336 0.200571
Cl1   Cl    Cl    0.366385 0.226454 0.773228 -0.571449
N6    N     N_3   0.495423 0.154929 0.988899 -0.365072
H14   H     H_    0.432802 0.168239 0.020965 0.275433
H15   H     H_    0.523969 0.241182 0.968319 0.182846
Cl2   Cl    Cl    0.574772 0.903982 0.999579 -0.468907
Cl3   Cl    Cl    0.414840 0.787674 0.823117 -0.535600
Cl4   Cl    Cl    0.428724 0.861276 0.239746 -0.442169
N7    N     N_3   0.639653 0.601145 0.133946 -0.342796
H16   H     H_    0.677554 0.531705 0.168886 0.225946
H17   H     H_    0.618894 0.659393 0.210929 0.261698
N8    N     N_3   0.088416 0.312211 0.634657 -0.406278
H18   H     H_    0.066442 0.266430 0.720345 0.214680
H19   H     H_    0.076997 0.255215 0.551664 0.246294
Cl5   Cl    Cl    0.357684 0.278379 0.243071 -0.546532
Cl6   Cl    Cl    0.181810 0.336911 0.135545 -0.568968
N9    N     N_3   0.190581 0.503501 0.895033 -0.436021
H20   H     H_    0.155624 0.553834 0.965773 0.244586
H21   H     H_    0.157467 0.420171 0.876183 0.242513
Cl7   Cl    Cl    0.655778 0.617155 0.847337 -0.539713
Cl8   Cl    Cl    0.922110 0.558985 0.228270 -0.538041
Cl9   Cl    Cl    0.100490 0.746321 0.403562 -0.508251
N10   N     N_3   0.928066 0.689702 0.676150 -0.461354
H22   H     H_    0.962569 0.648096 0.750046 0.218382
H23   H     H_    0.863132 0.671744 0.693987 0.243708

loop_
_geom_bond_atom_site_label_1
_geom_bond_atom_site_label_2
_ccdc_geom_bond_type
C29   C33   S    
N8    H18   S    
C3    C6    S    
C25   N2    A    
C2    N4    S    
C7    C8    T    
C30   H1    S    
N10   H23   S    
N1    Zn2   S    
C5    Cl9   S    
N9    H21   S    
N2    Zn1   S    
N4    H11   S    
C15   C16   A    
O3    Zn1   S    
C20   Cl5   S    
N5    H13   S    
C18   C19   A    
C16   C17   A    
O7    Zn1   S    
N7    H16   S    
C17   H2    S    
C9    C10   A    
O4    Zn2   S    
O1    Zn1   S    
C18   Cl4   S    
O2    Zn2   S    
C21   C22   A    
N8    H19   S    
C12   O4    A    
C11   Cl2   S    
C24   H3    S    
C29   O7    A    
N3    H9    S    
C30   C34   S    
N10   H22   S    
C22   N9    S    
C12   O3    A    
C2    N3    S    
C30   N8    S    
N9    H20   S    
C25   C26   A    
N5    H12   S    
O8    Zn2   S    
N6    H15   S    
C19   C23   S    
C1    O1    A    
C31   C32   S    
C4    N10   S    
C8    C12   S    
C5    C34   S    
C4    N5    S    
C17   C18   A    
C31   C34   S    
C1    C16   S    
C24   C25   A    
C27   N7    S    
C7    C34   S    
C22   C24   A    
C3    C4    S    
C26   N1    A    
C29   O8    A    
C5    H7    S    
N3    H8    S    
C23   O5    A    
C28   Cl7   S    
C9    Cl1   S    
C14   C19   A    
C10   N6    S    
C4    C5    S    
C31   H4    S    
C32   Cl8   S    
C28   N2    A    
C6    C33   T    
C2    C30   S    
N6    H14   S    
C2    C3    S    
C9    C15   A    
C11   C13   A    
C27   N1    A    
C1    O2    A    
N4    H10   S    
C20   C26   A    
O6    Zn2   S    
C31   H5    S    
C32   H6    S    
C3    C32   S    
C23   O6    A    
C10   C11   A    
O5    Zn1   S    
C20   C21   A    
C21   Cl6   S    
C27   C28   A    
C14   C15   A    
N7    H17   S    
C13   C14   A    
C13   Cl3   S    
