data_mof_unit_3988.cif
_audit_creation_date              2013-03-05T16:15:05-0500
_audit_creation_method            fapswitch 2.2
_symmetry_space_group_name_H-M    P1
_symmetry_Int_Tables_number       1
_space_group_crystal_system       triclinic
_cell_length_a                    8.30218
_cell_length_b                    17.449481
_cell_length_c                    18.908002
_cell_angle_alpha                 103.921184
_cell_angle_beta                  91.581977
_cell_angle_gamma                 98.454811
_cell_volume                      2624.16285506

loop_
_atom_site_label
_atom_site_type_symbol
_atom_site_description
_atom_site_fract_x
_atom_site_fract_y
_atom_site_fract_z
_atom_type_partial_charge
P1    P     P_3+3 0.038810 0.422920 0.331160 0.463586
O1    O     O_2   0.871520 0.445720 0.321500 -0.329261
O2    O     O_3   0.121030 0.451930 0.411150 -0.469614
O3    O     O_3   0.662190 0.593100 0.375060 -0.391178
O4    O     O_2   0.763771 0.527399 0.245274 -0.377674
O5    O     O_3   0.970520 0.318747 0.310497 -0.552223
O6    O     O_3   0.705018 0.671626 0.262118 -0.522740
H1    H     H_    0.705589 0.740977 0.367602 0.122200
C1    C     C_3   0.667713 0.808198 0.288769 -0.889300
H2    H     H_    0.799908 0.831788 0.292252 0.314217
H3    H     H_    0.617400 0.797812 0.231643 0.259381
P2    P     P_3+3 0.678260 0.686080 0.568600 0.506689
P3    P     P_3+3 0.135080 0.736224 0.416125 0.544768
O7    O     O_2   0.853880 0.696450 0.547730 -0.308590
O8    O     O_3   0.085100 0.636210 0.413950 -0.356167
O9    O     O_2   0.029104 0.781667 0.472645 -0.313436
O10   O     O_3   0.701961 0.714711 0.664097 -0.541479
O11   O     O_3   0.063251 0.745656 0.331098 -0.480348
C2    C     C_3   0.171186 0.716115 0.278987 0.210437
H4    H     H_    0.195749 0.656208 0.283029 0.021941
H5    H     H_    0.287352 0.758610 0.287108 0.043335
C3    C     C_3   0.097303 0.706562 0.201837 0.135693
H6    H     H_    0.969164 0.675786 0.196166 0.154247
C4    C     C_3   0.319280 0.724488 0.687783 1.044156
H7    H     H_    0.382612 0.691944 0.641899 -0.039970
C5    C     C_3   0.421627 0.743855 0.760150 -0.955268
H8    H     H_    0.470624 0.689920 0.766570 0.197519
H9    H     H_    0.527705 0.791393 0.761020 0.288403
H10   H     H_    0.347050 0.765404 0.807356 0.257791
Ba1   Ba    Ba6+2 0.853800 0.535410 0.467450 1.613088
C6    C     C_3   0.095139 0.275252 0.321374 0.354824
H11   H     H_    0.071500 0.250903 0.369831 0.081691
H12   H     H_    0.217289 0.311630 0.329175 0.116980
C7    C     C_3   0.089077 0.202327 0.257487 -0.904160
H13   H     H_    0.963371 0.166867 0.248008 0.250966
H14   H     H_    0.176283 0.163758 0.270377 0.258379
H15   H     H_    0.123589 0.220293 0.206590 0.233740
C8    C     C_3   0.747807 0.652409 0.691101 0.419009
H16   H     H_    0.840808 0.623739 0.658229 0.120956
H17   H     H_    0.639274 0.606672 0.690353 0.099135
C9    C     C_3   0.819594 0.686553 0.769606 -0.922650
H18   H     H_    0.937122 0.726287 0.770609 0.304771
H19   H     H_    0.839282 0.637809 0.795417 0.208040
H20   H     H_    0.737333 0.722400 0.803343 0.258986
P4    P     P_3+3 0.150900 0.577150 0.668860 0.448596
O12   O     O_2   0.318180 0.554310 0.678550 -0.400375
O13   O     O_3   0.068680 0.548140 0.588860 -0.406347
O14   O     O_3   0.527520 0.406960 0.624950 -0.302364
O15   O     O_3   0.165470 0.682082 0.694173 -0.616822
P5    P     P_3+3 0.068565 0.260245 0.579078 0.522806
O16   O     O_3   0.608500 0.402060 0.457050 -0.389947
O17   O     O_3   0.104610 0.363860 0.586060 -0.389586
O18   O     O_2   0.208944 0.223954 0.537899 -0.328970
O19   O     O_3   0.092464 0.244728 0.666520 -0.473398
Ba2   Ba    Ba6+2 0.336030 0.464660 0.532560 1.584522
P6    P     P_3+3 0.637424 0.579065 0.280473 0.439166
C10   C     C_3   0.641749 0.730496 0.312838 0.485618
H21   H     H_    0.509204 0.712562 0.316105 -0.037719
H22   H     H_    0.605366 0.853236 0.324784 0.196183
O20   O     O_3   0.581210 0.598010 0.542960 -0.423763
C11   C     C_3   0.524528 0.335480 0.303382 0.421781
H23   H     H_    0.458819 0.385711 0.329675 0.051470
H24   H     H_    0.656346 0.354439 0.313864 0.178179
C12   C     C_3   0.486704 0.314073 0.221055 -0.956188
H25   H     H_    0.353084 0.303967 0.207905 0.221710
H26   H     H_    0.541841 0.364797 0.198781 0.254361
H27   H     H_    0.537731 0.259418 0.194501 0.272242
P7    P     P_3+3 0.514075 0.299549 0.427065 0.451999
O21   O     O_2   0.335820 0.303580 0.452320 -0.377176
O22   O     O_3   0.484111 0.268030 0.331497 -0.592090
H28   H     H_    0.167107 0.668814 0.162096 0.043458
C13   C     C_3   0.025471 0.303733 0.715836 0.490704
H29   H     H_    0.109482 0.361702 0.726791 0.130766
H30   H     H_    0.904234 0.311404 0.694564 0.025395
C14   C     C_3   0.003559 0.279215 0.787363 -0.999277
H31   H     H_    0.123781 0.275383 0.812259 0.278123
H32   H     H_    0.946205 0.323959 0.826203 0.230459
H33   H     H_    0.923676 0.220220 0.777435 0.261340
P8    P     P_3+3 0.552568 0.420218 0.719416 0.469640
C15   C     C_3   0.522851 0.275658 0.740150 1.323778
H34   H     H_    0.657333 0.295183 0.744069 -0.246360
O23   O     O_2   0.462160 0.489562 0.753178 -0.406403
O24   O     O_3   0.436818 0.340483 0.746003 -0.568702
H35   H     H_    0.571721 0.200138 0.813036 0.225630
C16   C     C_3   0.482298 0.239439 0.805167 -1.064888
H36   H     H_    0.357440 0.204021 0.796135 0.277305
H37   H     H_    0.488210 0.287237 0.856499 0.224404
C17   C     C_R   0.989170 0.464406 0.044707 -0.017303
C18   C     C_R   0.895222 0.420927 0.087138 -0.358254
C19   C     C_R   0.762769 0.444952 0.950016 -0.205110
C20   C     C_R   0.928546 0.469803 0.974826 0.101164
C21   C     C_R   0.708514 0.443394 0.879434 -0.186523
C22   C     C_R   0.816477 0.466102 0.829780 -0.008960
C23   C     C_R   0.978726 0.500465 0.855324 0.009213
C24   C     C_R   0.035243 0.502553 0.928443 0.044240
C25   C     C_R   0.766098 0.456836 0.755785 0.131082
C26   C     C_R   0.874610 0.484709 0.708652 -0.481745
C27   C     C_R   0.029498 0.527584 0.733999 0.231995
C28   C     C_R   0.082655 0.534794 0.808672 -0.056851
C29   C     C_R   0.151808 0.498108 0.070772 0.030866
C30   C     C_R   0.209749 0.495575 0.142474 -0.063521
C31   C     C_R   0.106873 0.456388 0.187019 -0.199193
C32   C     C_R   0.956114 0.411496 0.154003 0.692718
H38   H     H_    0.832923 0.478421 0.652539 0.196066
H39   H     H_    0.579945 0.424382 0.864783 0.167177
C33   C     C_R   0.235077 0.576278 0.839085 -0.048842
C34   C     C_R   0.292762 0.576910 0.909215 -0.164802
C35   C     C_R   0.197414 0.537627 0.954642 0.033788
C36   C     C_R   0.256870 0.534437 0.025653 0.071258
C37   C     C_R   0.420321 0.563871 0.052281 -0.185493
C38   C     C_R   0.372342 0.530722 0.168673 0.015442
C39   C     C_R   0.476028 0.562145 0.121784 -0.157883
C40   C     C_R   0.427110 0.533503 0.240926 0.153439
C41   C     C_R   0.319213 0.503060 0.286534 -0.506058
C42   C     C_R   0.162001 0.462642 0.261416 0.293068
H40   H     H_    0.313860 0.607698 0.808596 0.159066
H41   H     H_    0.602963 0.585577 0.137730 0.185849
H42   H     H_    0.360518 0.509296 0.342706 0.175679
H43   H     H_    0.670163 0.427759 0.984567 0.136096
H44   H     H_    0.775135 0.388916 0.067728 0.146751
H45   H     H_    0.412987 0.610116 0.926463 0.133661
H46   H     H_    0.510532 0.587859 0.020192 0.142476
C43   C     C_2   0.427289 0.723415 0.493194 -0.269942
C44   C     C_3   0.360765 0.762399 0.437449 0.080418
C45   C     C_2   0.421713 0.850130 0.454076 -0.196473
C46   C     C_2   0.566119 0.879813 0.492687 0.088104
C47   C     C_2   0.648226 0.826014 0.528188 -0.186363
C48   C     C_1   0.575493 0.752012 0.525514 0.245323
C49   C     C_R   0.817265 0.131144 0.512918 -0.339260
C50   C     C_R   0.866256 0.213696 0.531391 0.064311
C51   C     C_R   0.617800 0.230817 0.468024 0.210027
C52   C     C_R   0.569046 0.147757 0.449501 -0.321298
C53   C     C_R   0.665686 0.097709 0.474103 0.125578
C54   C     C_2   0.639807 0.965218 0.504012 -0.179871
C55   C     C_2   0.604875 0.010915 0.458881 -0.133467
C56   C     C_R   0.762551 0.262700 0.511296 0.258344
H47   H     H_    0.522218 0.985529 0.410839 0.133830
H48   H     H_    0.764187 0.849522 0.559411 0.179309
H49   H     H_    0.897540 0.093621 0.528541 0.181521
H50   H     H_    0.723127 0.990984 0.551854 0.145341
H51   H     H_    0.352816 0.886905 0.430280 0.144103
H52   H     H_    0.456547 0.122286 0.416401 0.170272
H53   H     H_    0.358496 0.668811 0.501850 0.148288
O25   O     O_3   0.468035 0.219191 0.673417 -0.573784
C57   C     C_3   0.569338 0.159775 0.656898 -0.260108
H54   H     H_    0.561338 0.122134 0.696831 0.156937
H55   H     H_    0.698162 0.186146 0.653417 0.121981
H56   H     H_    0.524790 0.119289 0.603201 0.201280
O26   O     O_3   0.866713 0.357407 0.186284 -0.582151
C58   C     C_3   0.857626 0.278987 0.140892 -0.218265
H57   H     H_    0.979884 0.266784 0.119680 0.118080
H58   H     H_    0.763254 0.267378 0.093871 0.132224
H59   H     H_    0.817480 0.235828 0.174233 0.198095
O27   O     O_3   0.807775 0.343544 0.530964 -0.654631
C59   C     C_3   0.909024 0.363342 0.477891 0.142357
H60   H     H_    0.842893 0.357097 0.425270 0.106757
H61   H     H_    0.007992 0.327482 0.465884 0.068756
H62   H     H_    0.968361 0.424374 0.501850 0.227115
S1    S     S_3+6 0.105984 0.800604 0.178710 0.012765
O28   O     O_2   0.973671 0.793670 0.120562 -0.222522
O29   O     O_2   0.082630 0.865593 0.244236 -0.275600
O30   O     O_3   0.288145 0.824417 0.146195 -0.484965
H63   H     H_    0.366743 0.840011 0.189475 0.335557
S2    S     S_3+6 0.286034 0.817678 0.670492 -0.028310
O31   O     O_2   0.193181 0.801004 0.597578 -0.287674
O32   O     O_2   0.187013 0.859904 0.728820 -0.251620
O33   O     O_3   0.465425 0.876627 0.669893 -0.570970
H64   H     H_    0.438931 0.918106 0.645796 0.369922

loop_
_geom_bond_atom_site_label_1
_geom_bond_atom_site_label_2
_geom_bond_distance
_ccdc_geom_bond_type
C11   O22   1.405427 S    
O14   Ba2   2.785046 S    
P8    O24   1.755585 S    
Ba1   O16   2.822191 S    
C22   C23   1.412266 A    
C37   H46   1.076744 S    
C59   H61   1.100611 S    
C7    H15   1.113768 S    
C9    H18   1.107632 S    
O4    P6    1.544008 D    
C2    H4    1.113747 S    
C41   C42   1.400153 A    
C10   H21   1.106547 S    
C43   C44   1.517256 S    
P4    O12   1.518219 D    
C5    H8    1.109400 S    
P5    O19   1.749090 S    
P3    O11   1.752321 S    
O14   P8    1.747479 S    
C21   C22   1.401031 A    
S2    O31   1.503984 D    
C2    H5    1.109189 S    
C4    C5    1.528849 S    
C7    H13   1.118296 S    
P4    C27   1.898854 S    
C15   O24   1.408426 S    
S1    O28   1.503456 D    
C54   H50   1.085005 S    
C8    H16   1.105982 S    
C15   H34   1.113347 S    
C3    S1    1.789264 S    
C26   C27   1.397682 A    
C35   C36   1.434224 A    
P1    O1    1.517911 D    
C11   H24   1.093802 S    
C29   C30   1.438915 A    
C31   C42   1.440862 A    
P5    C50   1.859208 S    
C40   C41   1.396931 A    
O2    Ba2   2.813738 S    
C38   C39   1.401761 A    
C45   H51   1.083531 S    
C52   C53   1.415516 A    
C15   O25   1.417127 S    
C58   H59   1.114411 S    
Ba1   O20   2.916871 S    
O12   Ba2   2.846364 S    
P5    O17   1.760626 S    
P6    C40   1.863757 S    
C6    H12   1.100228 S    
C47   H48   1.086094 S    
C1    H2    1.108343 S    
C7    H14   1.117585 S    
C11   H23   1.122014 S    
O17   Ba2   2.788928 S    
O10   C8    1.401961 S    
C16   H37   1.111699 S    
O5    C6    1.408187 S    
C29   C36   1.424493 A    
Ba2   O20   2.821594 S    
O3    P6    1.747848 S    
C59   H62   1.087810 S    
C9    H19   1.106603 S    
C4    S2    1.791667 S    
O6    P6    1.748711 S    
O7    Ba1   2.854389 S    
C13   C14   1.521288 S    
C57   H55   1.110721 S    
C57   H54   1.111080 S    
P4    O13   1.575823 S    
C52   H52   1.083224 S    
C6    C7    1.522886 S    
P5    O18   1.547714 D    
P1    O5    1.766729 S    
C30   C31   1.432327 A    
Ba1   O13   2.813141 S    
C2    C3    1.528245 S    
C4    H7    1.107952 S    
C8    C9    1.527995 S    
C13   H30   1.111738 S    
C51   C56   1.397578 A    
O33   H64   0.989847 S    
P3    C44   1.870800 S    
O11   C2    1.407030 S    
O16   Ba2   2.916031 S    
C16   H36   1.112071 S    
O3    Ba1   2.785545 S    
C33   H40   1.062157 S    
C1    H22   1.109422 S    
C12   H26   1.114092 S    
P2    O10   1.751036 S    
O2    Ba1   2.917511 S    
C14   H31   1.109553 S    
C12   H27   1.114117 S    
C15   C16   1.535648 S    
H1    C10   1.112045 S    
C56   O27   1.361398 S    
C19   C21   1.389406 A    
C6    H11   1.109614 S    
C49   H49   1.081980 S    
C18   H44   1.076138 S    
P4    O15   1.762467 S    
C34   C35   1.412621 A    
C25   C26   1.402292 A    
S1    O29   1.503496 D    
S1    O30   1.681449 S    
C23   C24   1.438003 A    
C38   C40   1.415199 A    
C41   H42   1.082034 S    
H35   C16   1.111901 S    
C14   H32   1.108316 S    
C46   C54   1.487331 S    
O27   C59   1.400333 S    
C17   C29   1.414986 A    
C49   C53   1.410581 A    
P2    O7    1.517515 D    
C22   C25   1.413327 A    
C1    H3    1.110263 S    
C45   C46   1.351182 D    
C9    H20   1.105556 S    
C58   H58   1.128521 S    
C34   H45   1.076754 S    
C43   H53   1.086740 S    
C47   C48   1.331244 D    
C3    H28   1.110173 S    
C57   H56   1.106359 S    
O8    Ba1   2.788325 S    
O13   Ba2   2.918351 S    
O30   H63   0.990298 S    
C4    O15   1.402304 S    
C55   H47   1.083908 S    
C28   C33   1.395050 A    
P2    Ba1   3.399278 S    
C3    H6    1.108884 S    
P7    O21   1.573711 D    
S2    O33   1.682968 S    
C50   C56   1.404127 A    
C13   H29   1.111901 S    
P8    O23   1.535214 D    
C54   C55   1.352735 D    
P2    C48   1.848375 S    
P7    C51   1.869124 S    
C30   C38   1.420259 A    
Ba1   Ba2   4.580482 S    
C5    H9    1.114345 S    
O1    Ba1   2.845783 S    
O25   C57   1.412401 S    
C19   H43   1.078020 S    
Ba2   O21   2.854593 S    
P3    O8    1.723690 S    
C49   C50   1.392912 A    
P8    C25   1.847166 S    
C36   C37   1.411254 A    
C12   H25   1.108914 S    
C11   C12   1.523152 S    
C8    H17   1.109703 S    
C19   C20   1.411838 A    
C39   H41   1.079392 S    
C17   C20   1.430090 A    
C23   C28   1.423263 A    
C46   C47   1.504224 S    
S2    O32   1.507388 D    
P1    Ba1   3.394729 S    
C1    C10   1.519312 S    
O16   P7    1.791869 S    
C31   C32   1.415328 A    
C14   H33   1.110942 S    
C37   C39   1.389765 A    
C26   H38   1.081690 S    
C24   C35   1.416916 A    
C32   O26   1.382204 S    
C20   C24   1.419712 A    
P2    O20   1.581687 S    
C21   H39   1.077715 S    
O19   C13   1.404987 S    
C17   C18   1.407506 A    
P4    Ba2   3.395403 S    
C5    H10   1.122004 S    
P7    O22   1.756794 S    
C27   C28   1.438021 A    
C33   C34   1.394341 A    
P3    O9    1.547352 D    
C43   C48   1.329504 D    
C59   H60   1.096954 S    
C53   C55   1.479477 S    
C58   H57   1.131987 S    
P1    C42   1.889788 S    
P1    O2    1.575660 S    
O26   C58   1.419768 S    
O6    C10   1.401191 S    
C18   C32   1.403688 A    
C51   C52   1.400897 A    
C44   C45   1.493413 S    
