data_mof_unit_4024.cif
_audit_creation_date              2012-10-26T21:17:55-0400
_audit_creation_method            fapswitch 2.2
_symmetry_space_group_name_H-M    P1
_symmetry_Int_Tables_number       1
_space_group_crystal_system       triclinic
_cell_length_a                    14.757037
_cell_length_b                    14.671362
_cell_length_c                    27.830521
_cell_angle_alpha                 75.858984
_cell_angle_beta                  102.981604
_cell_angle_gamma                 114.929004
_cell_volume                      5247.54793745

loop_
_atom_site_label
_atom_site_type_symbol
_atom_type_description
_atom_site_fract_x
_atom_site_fract_y
_atom_site_fract_z
_atom_type_partial_charge
C1    C     C_R   0.880576 0.312041 0.507310 0.577886
C2    C     C_R   0.924154 0.455677 0.123732 0.035397
C3    C     C_R   0.008543 0.515155 0.644151 -0.001366
C4    C     C_R   0.002454 0.497622 0.356166 0.023976
C5    C     C_R   0.930201 0.452353 0.022963 -0.008923
C6    C     C_R   0.106490 0.577817 0.977947 -0.012308
C7    C     C_R   0.107033 0.576835 0.029652 0.044569
C8    C     C_R   0.934196 0.444071 0.973807 0.042873
C9    C     C_R   0.018131 0.511635 0.051846 -0.026533
C10   C     C_R   0.019440 0.513410 0.950218 -0.028445
C11   C     C_R   0.838658 0.407931 0.043127 -0.081141
C12   C     C_R   0.119416 0.687717 0.493609 0.550670
C13   C     C_R   0.192399 0.635468 0.953412 -0.094209
C14   C     C_R   0.835157 0.405657 0.092999 0.270940
C15   C     C_R   0.187926 0.648129 0.901686 0.263361
C16   C     C_R   0.002487 0.504435 0.592082 0.539556
C17   C     C_R   0.000038 0.499020 0.408014 0.591798
C18   C     C_R   0.857747 0.365818 0.948295 0.245973
C19   C     C_R   0.190474 0.641870 0.059612 0.248436
C20   C     C_R   0.813284 0.203882 0.508556 0.012533
C21   C     C_R   0.186934 0.794798 0.495627 0.003053
C22   C     C_R   0.776775 0.031168 0.500107 -0.124489
C23   C     C_R   0.019198 0.515607 0.898833 -0.088338
C24   C     C_R   0.223212 0.963902 0.509685 -0.106242
C25   C     C_R   0.846230 0.131706 0.501507 0.254404
C26   C     C_R   0.154110 0.864403 0.505679 0.239683
C27   C     C_R   0.712134 0.175114 0.513372 -0.198878
C28   C     C_R   0.288797 0.824301 0.492076 -0.191686
C29   C     C_R   0.640070 0.076440 0.508498 -0.026335
C30   C     C_R   0.360792 0.920948 0.500594 -0.026354
C31   C     C_R   0.674954 0.002648 0.504313 0.013951
C32   C     C_R   0.325533 0.993410 0.506088 0.018491
C33   C     C_R   0.534706 0.049527 0.507103 -0.013730
C34   C     C_R   0.015346 0.508392 0.102969 -0.086086
C35   C     C_R   0.466289 0.947424 0.503414 -0.016630
C36   C     C_R   0.505596 0.874067 0.504324 -0.117020
C37   C     C_R   0.495184 0.121952 0.507763 -0.114707
C38   C     C_R   0.608081 0.900999 0.504640 0.255512
C39   C     C_R   0.392493 0.094533 0.507461 0.254082
C40   C     C_R   0.940053 0.446480 0.822049 0.400759
C41   C     C_R   0.102509 0.548602 0.184679 0.399975
C42   C     C_R   0.716441 0.674830 0.418780 0.207162
C43   C     C_R   0.286321 0.330619 0.584991 0.221924
C44   C     C_R   0.794393 0.637400 0.427663 0.415970
C45   C     C_R   0.938757 0.444285 0.872646 -0.011559
C46   C     C_R   0.202435 0.359297 0.570797 0.415219
C47   C     C_R   0.717353 0.512570 0.495095 -0.043281
C48   C     C_R   0.287383 0.493789 0.508708 -0.049847
C49   C     C_R   0.631967 0.540032 0.484287 -0.067102
C50   C     C_R   0.374834 0.469610 0.521977 -0.068782
C51   C     C_R   0.633646 0.622807 0.445342 0.015950
C52   C     C_R   0.372864 0.387184 0.561255 0.015638
C53   C     C_R   0.545976 0.489922 0.510900 0.022813
C54   C     C_R   0.462650 0.522183 0.496923 0.024715
C55   C     C_R   0.469591 0.605657 0.458144 -0.132722
C56   C     C_R   0.103520 0.559549 0.133255 -0.008244
C57   C     C_R   0.540202 0.408517 0.550826 -0.146768
C58   C     C_R   0.552789 0.654357 0.433084 -0.059419
C59   C     C_R   0.456084 0.359082 0.575508 -0.069802
C60   C     C_R   0.093632 0.593504 0.821811 0.416577
C61   C     C_R   0.924279 0.458444 0.174129 0.406957
C62   C     C_R   0.099885 0.530291 0.728019 -0.047240
C63   C     C_R   0.956132 0.408286 0.286290 -0.061199
C64   C     C_R   0.099403 0.531651 0.677617 0.216988
C65   C     C_R   0.946311 0.408400 0.335477 0.236847
C66   C     C_R   0.923597 0.511161 0.660715 -0.194214
C67   C     C_R   0.861530 0.368085 0.897942 -0.102108
C68   C     C_R   0.063984 0.585658 0.327754 -0.219145
C69   C     C_R   0.927103 0.517619 0.710298 -0.080412
C70   C     C_R   0.064863 0.587764 0.277624 -0.081968
C71   C     C_R   0.014177 0.523864 0.744833 0.178745
C72   C     C_R   0.012062 0.498756 0.256372 0.183541
C73   C     C_3   0.000597 0.872450 0.478166 -0.115557
C74   C     C_3   0.995907 0.110989 0.525004 -0.097882
C75   C     C_3   0.124675 0.299521 0.642134 0.000620
C76   C     C_3   0.020904 0.257025 0.658689 -0.365221
C77   C     C_3   0.841722 0.704196 0.347409 0.001911
C78   C     C_R   0.189429 0.626126 0.111489 -0.098215
C79   C     C_3   0.906235 0.690962 0.316521 -0.384020
C80   C     C_3   0.769003 0.848680 0.403200 -0.027464
C81   C     C_3   0.729365 0.929619 0.373995 -0.365704
C82   C     C_3   0.232657 0.156519 0.603853 -0.017956
C83   C     C_3   0.276225 0.078424 0.632819 -0.358774
C84   C     C_3   0.788739 0.279112 0.339927 -0.007005
C85   C     C_3   0.717440 0.213771 0.378136 -0.358269
C86   C     C_3   0.236017 0.651081 0.642571 0.012549
C87   C     C_3   0.327768 0.666762 0.620270 -0.365208
C88   C     C_3   0.722653 0.252703 0.124918 -0.092332
C89   C     C_R   0.100587 0.587506 0.873809 0.043510
C90   C     C_3   0.294517 0.811922 0.878761 -0.085238
C91   C     C_3   0.693900 0.240641 0.949155 -0.026577
C92   C     C_3   0.619098 0.177074 0.986058 -0.380118
C93   C     C_3   0.360817 0.751084 0.062130 -0.028414
C94   C     C_3   0.436166 0.822282 0.026530 -0.381421
C95   C     C_3   0.647851 0.768735 0.552816 -0.020957
C96   C     C_3   0.742434 0.745546 0.563506 -0.371063
C97   C     C_3   0.355886 0.229960 0.460955 -0.024253
C98   C     C_3   0.260686 0.252283 0.449086 -0.365051
Cu1   Cu    Cu3+1 0.081740 0.475690 0.513040 1.020449
Cu2   Cu    Cu3+1 0.918260 0.524310 0.486960 1.005390
H1    H     H_    0.853972 0.502092 0.635454 0.132556
H2    H     H_    0.456216 0.296570 0.605725 0.168720
H3    H     H_    0.282141 0.554491 0.478932 0.134654
H4    H     H_    0.723800 0.453132 0.525428 0.130676
H5    H     H_    0.412010 0.636344 0.446140 0.090797
H6    H     H_    0.599524 0.380302 0.563937 0.089739
H7    H     H_    0.861016 0.515433 0.722093 0.153382
H8    H     H_    0.107002 0.659075 0.255430 0.161553
H9    H     H_    0.805505 0.308024 0.878618 0.151901
H10   H     H_    0.252623 0.673294 0.134616 0.147701
H11   H     H_    0.919243 0.338287 0.270997 0.130674
H12   H     H_    0.108377 0.654038 0.343974 0.108767
H13   H     H_    0.167924 0.535457 0.753978 0.164300
H14   H     H_    0.767179 0.377891 0.020053 0.172765
H15   H     H_    0.266303 0.668341 0.973293 0.183872
H16   H     H_    0.923294 0.843581 0.487802 0.122796
H17   H     H_    0.995674 0.847008 0.442796 0.159459
H18   H     H_    0.031124 0.957109 0.472614 0.086974
H19   H     H_    0.991775 0.114454 0.563943 0.139564
H20   H     H_    0.076014 0.148481 0.518915 0.132627
H21   H     H_    0.969106 0.030537 0.520081 0.083341
H22   H     H_    0.167762 0.377325 0.651318 0.196976
H23   H     H_    0.309822 0.769909 0.482317 0.119431
H24   H     H_    0.163377 0.249182 0.664258 0.169266
H25   H     H_    0.980235 0.176000 0.653724 0.135721
H26   H     H_    0.028969 0.261654 0.698765 0.115757
H27   H     H_    0.975517 0.300693 0.636188 0.168916
H28   H     H_    0.852406 0.785772 0.338081 0.170748
H29   H     H_    0.761820 0.655103 0.335357 0.151762
H30   H     H_    0.887205 0.608563 0.319118 0.166874
H31   H     H_    0.890130 0.723338 0.276633 0.108116
H32   H     H_    0.987280 0.731305 0.329963 0.156004
H33   H     H_    0.850231 0.877932 0.399816 0.122437
H34   H     H_    0.691904 0.232310 0.520637 0.120553
H35   H     H_    0.760076 0.837715 0.443191 0.164057
H36   H     H_    0.648840 0.904918 0.378011 0.158958
H37   H     H_    0.773549 0.002186 0.388661 0.114495
H38   H     H_    0.736719 0.942902 0.333766 0.155895
H39   H     H_    0.237025 0.164540 0.563511 0.162150
H40   H     H_    0.152429 0.126552 0.609413 0.139093
H41   H     H_    0.272384 0.067096 0.673366 0.160998
H42   H     H_    0.232404 0.004434 0.619409 0.112970
H43   H     H_    0.356067 0.104905 0.627072 0.167960
H44   H     H_    0.785863 0.229527 0.314665 0.134129
H45   H     H_    0.801673 0.976342 0.493414 0.142057
H46   H     H_    0.760835 0.339039 0.317897 0.141395
H47   H     H_    0.718229 0.261295 0.403878 0.169629
H48   H     H_    0.639437 0.179815 0.358767 0.095103
H49   H     H_    0.740836 0.151296 0.400011 0.168850
H50   H     H_    0.261713 0.697561 0.672898 0.146663
H51   H     H_    0.185097 0.678791 0.612372 0.143601
H52   H     H_    0.304307 0.620977 0.589955 0.178343
H53   H     H_    0.365710 0.748550 0.604454 0.100822
H54   H     H_    0.381935 0.642845 0.649631 0.151542
H55   H     H_    0.648307 0.213863 0.138681 0.144329
H56   H     H_    0.196963 0.016858 0.517416 0.142418
H57   H     H_    0.780212 0.239018 0.156023 0.129309
H58   H     H_    0.718552 0.217622 0.092876 0.108416
H59   H     H_    0.229170 0.831626 0.858604 0.137738
H60   H     H_    0.359659 0.860047 0.858121 0.147657
H61   H     H_    0.315323 0.831126 0.917051 0.107470
H62   H     H_    0.690195 0.189519 0.924524 0.145559
H63   H     H_    0.669999 0.302845 0.926543 0.126251
H64   H     H_    0.614771 0.226200 0.009388 0.150923
H65   H     H_    0.542972 0.140604 0.965360 0.102868
H66   H     H_    0.642600 0.116534 0.010660 0.160641
H67   H     H_    0.459273 0.794051 0.505728 0.107753
H68   H     H_    0.375703 0.679962 0.075920 0.132701
H69   H     H_    0.374433 0.790947 0.093841 0.143198
H70   H     H_    0.420896 0.892386 0.010462 0.159498
H71   H     H_    0.513971 0.844258 0.047120 0.107630
H72   H     H_    0.431216 0.783850 0.995735 0.149673
H73   H     H_    0.580540 0.695795 0.554156 0.152968
H74   H     H_    0.650708 0.807375 0.583457 0.120872
H75   H     H_    0.810578 0.817410 0.565063 0.141954
H76   H     H_    0.743584 0.693761 0.599953 0.108901
H77   H     H_    0.744382 0.708512 0.533711 0.164472
H78   H     H_    0.541176 0.201459 0.508145 0.110712
H79   H     H_    0.356790 0.195050 0.429653 0.122408
H80   H     H_    0.422781 0.303019 0.461806 0.157088
H81   H     H_    0.255861 0.287331 0.478965 0.162171
H82   H     H_    0.261498 0.305633 0.413044 0.123687
H83   H     H_    0.193095 0.180364 0.446079 0.143571
H84   H     H_    0.552689 0.717620 0.403347 0.168798
N1    N     N_R   0.015316 0.522091 0.797117 -0.397821
N2    N     N_R   0.013257 0.500788 0.204228 -0.395583
N3    N     N_R   0.795430 0.560780 0.467350 -0.243460
N4    N     N_R   0.204570 0.439220 0.532650 -0.248972
O1    O     O_R   0.977900 0.338120 0.517190 -0.398347
O2    O     O_2   0.190502 0.585362 0.214820 -0.516012
O3    O     O_2   0.836125 0.421289 0.192606 -0.472098
O4    O     O_2   0.163767 0.670753 0.795976 -0.470007
O5    O     O_3   0.058260 0.831902 0.517748 -0.559257
O6    O     O_3   0.942154 0.163122 0.489434 -0.524160
O7    O     O_3   0.112809 0.299671 0.590276 -0.538453
O8    O     O_3   0.873757 0.679640 0.399249 -0.535690
O9    O     O_3   0.717146 0.758512 0.382284 -0.602259
O10   O     O_3   0.285871 0.248931 0.622742 -0.594467
O11   O     O_3   0.887898 0.321321 0.365082 -0.542921
O12   O     O_R   0.022100 0.661880 0.482810 -0.423562
O13   O     O_3   0.187845 0.546591 0.661937 -0.574717
O14   O     O_3   0.742733 0.357746 0.110412 -0.519427
O15   O     O_3   0.274573 0.708559 0.879941 -0.525062
O16   O     O_3   0.792395 0.279196 0.975685 -0.571391
O17   O     O_3   0.261316 0.731156 0.036961 -0.578436
O18   O     O_3   0.643133 0.827300 0.504360 -0.592571
O19   O     O_3   0.357086 0.167504 0.508566 -0.594572
O20   O     O_R   0.839850 0.379180 0.495160 -0.538649
O21   O     O_R   0.160150 0.620820 0.504840 -0.548966
O22   O     O_R   0.069030 0.479490 0.580750 -0.450532
O23   O     O_R   0.930970 0.520510 0.419250 -0.458072
O24   O     O_R   0.930970 0.520550 0.558720 -0.520554
O25   O     O_R   0.069030 0.479450 0.441280 -0.493875
O26   O     O_2   0.867055 0.372617 0.798170 -0.517257

loop_
_geom_bond_atom_site_label_1
_geom_bond_atom_site_label_2
_ccdc_geom_bond_type
C30   C32   A    
C64   O13   S    
C63   C65   A    
C34   C56   A    
C60   N1    A    
C23   C45   A    
C96   H75   S    
C73   O5    S    
C27   C29   A    
C75   H22   S    
C76   H26   S    
C95   C96   S    
C85   H48   S    
C21   C26   A    
C93   O17   S    
C74   O6    S    
C97   C98   S    
Cu2   O20   S    
C28   H23   S    
C46   O7    S    
C47   C49   A    
C3    C64   A    
C81   H37   S    
C74   H19   S    
C93   H69   S    
C50   C54   A    
C73   H16   S    
C41   O2    S    
C55   H5    S    
C77   O8    S    
C24   C26   A    
C12   O21   A    
C82   O10   S    
C86   H50   S    
C4    C65   A    
C11   C14   A    
C43   C52   A    
C57   C59   A    
C66   C69   A    
C20   C25   A    
C84   H44   S    
C29   C33   A    
C98   H83   S    
C56   C78   A    
C58   H84   S    
C68   H12   S    
C32   C39   A    
C90   H59   S    
C69   C71   A    
C11   H14   S    
C62   C64   A    
C94   H72   S    
C65   O11   S    
C92   H65   S    
C67   H9    S    
C35   C36   A    
C93   H68   S    
C49   C51   A    
C22   C25   A    
C39   O19   S    
C45   C67   A    
C50   C52   A    
C87   H53   S    
C91   H62   S    
C73   H18   S    
C88   H58   S    
C96   H77   S    
C96   H76   S    
C82   H40   S    
C91   O16   S    
C2    C61   A    
C42   C51   A    
C2    C34   A    
C95   O18   S    
C48   C50   A    
C57   H6    S    
C90   H60   S    
C76   H25   S    
C27   H34   S    
C66   H1    S    
C91   H63   S    
C40   C45   A    
C42   C44   A    
C71   N1    S    
C17   O25   A    
Cu1   N4    S    
C61   O3    S    
C77   C79   S    
C84   O11   S    
C69   H7    S    
C81   H38   S    
C37   C39   A    
C44   O8    S    
C73   H17   S    
C22   C31   A    
C90   H61   S    
C75   H24   S    
C88   H55   S    
C16   O24   A    
Cu2   N3    S    
C48   N4    A    
C84   C85   S    
C62   H13   S    
C80   O9    S    
C91   C92   S    
C83   H41   S    
C53   C57   A    
C86   C87   S    
C97   H80   S    
C40   N1    A    
Cu1   O25   S    
C18   C67   A    
C53   C54   A    
C48   H3    S    
C4    C68   A    
C12   C21   S    
Cu2   O24   S    
C36   H67   S    
C8    C18   A    
C80   H33   S    
C98   H82   S    
C19   C78   A    
C75   C76   S    
C24   C32   A    
C41   C56   A    
C5    C9    A    
C82   H39   S    
C37   H78   S    
C52   C59   A    
C94   H71   S    
C15   C89   A    
C15   O15   S    
Cu1   Cu2   S    
C22   H45   S    
C60   O4    S    
C79   H31   S    
C23   C89   A    
C12   O12   A    
C87   H54   S    
C78   H10   S    
C51   C58   A    
C77   H29   S    
C88   H57   S    
C97   O19   S    
C80   H35   S    
C86   O13   S    
C72   N2    S    
C13   H15   S    
C77   H28   S    
C4    C17   S    
Cu2   O12   S    
C8    C10   A    
C21   C28   A    
C7    C19   A    
C87   H52   S    
C13   C15   A    
C9    C34   A    
C3    C66   A    
C47   N3    A    
C74   H20   S    
C1    O20   A    
C81   H36   S    
Cu1   O1    S    
C90   O15   S    
Cu1   O21   S    
C7    C9    A    
C60   C89   A    
C54   C55   A    
C1    C20   S    
C47   H4    S    
C38   O18   S    
C59   H2    S    
C95   H74   S    
C42   O9    S    
C85   H47   S    
C80   C81   S    
C17   O23   A    
C6    C10   A    
C83   H42   S    
C18   O16   S    
C5    C11   A    
C6    C7    A    
C20   C27   A    
C84   H46   S    
C10   C23   A    
C30   C35   A    
C93   C94   S    
Cu2   O23   S    
C31   C38   A    
C33   C37   A    
C46   N4    A    
C98   H81   S    
C36   C38   A    
C95   H73   S    
C28   C30   A    
C29   C31   A    
C70   H8    S    
C86   H51   S    
C94   H70   S    
C6    C13   A    
C83   H43   S    
C79   H30   S    
C92   H64   S    
C49   C53   A    
C79   H32   S    
C14   O14   S    
C16   O22   A    
C61   N2    A    
C33   C35   A    
C62   C71   A    
C43   O10   S    
C63   H11   S    
C2    C14   A    
C43   C46   A    
C85   H49   S    
C97   H79   S    
C25   O6    S    
C44   N3    A    
C92   H66   S    
C74   H21   S    
C63   C72   A    
C68   C70   A    
C82   C83   S    
C55   C58   A    
C40   O26   S    
C41   N2    A    
C19   O17   S    
C76   H27   S    
C5    C8    A    
C70   C72   A    
C88   O14   S    
C26   O5    S    
C3    C16   S    
C24   H56   S    
C75   O7    S    
Cu1   O22   S    
C1    O1    A    
