data_mof_unit_1251.cif
_audit_creation_date              2013-03-05T16:47:55-0500
_audit_creation_method            fapswitch 2.2
_symmetry_space_group_name_H-M    P1
_symmetry_Int_Tables_number       1
_space_group_crystal_system       triclinic
_cell_length_a                    8.102369
_cell_length_b                    8.934333
_cell_length_c                    16.865793
_cell_angle_alpha                 90.029915
_cell_angle_beta                  83.632616
_cell_angle_gamma                 89.977347
_cell_volume                      1213.37054223

loop_
_atom_site_label
_atom_site_type_symbol
_atom_site_description
_atom_site_fract_x
_atom_site_fract_y
_atom_site_fract_z
_atom_type_partial_charge
O1    O     O_R   0.363150 0.714660 0.500000 -0.611658
O2    O     O_R   0.636850 0.285340 0.500000 -0.611753
O3    O     O_R   0.636850 0.714660 0.500000 -0.615608
O4    O     O_R   0.363150 0.285340 0.500000 -0.615864
H1    H     H_    0.220339 0.412948 0.910508 0.137960
H2    H     H_    0.781588 0.573526 0.088508 0.138263
C1    C     C_R   0.499988 0.782037 0.499980 0.937965
C2    C     C_R   0.500011 0.217963 0.500026 0.937426
O5    O     O_R   0.346950 0.500000 0.615800 -0.614590
O6    O     O_R   0.653050 0.500000 0.384200 -0.614535
O7    O     O_R   0.620700 0.500000 0.615800 -0.620475
O8    O     O_R   0.379300 0.500000 0.384200 -0.620722
C3    C     C_R   0.474654 0.501027 0.653503 0.866868
C4    C     C_R   0.525343 0.498474 0.346481 0.866767
Zn1   Zn    Zn3+2 0.317220 0.500000 0.500010 0.981218
Zn2   Zn    Zn3+2 0.682780 0.500000 0.499990 0.981417
H3    H     H_    0.348334 0.293638 0.122327 0.146145
H4    H     H_    0.648921 0.698995 0.879939 0.146307
N1    N     N_1   0.926360 0.500000 0.499990 -0.036429
N2    N     N_1   0.073640 0.500000 0.500010 -0.036434
C5    C     C_R   0.453495 0.520240 0.739433 -0.040230
C6    C     C_R   0.546361 0.475961 0.260741 -0.040550
C7    C     C_R   0.566862 0.613303 0.772719 -0.250108
C8    C     C_R   0.431739 0.382603 0.228505 -0.249567
C9    C     C_R   0.555814 0.633020 0.854383 -0.181950
C10   C     C_R   0.442633 0.359385 0.147113 -0.182382
C11   C     C_R   0.432492 0.558379 0.903175 0.152344
C12   C     C_R   0.567000 0.430876 0.097466 0.152575
C13   C     C_R   0.313542 0.471297 0.870941 -0.177654
C14   C     C_R   0.687510 0.517664 0.128720 -0.177915
C15   C     C_R   0.322151 0.451036 0.788576 0.171849
C16   C     C_R   0.679125 0.541367 0.210838 0.171804
C17   C     C_2   0.448167 0.547056 0.987667 0.136088
C18   C     C_2   0.550148 0.441077 0.013030 0.136003
C19   C     C_1   0.499975 0.934818 0.499996 -0.197662
C20   C     C_1   0.500020 0.065183 0.500014 -0.197604
H5    H     H_    0.665859 0.669032 0.735471 0.166123
H6    H     H_    0.331778 0.329423 0.266330 0.166752
C21   C     C_3   0.805403 0.642678 0.242638 -0.885003
H7    H     H_    0.884329 0.577407 0.279822 0.262239
H8    H     H_    0.888846 0.695156 0.193721 0.228951
H9    H     H_    0.741443 0.733907 0.278767 0.237084
C22   C     C_3   0.197732 0.349336 0.755598 -0.884202
H10   H     H_    0.263346 0.260788 0.718071 0.236833
H11   H     H_    0.115887 0.293297 0.803878 0.228913
H12   H     H_    0.117077 0.415137 0.719493 0.262058
C23   C     C_3   0.648999 0.333228 0.957267 -0.936811
H13   H     H_    0.721733 0.254928 0.990988 0.242505
H14   H     H_    0.564113 0.265951 0.924102 0.251242
H15   H     H_    0.737456 0.395538 0.914406 0.249305
C24   C     C_3   0.349587 0.655204 0.043380 -0.936161
H16   H     H_    0.277554 0.733986 0.009596 0.242411
H17   H     H_    0.260453 0.593191 0.086049 0.248985
H18   H     H_    0.434556 0.721976 0.076751 0.251468

loop_
_geom_bond_atom_site_label_1
_geom_bond_atom_site_label_2
_geom_bond_distance
_ccdc_geom_bond_type
C8    H6    1.083841 S    
C22   H10   1.110670 S    
O1    Zn1   1.953757 S    
C11   C13   1.395029 A    
O2    Zn2   1.953758 S    
O7    Zn2   1.962189 S    
C15   C22   1.508563 S    
C10   C12   1.392265 A    
C23   H13   1.111114 S    
O8    Zn1   1.962189 S    
O4    C2    1.261582 A    
C24   H18   1.110204 S    
C4    C6    1.451078 S    
O4    Zn1   1.953469 S    
C12   C14   1.395288 A    
C17   C18   1.356637 D    
O5    Zn1   1.994028 S    
C3    C5    1.450474 S    
C13   C15   1.394849 A    
O6    Zn2   1.994028 S    
C11   C17   1.448223 S    
C14   C16   1.395143 A    
C22   H11   1.111040 S    
C5    C15   1.416749 A    
H4    C9    1.083762 S    
C6    C16   1.416749 A    
C19   C20   1.164731 T    
Zn2   N1    1.973575 S    
H3    C10   1.083747 S    
H2    C14   1.084469 S    
C8    C10   1.381328 A    
C23   H15   1.109942 S    
O3    C1    1.261587 A    
C7    C9    1.381463 A    
C5    C7    1.401677 A    
O6    C4    1.273406 A    
Zn1   N2    1.973575 S    
C22   H12   1.109867 S    
C6    C8    1.402115 A    
C17   C24   1.512104 S    
C12   C18   1.448525 S    
C24   H16   1.111118 S    
H1    C13   1.084553 S    
O7    C3    1.279755 A    
C21   H8    1.111089 S    
C23   H14   1.110177 S    
C2    C20   1.364985 S    
C16   C21   1.508553 S    
C21   H7    1.109670 S    
O5    C3    1.273183 A    
C21   H9    1.110542 S    
C18   C23   1.511886 S    
O1    C1    1.261762 A    
C7    H5    1.083890 S    
C1    C19   1.364994 S    
O2    C2    1.261766 A    
O3    Zn2   1.953468 S    
N1    N2    1.193354 T    
O8    C4    1.279880 A    
C24   H17   1.109905 S    
C9    C11   1.392486 A    
