data_mof_unit_3550.cif
_audit_creation_date              2012-12-11T15:56:02-0500
_audit_creation_method            fapswitch 2.2
_symmetry_space_group_name_H-M    P1
_symmetry_Int_Tables_number       1
_space_group_crystal_system       triclinic
_cell_length_a                    11.020049
_cell_length_b                    11.06058
_cell_length_c                    18.820377
_cell_angle_alpha                 89.809664
_cell_angle_beta                  90.454845
_cell_angle_gamma                 59.414788
_cell_volume                      1974.69243062

loop_
_atom_site_label
_atom_site_type_symbol
_atom_type_description
_atom_site_fract_x
_atom_site_fract_y
_atom_site_fract_z
_atom_type_partial_charge
C1    C     C_R   0.356590 0.774820 0.398312 0.545140
C2    C     C_R   0.244081 0.423744 0.204106 0.235580
C3    C     C_R   0.237196 0.442779 0.277982 -0.004374
C4    C     C_R   0.380684 0.352588 0.390405 0.535490
C5    C     C_R   0.942604 0.826152 0.385865 0.297387
C6    C     C_R   0.959480 0.695940 0.406552 -0.102566
C7    C     C_R   0.051728 0.574182 0.369961 -0.126028
C8    C     C_R   0.126293 0.578167 0.310522 0.054788
C9    C     C_R   0.338350 0.330520 0.320497 -0.052523
C10   C     C_R   0.897355 0.319660 0.190043 0.013347
C11   C     C_R   0.879638 0.218900 0.224887 0.010665
C12   C     C_R   0.551815 0.032801 0.196855 0.039218
C13   C     C_R   0.853631 0.227387 0.296966 0.022312
C14   C     C_R   0.891850 0.421815 0.303445 -0.189118
C15   C     C_R   0.917521 0.412863 0.231139 -0.172361
C16   C     C_R   0.777107 0.378774 0.403265 0.540025
C17   C     C_3   0.775749 0.177134 0.207913 -0.295463
C18   C     C_3   0.740205 0.192503 0.285804 -0.240932
C19   C     C_R   0.851408 0.334797 0.336597 0.011522
C20   C     C_R   0.309865 0.919986 0.184989 0.031482
C21   C     C_R   0.379984 0.777835 0.202060 0.012611
C22   C     C_R   0.395395 0.734039 0.271613 -0.001779
C23   C     C_R   0.334730 0.288505 0.174695 -0.000499
C24   C     C_R   0.255841 0.973165 0.310638 -0.172486
C25   C     C_R   0.240393 0.018086 0.239396 -0.166504
C26   C     C_3   0.523268 0.660838 0.182703 -0.267376
C27   C     C_3   0.538619 0.611617 0.259591 -0.265993
C28   C     C_R   0.343626 0.770525 0.603756 0.544038
C29   C     C_R   0.342281 0.829906 0.327129 0.017081
C30   C     C_R   0.314675 0.334244 0.816945 0.008325
C31   C     C_R   0.447836 0.266514 0.786028 0.011658
C32   C     C_R   0.459848 0.266457 0.713935 0.037072
C33   C     C_R   0.209585 0.419235 0.699714 -0.172710
C34   C     C_R   0.428433 0.200626 0.291148 -0.180230
C35   C     C_R   0.196473 0.420573 0.773778 -0.171664
C36   C     C_3   0.571812 0.119457 0.792246 -0.252093
C37   C     C_3   0.581153 0.119505 0.712183 -0.250817
C38   C     C_R   0.342271 0.334667 0.669179 0.018925
C39   C     C_R   0.913470 0.291723 0.821661 0.005231
C40   C     C_R   0.370802 0.349991 0.596070 0.540156
C41   C     C_R   0.897147 0.408280 0.784715 0.020808
C42   C     C_R   0.865634 0.425648 0.713690 0.024452
C43   C     C_R   0.881093 0.200445 0.709839 -0.153974
C44   C     C_R   0.913198 0.183369 0.783101 -0.158153
C45   C     C_R   0.433805 0.175952 0.219020 -0.075753
C46   C     C_3   0.800686 0.560869 0.800003 -0.267669
C47   C     C_3   0.767700 0.580628 0.721710 -0.264505
C48   C     C_R   0.845236 0.328251 0.676182 0.013701
C49   C     C_R   0.293314 0.860323 0.821961 -0.017085
C50   C     C_R   0.182839 0.864995 0.782467 0.051404
C51   C     C_R   0.194645 0.848611 0.709689 -0.014604
C52   C     C_R   0.767745 0.374613 0.609039 0.540978
C53   C     C_R   0.408622 0.856216 0.710776 -0.169435
C54   C     C_R   0.402724 0.863587 0.784795 -0.161626
C55   C     C_3   0.118509 0.773860 0.788593 0.144134
C56   C     C_R   0.103393 0.709518 0.288184 -0.096443
C57   C     C_3   0.138952 0.751106 0.709541 -0.196966
C58   C     C_R   0.310219 0.836599 0.673097 0.007255
C59   C     C_R   0.921916 0.310929 0.114400 0.539465
C60   C     C_R   0.307678 0.261579 0.102073 0.549595
C61   C     C_R   0.272452 0.961861 0.111711 0.545557
C62   C     C_R   0.944559 0.282722 0.897309 0.576175
C63   C     C_R   0.296269 0.290392 0.886347 0.551296
C64   C     C_R   0.813456 0.781704 0.186559 -0.088596
C65   C     C_R   0.273199 0.898181 0.896754 0.542773
C66   C     C_R   0.722723 0.798800 0.240949 -0.170286
C67   C     C_R   0.012190 0.831510 0.325062 -0.066384
C68   C     C_R   0.589936 0.917782 0.243078 -0.115220
C69   C     C_3   0.869324 0.932238 0.495804 -0.102233
C70   C     C_3   0.915164 0.742613 0.036021 -0.268354
C71   C     C_3   0.941567 0.817104 0.868469 -0.144074
C72   C     C_3   0.247920 0.581269 0.127250 -0.119363
C73   C     C_R   0.648411 0.014137 0.142894 -0.044552
C74   C     C_R   0.774198 0.885098 0.134393 0.133983
Cr1   Cr    Cr6+3 0.601740 0.606840 0.505840 0.995418
Cr2   Cr    Cr6+3 0.291500 0.601560 0.495070 1.000833
Cr3   Cr    Cr6+3 0.606780 0.291630 0.499130 1.022216
Cr4   Cr    Cr6+3 0.062440 0.063060 0.008240 0.983356
Cr5   Cr    Cr6+3 0.062950 0.375000 0.998920 0.977073
Cr6   Cr    Cr6+3 0.374550 0.061770 0.992470 0.992248
H1    H     H_    0.506074 0.118816 0.325509 0.165483
H2    H     H_    0.203417 0.049317 0.352244 0.122871
H3    H     H_    0.176359 0.128709 0.226838 0.112465
H4    H     H_    0.595753 0.697524 0.167067 0.172485
H5    H     H_    0.521447 0.586055 0.144221 0.123931
H6    H     H_    0.540172 0.511163 0.265391 0.127675
H7    H     H_    0.619540 0.619772 0.290661 0.159291
H8    H     H_    0.117509 0.483887 0.666792 0.126177
H9    H     H_    0.093620 0.481235 0.796741 0.139491
H10   H     H_    0.546064 0.040458 0.811420 0.155748
H11   H     H_    0.663359 0.116300 0.819412 0.154920
H12   H     H_    0.904364 0.687034 0.451703 0.095909
H13   H     H_    0.678494 0.113333 0.692865 0.151319
H14   H     H_    0.002207 0.929589 0.308174 0.127958
H15   H     H_    0.553773 0.046380 0.686030 0.129463
H16   H     H_    0.876061 0.118733 0.681058 0.126523
H17   H     H_    0.929765 0.090595 0.810446 0.196282
H18   H     H_    0.856781 0.614362 0.818784 0.136179
H19   H     H_    0.708480 0.580960 0.832557 0.153547
H20   H     H_    0.656738 0.612076 0.709741 0.163287
H21   H     H_    0.806970 0.643509 0.694704 0.137854
H22   H     H_    0.497174 0.852325 0.684078 0.120602
H23   H     H_    0.071143 0.474179 0.390538 0.111667
H24   H     H_    0.485628 0.869118 0.812953 0.132055
H25   H     H_    0.916588 0.690375 0.186540 0.180010
H26   H     H_    0.183597 0.676164 0.820671 0.101680
H27   H     H_    0.222990 0.643401 0.696043 0.129029
H28   H     H_    0.039711 0.792897 0.677871 0.152421
H29   H     H_    0.755291 0.720602 0.282121 0.116273
H30   H     H_    0.522622 0.924745 0.286085 0.133225
H31   H     H_    0.160264 0.719050 0.244640 0.146189
H32   H     H_    0.635120 0.101791 0.111361 0.129979
H33   H     H_    0.980872 0.863118 0.513469 0.123910
H34   H     H_    0.881416 0.510534 0.330878 0.135942
H35   H     H_    0.801904 0.891573 0.515375 0.091279
H36   H     H_    0.830951 0.036119 0.520598 0.161635
H37   H     H_    0.844765 0.954971 0.049901 0.240427
H38   H     H_    0.830971 0.761268 0.997118 0.110186
H39   H     H_    0.940838 0.648510 0.068311 0.212501
H40   H     H_    0.012730 0.718478 0.007877 0.123057
H41   H     H_    0.992864 0.701542 0.876511 0.099192
H42   H     H_    0.826110 0.861149 0.871325 0.121891
H43   H     H_    0.971008 0.865747 0.911395 0.167367
H44   H     H_    0.297849 0.519452 0.078879 0.148780
H45   H     H_    0.944968 0.483784 0.207020 0.159725
H46   H     H_    0.331258 0.573079 0.163527 0.099563
H47   H     H_    0.181638 0.692695 0.110846 0.183812
H48   H     H_    0.834060 0.066827 0.190196 0.163353
H49   H     H_    0.688328 0.254617 0.173120 0.127111
H50   H     H_    0.633523 0.282267 0.296728 0.151584
H51   H     H_    0.762085 0.092819 0.310744 0.196030
N1    N     N_2   0.869996 0.866143 0.079309 -0.528272
O1    O     O_R   0.748670 0.497520 0.427970 -0.539252
O2    O     O_R   0.417470 0.174910 0.067830 -0.545388
O3    O     O_R   0.375160 0.946380 0.070880 -0.500314
O4    O     O_R   0.476470 0.723930 0.429450 -0.503503
O5    O     O_R   0.160500 0.919670 0.926690 -0.531784
O6    O     O_R   0.933140 0.190380 0.936050 -0.507584
O7    O     O_R   0.909010 0.403210 0.925030 -0.524394
O8    O     O_R   0.179590 0.361290 0.918480 -0.528878
O9    O     O_R   0.391360 0.170840 0.907510 -0.522700
O10   O     O_R   0.350950 0.942600 0.922260 -0.504455
O11   O     O_3   0.166650 0.166610 0.999880 -0.303658
O12   O     O_R   0.300170 0.471020 0.567120 -0.515134
O13   O     O_R   0.264730 0.744140 0.416740 -0.508088
O14   O     O_R   0.309440 0.472410 0.418220 -0.496144
O15   O     O_R   0.501630 0.260530 0.414310 -0.513496
O16   O     O_R   0.727920 0.305730 0.428950 -0.479402
O17   O     O_R   0.738670 0.496020 0.588600 -0.524697
O18   O     O_R   0.467190 0.722540 0.578350 -0.508179
O19   O     O_R   0.254720 0.742640 0.577370 -0.539693
O20   O     O_3   0.856085 0.950808 0.421299 -0.584101
O21   O     O_3   0.972184 0.852775 0.802082 -0.590395
O22   O     O_3   0.161226 0.538660 0.160800 -0.592990
O23   O     O_R   0.491630 0.259030 0.574940 -0.522856
O24   O     O_R   0.718640 0.304340 0.577850 -0.519485
O25   O     O_3   0.500010 0.500010 0.500020 -0.247943
O26   O     O_R   0.186620 0.923750 0.087000 -0.521953
O27   O     O_R   0.957350 0.194160 0.084660 -0.510301
O28   O     O_R   0.935120 0.407280 0.085350 -0.531340
O29   O     O_R   0.203800 0.365060 0.067090 -0.466934

loop_
_geom_bond_atom_site_label_1
_geom_bond_atom_site_label_2
_ccdc_geom_bond_type
Cr5   O7    S    
C21   C26   S    
C69   H36   S    
C28   O18   A    
C23   C45   A    
C22   C29   A    
C74   N1    S    
C73   C74   A    
C71   H42   S    
C66   C68   A    
C5    C67   A    
C8    C56   A    
C7    C8    A    
C39   C41   A    
C53   C54   A    
C12   C68   A    
C69   H33   S    
C26   C27   S    
C5    O20   S    
C49   C65   S    
C13   C18   S    
C47   H21   S    
C54   H24   S    
C36   C37   S    
C33   H8    S    
C60   O29   A    
C10   C15   A    
C26   H5    S    
Cr3   O24   S    
C30   C31   A    
C20   C25   A    
Cr1   O18   S    
C36   H10   S    
C49   C54   A    
C71   O21   S    
Cr6   O2    S    
C37   H15   S    
C63   O8    A    
C20   C61   S    
H37   N1    S    
C24   H2    S    
C24   C29   A    
C33   C35   A    
C59   O27   A    
Cr4   O26   S    
Cr5   O11   S    
C70   H40   S    
C52   O17   A    
C67   H14   S    
C41   C46   S    
C40   O23   A    
C51   C57   S    
C34   H1    S    
C32   C38   A    
C62   O7    A    
C1    O4    A    
C43   C48   A    
C53   H22   S    
C56   H31   S    
C65   O5    A    
Cr1   O25   S    
Cr5   O8    S    
C46   H18   S    
Cr2   O14   S    
C2    O22   S    
C7    H23   S    
C12   C73   A    
C72   H44   S    
C18   H51   S    
Cr5   O29   S    
C16   O1    A    
Cr4   O6    S    
C70   N1    S    
C17   C18   S    
C23   C60   S    
Cr2   O25   S    
C72   O22   S    
C13   C19   A    
C72   H47   S    
C17   H49   S    
C64   H25   S    
C24   C25   A    
C3    C8    S    
Cr5   O28   S    
C51   C58   A    
Cr1   O4    S    
C42   C48   A    
C55   H26   S    
Cr2   O19   S    
C50   C51   A    
C14   H34   S    
C4    O15   A    
C47   H20   S    
C72   H46   S    
C64   C66   A    
C27   H6    S    
C43   C44   A    
C41   C42   A    
C3    C9    A    
C44   H17   S    
C31   C32   A    
C48   C52   S    
C70   H39   S    
Cr6   O11   S    
C4    O14   A    
C1    C29   S    
C43   H16   S    
C63   O9    A    
C37   H13   S    
C34   C45   A    
C68   H30   S    
C32   C37   S    
C62   O6    A    
C27   H7    S    
Cr6   O3    S    
Cr3   O16   S    
C39   C44   A    
C35   H9    S    
C36   H11   S    
C57   H27   S    
Cr2   O13   S    
C49   C50   A    
Cr6   O10   S    
C22   C27   S    
C55   C57   S    
C9    C34   A    
C18   H50   S    
C1    O13   A    
Cr4   O5    S    
Cr2   O12   S    
C61   O3    A    
C73   H32   S    
C71   H43   S    
C55   O21   S    
C39   C62   S    
Cr3   O15   S    
C46   C47   S    
C11   C17   S    
C26   H4    S    
C31   C36   S    
C69   O20   S    
C14   C19   A    
C71   H41   S    
C50   C55   S    
C12   C45   S    
C53   C58   A    
Cr1   O1    S    
C17   H48   S    
C6    C7    A    
C28   C58   S    
C52   O24   A    
C56   C67   A    
C30   C35   A    
C69   H35   S    
C33   C38   A    
C16   O16   A    
C21   C22   A    
C46   H19   S    
C40   O12   A    
C2    C3    A    
Cr4   O11   S    
Cr3   O23   S    
C38   C40   S    
C65   O10   A    
C11   C13   A    
C5    C6    A    
Cr1   O17   S    
C16   C19   S    
C6    H12   S    
C30   C63   S    
C60   O2    A    
C10   C59   S    
C42   C47   S    
C66   H29   S    
C10   C11   A    
Cr4   O27   S    
C70   H38   S    
C57   H28   S    
C20   C21   A    
C28   O19   A    
Cr6   O9    S    
C15   H45   S    
C2    C23   A    
C25   H3    S    
C64   C74   A    
C14   C15   A    
C59   O28   A    
C4    C9    S    
C61   O26   A    
Cr3   O25   S    
