data_mof_unit_472.cif
_audit_creation_date              2012-12-10T17:31:17-0500
_audit_creation_method            fapswitch 2.2
_symmetry_space_group_name_H-M    P1
_symmetry_Int_Tables_number       1
_space_group_crystal_system       triclinic
_cell_length_a                    18.963122
_cell_length_b                    18.313177
_cell_length_c                    12.353435
_cell_angle_alpha                 90.0
_cell_angle_beta                  129.26062
_cell_angle_gamma                 89.99968
_cell_volume                      3321.67167583

loop_
_atom_site_label
_atom_site_type_symbol
_atom_type_description
_atom_site_fract_x
_atom_site_fract_y
_atom_site_fract_z
_atom_type_partial_charge
C1    C     C_R   0.609600 0.896065 0.649272 0.838263
C2    C     C_R   0.609607 0.103931 0.649278 0.838512
C3    C     C_R   0.109617 0.396074 0.649292 0.838854
C4    C     C_R   0.109622 0.603921 0.649300 0.839922
C5    C     C_R   0.234914 0.783347 0.025487 -0.075667
C6    C     C_R   0.234924 0.216683 0.025524 -0.075820
C7    C     C_R   0.734880 0.283338 0.025465 -0.076364
C8    C     C_R   0.734761 0.716590 0.025319 -0.077678
C9    C     C_R   0.654371 0.281315 0.011309 -0.035433
C10   C     C_R   0.654230 0.718561 0.011093 -0.034785
C11   C     C_R   0.154381 0.781375 0.011271 -0.035437
C12   C     C_R   0.154392 0.218669 0.011312 -0.035561
C13   C     C_R   0.575677 0.249367 0.892565 -0.249354
C14   C     C_R   0.575559 0.750544 0.892368 -0.249412
C15   C     C_R   0.075691 0.749417 0.892544 -0.249796
C16   C     C_R   0.075696 0.250607 0.892556 -0.249500
C17   C     C_R   0.575249 0.217852 0.789116 0.476381
C18   C     C_R   0.575176 0.782114 0.788996 0.476530
C19   C     C_R   0.075266 0.717862 0.789122 0.476083
C20   C     C_R   0.075271 0.282137 0.789119 0.476238
C21   C     C_R   0.315432 0.810952 0.151070 0.425795
C22   C     C_R   0.315435 0.189062 0.151097 0.425717
C23   C     C_R   0.815378 0.311010 0.150989 0.425540
C24   C     C_R   0.815235 0.688863 0.150819 0.425100
C25   C     C_R   0.230291 0.850328 0.226150 -0.303371
C26   C     C_R   0.230299 0.149713 0.226192 -0.303572
C27   C     C_R   0.730293 0.350269 0.226202 -0.304034
C28   C     C_R   0.730134 0.649534 0.225926 -0.304947
C29   C     C_R   0.667672 0.168063 0.725804 -0.094394
C30   C     C_R   0.667660 0.831933 0.725800 -0.094685
C31   C     C_R   0.167704 0.668042 0.725851 -0.093081
C32   C     C_R   0.167702 0.331954 0.725842 -0.093852
C33   C     C_R   0.685248 0.000000 0.287180 -0.293923
C34   C     C_R   0.185248 0.499997 0.287179 -0.293759
C35   C     C_R   0.343129 0.000000 0.626882 0.113248
C36   C     C_R   0.843129 0.500000 0.626882 0.113081
C37   C     C_R   0.308463 0.000001 0.698200 -0.256405
C38   C     C_R   0.808463 0.499999 0.698200 -0.256362
C39   C     C_R   0.384431 0.099352 0.342829 0.860216
C40   C     C_R   0.384429 0.900652 0.342824 0.859975
C41   C     C_R   0.884425 0.599358 0.342818 0.863188
C42   C     C_R   0.884434 0.400641 0.342832 0.860784
C43   C     C_R   0.367359 0.000000 0.843996 -0.204521
C44   C     C_R   0.867358 0.499998 0.843996 -0.204409
C45   C     C_R   0.462457 0.000000 0.921111 -0.006056
C46   C     C_R   0.962456 0.499998 0.921111 -0.006087
C47   C     C_R   0.494921 1.000000 0.843079 0.308499
C48   C     C_R   0.994920 0.499999 0.843079 0.308388
C49   C     C_R   0.526433 0.000000 0.072084 -0.032678
C50   C     C_R   0.026433 0.499998 0.072084 -0.032671
C51   C     C_R   0.620925 0.000000 0.140764 0.180786
C52   C     C_R   0.120924 0.499997 0.140763 0.180535
C53   C     C_R   0.651046 1.000000 0.063285 -0.279646
C54   C     C_R   0.151045 0.499997 0.063284 -0.279184
C55   C     C_R   0.589692 1.000000 0.918311 -0.173500
C56   C     C_R   0.089691 0.499999 0.918311 -0.173321
C57   C     C_R   0.501506 0.000000 0.159263 0.086490
C58   C     C_R   0.001506 0.499999 0.159263 0.086574
C59   C     C_R   0.656365 0.000000 0.366247 0.076807
C60   C     C_R   0.156365 0.499998 0.366247 0.076950
C61   C     C_R   0.653486 0.313640 0.114274 0.301863
C62   C     C_R   0.653314 0.686158 0.113979 0.301988
C63   C     C_R   0.153468 0.813747 0.114172 0.302079
C64   C     C_R   0.153487 0.186321 0.114240 0.301869
C65   C     C_R   0.310184 0.851013 0.242454 -0.217454
C66   C     C_R   0.310183 0.148997 0.242466 -0.217235
C67   C     C_R   0.810154 0.351031 0.242412 -0.216627
C68   C     C_R   0.810028 0.648847 0.242221 -0.215377
C69   C     C_R   0.739500 0.182027 0.723336 -0.193426
C70   C     C_R   0.739532 0.817998 0.723423 -0.193524
C71   C     C_R   0.239537 0.681994 0.723392 -0.192925
C72   C     C_R   0.239539 0.318005 0.723392 -0.193336
C73   C     C_R   0.302784 0.736103 0.807254 -0.125638
C74   C     C_R   0.302809 0.263916 0.807301 -0.125700
C75   C     C_R   0.802757 0.236126 0.807229 -0.125658
C76   C     C_R   0.802813 0.763924 0.807379 -0.125419
C77   C     C_R   0.300736 0.771745 0.904460 -0.050765
C78   C     C_R   0.300769 0.228287 0.904528 -0.050895
C79   C     C_R   0.800712 0.271754 0.904450 -0.051586
C80   C     C_R   0.800728 0.728278 0.904544 -0.053449
C81   C     C_R   0.732959 0.255187 0.916398 0.026642
C82   C     C_R   0.732894 0.744785 0.916338 0.025142
C83   C     C_R   0.232989 0.755182 0.916425 0.027126
C84   C     C_R   0.233006 0.244841 0.916462 0.027109
C85   C     C_R   0.657856 0.212176 0.810281 -0.038856
C86   C     C_R   0.657804 0.787799 0.810213 -0.038333
C87   C     C_R   0.157883 0.712168 0.810314 -0.038950
C88   C     C_R   0.157889 0.287836 0.810321 -0.038970
Cu1   Cu    Cu3+1 0.526340 1.000000 0.421010 0.976574
Cu2   Cu    Cu3+1 0.026340 0.500000 0.421010 0.977430
Cu3   Cu    Cu3+1 0.473640 1.000000 0.578990 0.986732
Cu4   Cu    Cu3+1 0.973640 0.500000 0.578990 0.986817
H1    H     H_    0.226656 0.879939 0.298425 0.198990
H2    H     H_    0.226668 0.120114 0.298482 0.198952
H3    H     H_    0.726679 0.379832 0.298541 0.198963
H4    H     H_    0.726521 0.619945 0.298243 0.198898
H5    H     H_    0.723341 0.999999 0.115495 0.151332
H6    H     H_    0.223340 0.499997 0.115495 0.151778
H7    H     H_    0.757636 0.000000 0.340284 0.131266
H8    H     H_    0.257635 0.499995 0.340283 0.131359
H9    H     H_    0.431190 1.000000 0.115805 0.115952
H10   H     H_    0.931190 0.499999 0.115805 0.115844
H11   H     H_    0.296693 0.000000 0.513796 0.119383
H12   H     H_    0.796693 0.500000 0.513796 0.119390
H13   H     H_    0.336736 0.000001 0.893576 0.135629
H14   H     H_    0.836735 0.499997 0.893576 0.135664
H15   H     H_    0.235522 0.000001 0.640126 0.148728
H16   H     H_    0.735522 0.499998 0.640125 0.148805
H17   H     H_    0.620086 0.999999 0.869546 0.195606
H18   H     H_    0.120085 0.499999 0.869546 0.195635
H19   H     H_    0.513018 0.248996 0.877444 0.190010
H20   H     H_    0.512881 0.750890 0.877193 0.189935
H21   H     H_    0.013050 0.749032 0.877468 0.190057
H22   H     H_    0.013040 0.250974 0.877442 0.190052
H23   H     H_    0.747044 0.151036 0.656518 0.158633
H24   H     H_    0.747103 0.849006 0.656650 0.158594
H25   H     H_    0.247084 0.650993 0.656586 0.158570
H26   H     H_    0.247076 0.348997 0.656566 0.158605
H27   H     H_    0.350269 0.814514 0.964587 0.192891
H28   H     H_    0.350324 0.185538 0.964696 0.192987
H29   H     H_    0.850265 0.314503 0.964623 0.193107
H30   H     H_    0.850341 0.685582 0.964847 0.193527
H31   H     H_    0.355443 0.748869 0.800132 0.154931
H32   H     H_    0.355479 0.251157 0.800203 0.154885
H33   H     H_    0.855426 0.248891 0.800131 0.154839
H34   H     H_    0.855538 0.751201 0.800388 0.154908
H35   H     H_    0.705894 0.000000 0.479201 0.118385
H36   H     H_    0.205894 0.499997 0.479201 0.118307
N1    N     N_R   0.566260 1.000000 0.302220 -0.176738
N2    N     N_R   0.066260 0.500000 0.302220 -0.176784
N3    N     N_R   0.434410 1.000000 0.697680 -0.189389
N4    N     N_R   0.934410 0.500000 0.697680 -0.189408
O1    O     O_R   0.608610 0.924520 0.551740 -0.595704
O2    O     O_R   0.608610 0.075480 0.551740 -0.595695
O3    O     O_R   0.108610 0.424520 0.551740 -0.595797
O4    O     O_R   0.108610 0.575480 0.551740 -0.595501
O5    O     O_R   0.564110 0.924510 0.685150 -0.560484
O6    O     O_R   0.564110 0.075490 0.685150 -0.560419
O7    O     O_R   0.064110 0.424510 0.685150 -0.560549
O8    O     O_R   0.064110 0.575490 0.685150 -0.560728
O9    O     O_R   0.435880 0.075470 0.314850 -0.549727
O10   O     O_R   0.435880 0.924530 0.314850 -0.549789
O11   O     O_R   0.935880 0.575470 0.314850 -0.549291
O12   O     O_R   0.935880 0.424530 0.314850 -0.549733
O13   O     O_R   0.391380 0.075460 0.448260 -0.573426
O14   O     O_R   0.391380 0.924540 0.448260 -0.573343
O15   O     O_R   0.891380 0.575460 0.448260 -0.574070
O16   O     O_R   0.891380 0.424540 0.448260 -0.573694
Br1   Br    Br    0.547808 0.314715 0.103527 -0.588964
Br2   Br    Br    0.547595 0.684995 0.103125 -0.588900
Br3   Br    Br    0.047702 0.815034 0.103177 -0.591357
Br4   Br    Br    0.047758 0.185141 0.103358 -0.589798
O17   O     O_3   0.399772 0.798705 0.186185 -0.574718
C89   C     C_3   0.441698 0.739467 0.280050 -0.238163
H37   H     H_    0.459079 0.753721 0.381834 0.138983
H38   H     H_    0.506515 0.726774 0.301051 0.226978
H39   H     H_    0.398380 0.689566 0.235193 0.155268
O18   O     O_3   0.399791 0.201319 0.186282 -0.574700
C90   C     C_3   0.441491 0.260764 0.279664 -0.238110
H40   H     H_    0.458493 0.246866 0.381320 0.138629
H41   H     H_    0.398177 0.310646 0.234086 0.155695
H42   H     H_    0.506494 0.273285 0.301142 0.227011
O19   O     O_3   0.899757 0.298796 0.186256 -0.574854
C91   C     C_3   0.940728 0.238560 0.277736 -0.238342
H43   H     H_    0.956612 0.251137 0.379065 0.137552
H44   H     H_    0.006261 0.226620 0.300534 0.227060
H45   H     H_    0.897398 0.188800 0.229676 0.157185
O20   O     O_3   0.899716 0.701151 0.186543 -0.575146
C92   C     C_3   0.938608 0.763361 0.273020 -0.238741
H46   H     H_    0.951751 0.754046 0.373252 0.134859
H47   H     H_    0.895104 0.812523 0.218854 0.160839
H48   H     H_    0.005342 0.774202 0.299112 0.227189
O21   O     O_3   0.493287 0.195642 0.664443 -0.555931
C93   C     C_3   0.436308 0.256774 0.592483 -0.350667
H49   H     H_    0.472460 0.301694 0.584543 0.146357
H50   H     H_    0.407427 0.276837 0.642024 0.166977
H51   H     H_    0.378050 0.239888 0.484674 0.195860
O22   O     O_3   0.493230 0.804345 0.664328 -0.555990
C94   C     C_3   0.436322 0.743198 0.592214 -0.350847
H52   H     H_    0.407484 0.722967 0.641724 0.167066
H53   H     H_    0.472520 0.698388 0.584123 0.146363
H54   H     H_    0.378031 0.760131 0.484461 0.195924
O23   O     O_3   0.993326 0.695568 0.664488 -0.555499
C95   C     C_3   0.936023 0.756562 0.592698 -0.347419
H55   H     H_    0.971966 0.801817 0.585084 0.146119
H56   H     H_    0.906917 0.776156 0.642159 0.166089
H57   H     H_    0.877924 0.739676 0.484789 0.195391
O24   O     O_3   0.993320 0.304367 0.664440 -0.555822
C96   C     C_3   0.936188 0.243294 0.592606 -0.349728
H58   H     H_    0.907171 0.223498 0.642091 0.166740
H59   H     H_    0.972250 0.198189 0.584895 0.146288
H60   H     H_    0.878025 0.260153 0.484718 0.195702

loop_
_geom_bond_atom_site_label_1
_geom_bond_atom_site_label_2
_ccdc_geom_bond_type
C26   H2    S    
C74   H32   S    
C25   H1    S    
C40   O10   A    
Cu4   O16   S    
C76   H34   S    
C92   H46   S    
C14   C18   A    
C53   C55   A    
C83   C87   A    
O19   C91   S    
C25   C63   A    
C42   O16   A    
C39   C66   S    
O22   C94   S    
Cu1   N1    S    
C32   C72   A    
C80   H30   S    
O21   C93   S    
C14   H20   S    
C79   H29   S    
C18   C86   A    
C64   Br4   S    
C2    C29   S    
C9    C61   A    
C57   N1    A    
C91   H43   S    
C28   C68   A    
C41   O11   A    
C11   C63   A    
C36   N4    A    
C6    C12   A    
C12   C64   A    
Cu1   O9    S    
Cu3   N3    S    
C77   C83   A    
C59   H35   S    
Cu1   O10   S    
C6    C22   A    
C49   C57   A    
C95   H55   S    
C48   C56   A    
C43   H13   S    
C23   C67   A    
C96   H59   S    
C29   C69   A    
C9    C13   A    
C93   H49   S    
C22   C66   A    
C26   C64   A    
C27   C61   A    
Cu3   O5    S    
C27   H3    S    
C59   N1    A    
C12   C16   A    
C44   C46   A    
C49   C51   A    
C34   H8    S    
C90   H41   S    
C58   H10   S    
C30   C86   A    
C29   C85   A    
Cu2   O11   S    
C81   C85   A    
C4    O4    A    
C94   H54   S    
C21   C65   A    
C52   C54   A    
C31   C71   A    
C3    O7    A    
C33   C59   A    
C55   H17   S    
Cu4   O15   S    
C34   C60   A    
C92   H47   S    
C10   C62   A    
C11   C15   A    
C1    O1    A    
C56   H18   S    
C30   C70   A    
C17   O21   S    
C41   C68   S    
C23   O19   S    
C45   C47   A    
Cu2   Cu4   S    
C54   C56   A    
C6    C84   A    
C71   H25   S    
C2    O6    A    
C39   O9    A    
C60   H36   S    
Cu1   O1    S    
C89   H39   S    
C72   C74   A    
C10   C14   A    
C19   O23   S    
C71   C73   A    
C22   O18   S    
C53   H5    S    
C82   C86   A    
C47   N3    A    
O24   C96   S    
C75   H33   S    
C26   C66   A    
C37   C43   A    
C96   H60   S    
C15   C19   A    
O23   C95   S    
C38   C44   A    
C4    O8    A    
Cu3   O6    S    
Cu2   O4    S    
C13   C17   A    
C50   C52   A    
C90   H40   S    
C41   O15   A    
C45   C49   A    
C16   C20   A    
C39   O13   A    
C15   H21   S    
C90   H42   S    
C25   C65   A    
C3    C32   S    
C2    O2    A    
C43   C45   A    
C93   H51   S    
C63   Br3   S    
C89   H37   S    
C80   C82   A    
O20   C92   S    
C7    C81   A    
C40   C65   S    
C5    C11   A    
C70   C76   A    
C42   C67   S    
C92   H48   S    
C17   C85   A    
C31   C87   A    
Cu1   Cu3   S    
C60   N2    A    
Cu4   O8    S    
C35   N3    A    
Cu3   O13   S    
C1    O5    A    
C35   C37   A    
C47   C55   A    
C20   O24   S    
C7    C9    A    
C78   H28   S    
C69   H23   S    
C73   C77   A    
Cu1   O2    S    
C62   Br2   S    
C24   O20   S    
C89   H38   S    
C91   H45   S    
C48   N4    A    
C76   C80   A    
C77   H27   S    
C16   H22   S    
C79   C81   A    
C5    C83   A    
C37   H15   S    
C44   H14   S    
C33   C51   A    
C57   H9    S    
Cu4   N4    S    
C46   C50   A    
C34   C52   A    
C95   H57   S    
C40   O14   A    
C28   H4    S    
C33   H7    S    
C70   H24   S    
C91   H44   S    
C19   C87   A    
C35   H11   S    
C13   H19   S    
C73   H31   S    
C42   O12   A    
Cu2   O3    S    
C36   H12   S    
O18   C90   S    
C84   C88   A    
C75   C79   A    
C58   N2    A    
C7    C23   A    
C20   C88   A    
C36   C38   A    
C1    C30   S    
C8    C24   A    
C95   H56   S    
C69   C75   A    
C3    O3    A    
C38   H16   S    
C96   H58   S    
C93   H50   S    
C4    C31   S    
C27   C67   A    
C24   C68   A    
C94   H52   S    
Cu2   N2    S    
C46   C48   A    
C78   C84   A    
C8    C82   A    
C5    C21   A    
C18   O22   S    
C8    C10   A    
C74   C78   A    
C72   H26   S    
C21   O17   S    
C54   H6    S    
C51   C53   A    
O17   C89   S    
Cu4   O7    S    
C61   Br1   S    
Cu3   O14   S    
Cu2   O12   S    
C50   C58   A    
C28   C62   A    
C94   H53   S    
C32   C88   A    
