data_mof_unit_2434.cif
_audit_creation_date              2012-12-10T17:53:23-0500
_audit_creation_method            fapswitch 2.2
_symmetry_space_group_name_H-M    P1
_symmetry_Int_Tables_number       1
_space_group_crystal_system       triclinic
_cell_length_a                    23.417881
_cell_length_b                    10.624599
_cell_length_c                    9.912993
_cell_angle_alpha                 89.891653
_cell_angle_beta                  89.884896
_cell_angle_gamma                 91.664052
_cell_volume                      2465.35831635

loop_
_atom_site_label
_atom_site_type_symbol
_atom_type_description
_atom_site_fract_x
_atom_site_fract_y
_atom_site_fract_z
_atom_type_partial_charge
C1    C     C_R   0.501493 0.260727 0.500131 0.855287
C2    C     C_R   0.121208 0.599741 0.522230 0.569427
C3    C     C_R   0.237680 0.495832 0.379725 -0.152920
C4    C     C_R   0.389380 0.498851 0.500189 0.885476
C5    C     C_R   0.296942 0.499266 0.378746 -0.206335
C6    C     C_R   0.327079 0.494811 0.500794 -0.109833
C7    C     C_R   0.297248 0.485245 0.623583 -0.260698
C8    C     C_R   0.237901 0.481504 0.624567 0.450407
C9    C     C_R   0.208237 0.487575 0.502214 0.230104
C10   C     C_R   0.762101 0.504820 0.622070 -0.104596
C11   C     C_R   0.702874 0.506701 0.622169 -0.238602
C12   C     C_R   0.966468 0.265962 0.456520 -0.151013
C13   C     C_R   0.672859 0.498924 0.499826 -0.039668
C14   C     C_R   0.702806 0.489182 0.377607 -0.207521
C15   C     C_R   0.762036 0.487033 0.377947 -0.102799
C16   C     C_R   0.501659 0.739443 0.499840 0.877871
C17   C     C_R   0.791545 0.494905 0.500071 0.324602
C18   C     C_R   0.597367 0.137138 0.623558 -0.174422
C19   C     C_R   0.642263 0.074175 0.683239 -0.112328
C20   C     C_R   0.642332 0.943201 0.682936 -0.118665
C21   C     C_R   0.597520 0.874739 0.622876 -0.190116
C22   C     C_R   0.551299 0.937165 0.563215 0.093984
C23   C     C_R   0.025907 0.264864 0.456873 -0.145250
C24   C     C_R   0.551205 0.069103 0.563583 0.097023
C25   C     C_R   0.505378 0.128675 0.499979 -0.088520
C26   C     C_R   0.462141 0.061965 0.432868 -0.207486
C27   C     C_R   0.462242 0.933400 0.432508 -0.186436
C28   C     C_R   0.610613 0.500178 0.499874 0.841806
C29   C     C_R   0.505570 0.871987 0.499278 -0.102115
C30   C     C_R   0.424836 0.335498 0.140685 -0.164698
C31   C     C_R   0.387696 0.254751 0.070797 -0.178880
C32   C     C_R   0.387690 0.254770 0.931167 -0.161453
C33   C     C_R   0.424859 0.335466 0.860604 -0.160907
C34   C     C_R   0.057959 0.376629 0.478794 -0.020350
C35   C     C_R   0.462963 0.418938 0.928017 0.169488
C36   C     C_R   0.462962 0.418978 0.072615 0.172781
C37   C     C_R   0.535487 0.577430 0.071154 -0.110740
C38   C     C_R   0.535473 0.577405 0.928031 -0.110079
C39   C     C_R   0.882261 0.603942 0.521800 0.505137
C40   C     C_R   0.878556 0.382339 0.478525 0.504382
C41   C     C_R   0.938130 0.378831 0.478161 -0.015194
C42   C     C_R   0.969927 0.491507 0.500351 -0.016806
C43   C     C_R   0.941893 0.605273 0.522367 -0.015046
C44   C     C_R   0.029899 0.490431 0.500553 -0.018852
C45   C     C_R   0.061670 0.603190 0.522492 -0.023278
C46   C     C_R   0.033352 0.716062 0.544070 -0.143040
C47   C     C_R   0.973935 0.717086 0.544075 -0.152414
C48   C     C_R   0.117615 0.377987 0.479812 0.557598
Cl1   Cl    Cl    0.201433 0.469271 0.779570 -0.577360
H1    H     H_    0.942866 0.178270 0.439354 0.194841
H2    H     H_    0.427800 0.881394 0.382649 0.161282
H3    H     H_    0.564487 0.640714 0.124606 0.149098
H4    H     H_    0.046596 0.176364 0.439989 0.194310
H5    H     H_    0.422382 0.329537 0.247640 0.199827
H6    H     H_    0.358799 0.191646 0.125518 0.163226
H7    H     H_    0.358768 0.191719 0.876989 0.169753
H8    H     H_    0.422464 0.329539 0.753652 0.203808
H9    H     H_    0.564451 0.640692 0.873944 0.143606
H10   H     H_    0.056952 0.803784 0.561090 0.197434
H11   H     H_    0.953257 0.805580 0.561077 0.193399
H12   H     H_    0.680726 0.514424 0.717693 0.161051
H13   H     H_    0.214484 0.500502 0.285523 0.174535
H14   H     H_    0.319030 0.506043 0.282780 0.184311
H15   H     H_    0.319823 0.480605 0.718671 0.194016
H16   H     H_    0.785211 0.510902 0.716465 0.139533
H17   H     H_    0.680592 0.482887 0.282023 0.163173
H18   H     H_    0.785105 0.479639 0.283629 0.139345
H19   H     H_    0.427646 0.109698 0.383163 0.144332
H20   H     H_    0.599749 0.238849 0.623226 0.154460
H21   H     H_    0.677379 0.127218 0.728649 0.151523
H22   H     H_    0.677493 0.894485 0.728128 0.151358
H23   H     H_    0.600020 0.773291 0.621925 0.143175
N1    N     N_R   0.852220 0.493660 0.500139 -0.360833
N2    N     N_R   0.147557 0.488311 0.501607 -0.345820
N3    N     N_R   0.499460 0.498800 0.142780 -0.121663
N4    N     N_R   0.499440 0.498720 0.857170 -0.120786
O1    O     O_R   0.500000 0.316780 0.614690 -0.640312
O2    O     O_R   0.583850 0.500050 0.614640 -0.635402
O3    O     O_R   0.583840 0.500030 0.385310 -0.614823
O4    O     O_2   0.854348 0.711729 0.541961 -0.550960
O5    O     O_2   0.847050 0.275661 0.458246 -0.549371
O6    O     O_2   0.145637 0.270363 0.459669 -0.533052
O7    O     O_2   0.152708 0.706463 0.542343 -0.525867
O8    O     O_R   0.500000 0.316750 0.385360 -0.628537
O9    O     O_R   0.416160 0.499970 0.614690 -0.633081
O10   O     O_R   0.416150 0.499950 0.385360 -0.639551
O11   O     O_R   0.500000 0.683250 0.614640 -0.611320
O12   O     O_R   0.500000 0.683220 0.385310 -0.609837
Zn1   Zn    Zn3+2 0.500000 0.500020 0.653130 0.937884
Zn2   Zn    Zn3+2 0.500000 0.499980 0.346870 0.944985

loop_
_geom_bond_atom_site_label_1
_geom_bond_atom_site_label_2
_ccdc_geom_bond_type
C1    C25   S    
C22   C29   A    
C46   H10   S    
C27   C29   A    
C1    O1    A    
C41   C42   A    
C35   C36   A    
C7    C8    A    
C38   N4    A    
C45   C46   A    
C1    O8    A    
C30   H5    S    
C12   C23   A    
O1    Zn1   S    
C26   C27   A    
C37   C38   A    
O8    Zn2   S    
C18   C24   A    
C5    C6    A    
C10   H16   S    
C4    O10   A    
C10   C17   A    
C40   N1    A    
C5    H14   S    
C18   C19   A    
C28   O3    A    
O3    Zn2   S    
N3    Zn2   S    
C47   H11   S    
C38   H9    S    
C19   C20   A    
C8    C9    A    
C16   O11   A    
C13   C28   S    
C28   O2    A    
C2    N2    A    
N4    Zn1   S    
C18   H20   S    
C37   N3    A    
O2    Zn1   S    
C13   C14   A    
C17   N1    S    
C2    O7    S    
C42   C44   A    
C27   H2    S    
C23   H4    S    
C2    C45   A    
C35   N4    A    
C21   H23   S    
C48   N2    A    
C34   C44   A    
C24   C25   A    
C4    C6    S    
O10   Zn2   S    
C37   H3    S    
O9    Zn1   S    
C39   C43   A    
C4    O9    A    
C11   H12   S    
C25   C26   A    
C12   C41   A    
C3    C9    A    
C36   N3    A    
C31   C32   A    
C23   C34   A    
C15   H18   S    
C14   H17   S    
C20   H22   S    
C40   C41   A    
O12   Zn2   S    
O11   Zn1   S    
C22   C24   A    
C34   C48   A    
C9    N2    S    
C44   C45   A    
C3    H13   S    
C15   C17   A    
C46   C47   A    
C33   H8    S    
C40   O5    S    
C3    C5    A    
C12   H1    S    
C6    C7    A    
C30   C36   A    
C26   H19   S    
C32   C33   A    
C16   C29   S    
C39   O4    S    
C11   C13   A    
C30   C31   A    
C33   C35   A    
C48   O6    S    
C39   N1    A    
C7    H15   S    
C10   C11   A    
C20   C21   A    
C42   C43   A    
C16   O12   A    
C14   C15   A    
C19   H21   S    
C31   H6    S    
C21   C22   A    
C43   C47   A    
C8    Cl1   S    
C32   H7    S    
