data_mof_unit_4487.cif
_audit_creation_date              2013-03-05T15:41:05-0500
_audit_creation_method            fapswitch 2.2
_symmetry_space_group_name_H-M    P1
_symmetry_Int_Tables_number       1
_space_group_crystal_system       triclinic
_cell_length_a                    11.308786
_cell_length_b                    11.287262
_cell_length_c                    18.840697
_cell_angle_alpha                 90.26513
_cell_angle_beta                  89.955897
_cell_angle_gamma                 60.397992
_cell_volume                      2090.99325813

loop_
_atom_site_label
_atom_site_type_symbol
_atom_site_description
_atom_site_fract_x
_atom_site_fract_y
_atom_site_fract_z
_atom_type_partial_charge
O1    O     O_R   0.507110 0.256280 0.580300 -0.519651
O2    O     O_R   0.280830 0.527190 0.577940 -0.504922
C1    C     C_R   0.231771 0.646931 0.605984 0.612493
O3    O     O_R   0.261360 0.738990 0.584270 -0.442975
O4    O     O_R   0.532590 0.694780 0.574370 -0.524339
C2    C     C_R   0.650593 0.615328 0.603493 0.494637
O5    O     O_R   0.744470 0.503750 0.577000 -0.522260
O6    O     O_R   0.698520 0.277230 0.571620 -0.489786
C3    C     C_R   0.629644 0.226660 0.600993 0.535141
O7    O     O_R   0.498530 0.256920 0.419280 -0.535345
O8    O     O_R   0.272880 0.527780 0.428680 -0.510704
C4    C     C_R   0.215138 0.652016 0.406285 0.591279
O9    O     O_R   0.252780 0.739630 0.423250 -0.448136
O10   O     O_R   0.524640 0.695370 0.425100 -0.457929
C5    C     C_R   0.644471 0.624438 0.396786 0.586480
O11   O     O_R   0.735890 0.504390 0.415980 -0.520933
O12   O     O_R   0.690560 0.277820 0.422350 -0.448610
C6    C     C_R   0.616687 0.229268 0.396398 0.567305
Cr1   Cr    Cr6+3 0.393010 0.398050 0.501480 1.017399
Cr2   Cr    Cr6+3 0.398820 0.707980 0.501630 1.100175
Cr3   Cr    Cr6+3 0.708140 0.393940 0.496850 1.070012
O13   O     O_3   0.499990 0.499990 0.499980 -0.304926
C7    C     C_3   0.605749 0.796670 0.779541 0.131697
H1    H     H_    0.500599 0.833278 0.796552 0.244415
C8    C     C_3   0.598021 0.784294 0.698979 -0.219231
H2    H     H_    0.490051 0.835212 0.681679 0.152727
H3    H     H_    0.644913 0.833674 0.668865 0.173334
H4    H     H_    0.918632 0.600192 0.790847 0.120569
C9    C     C_3   0.847325 0.563314 0.776912 -0.075012
C10   C     C_3   0.631084 0.570289 0.811098 -0.121608
C11   C     C_3   0.702259 0.654397 0.817139 -0.034610
H5    H     H_    0.698157 0.464963 0.829049 0.161737
C12   C     C_3   0.671573 0.634993 0.679871 -0.017165
C13   C     C_3   0.825516 0.577483 0.694883 0.093289
C14   C     C_3   0.617760 0.556668 0.728830 -0.148816
H6    H     H_    0.682324 0.446903 0.715534 0.117278
H7    H     H_    0.881505 0.475861 0.670378 0.206511
C15   C     C_2   0.679423 0.160160 0.671831 0.253939
C16   C     C_2   0.674808 0.190303 0.835262 0.017622
C17   C     C_2   0.779775 0.167090 0.791645 -0.198060
C18   C     C_2   0.773258 0.178391 0.711245 0.002775
H8    H     H_    0.879720 0.123149 0.815570 0.157552
C19   C     C_2   0.180007 0.662736 0.679018 0.321400
C20   C     C_2   0.195961 0.661867 0.842024 -0.103799
C21   C     C_2   0.203124 0.557455 0.803514 0.040166
C22   C     C_2   0.213299 0.551377 0.722836 0.307029
H9    H     H_    0.218791 0.734842 0.818679 0.220523
C23   C     C_2   0.677139 0.686899 0.338301 0.275566
C24   C     C_2   0.656520 0.677433 0.164699 0.054353
C25   C     C_2   0.740004 0.676265 0.215929 -0.120976
C26   C     C_2   0.749556 0.610752 0.282634 0.043292
H10   H     H_    0.823399 0.694941 0.203317 0.108244
C27   C     C_2   0.657863 0.156471 0.329802 -0.114862
C28   C     C_2   0.649214 0.156814 0.174878 -0.076162
C29   C     C_2   0.583517 0.113352 0.217206 -0.124198
C30   C     C_2   0.563624 0.147299 0.291141 -0.144073
H11   H     H_    0.538149 0.054487 0.197117 0.193911
H12   H     H_    0.464946 0.171475 0.312579 0.194906
H13   H     H_    0.695279 0.215040 0.194604 0.131733
H14   H     H_    0.758245 0.125237 0.308574 0.118727
C31   C     C_2   0.117832 0.684006 0.348912 -0.092481
C32   C     C_2   0.125613 0.683935 0.188217 0.039921
C33   C     C_2   0.050393 0.788830 0.233644 -0.156362
C34   C     C_2   0.075490 0.795519 0.309228 0.040109
H15   H     H_    0.967177 0.882905 0.212595 0.142264
H16   H     H_    0.107977 0.599067 0.328373 0.118078
O14   O     O_R   0.089190 0.825870 0.932320 -0.519221
O15   O     O_R   0.819070 0.053960 0.931440 -0.513948
C35   C     C_R   0.699268 0.109205 0.901196 0.521810
O16   O     O_R   0.607070 0.076440 0.916460 -0.489904
O17   O     O_R   0.647110 0.806550 0.917690 -0.443378
C36   C     C_R   0.721801 0.682499 0.891823 0.575846
O18   O     O_R   0.837080 0.593860 0.915300 -0.479188
O19   O     O_R   0.064770 0.636080 0.932550 -0.480977
C37   C     C_R   0.118258 0.706836 0.908643 0.530412
O20   O     O_R   0.068250 0.829200 0.092940 -0.501988
O21   O     O_R   0.799650 0.057040 0.080330 -0.498354
C38   C     C_R   0.676665 0.103985 0.103832 0.564267
O22   O     O_R   0.586130 0.079760 0.077080 -0.496268
O23   O     O_R   0.627700 0.809630 0.066580 -0.500603
C39   C     C_R   0.695942 0.690461 0.094410 0.556846
O24   O     O_R   0.816140 0.597180 0.075920 -0.493465
O25   O     O_R   0.045360 0.639170 0.081440 -0.465504
C40   C     C_R   0.086646 0.713282 0.114283 0.536955
Cr4   Cr    Cr6+3 0.937950 0.938450 0.008940 1.063015
Cr5   Cr    Cr6+3 0.626180 0.937030 0.994750 1.091646
Cr6   Cr    Cr6+3 0.937790 0.625760 0.001410 1.112236
O26   O     O_3   0.833980 0.833750 0.001700 -0.322474
O27   O     O_3   0.625092 0.905464 0.800269 -0.563792
C41   C     C_3   0.760154 0.869696 0.793080 -0.041322
H17   H     H_    0.827142 0.803147 0.835287 0.095205
H18   H     H_    0.771861 0.956590 0.798163 0.138912
H19   H     H_    0.789675 0.839176 0.738766 0.198371
C42   C     C_2   0.925527 0.409304 0.798247 0.562139
O28   O     O_2   0.994119 0.321692 0.754718 -0.509405
O29   O     O_R   0.925186 0.366024 0.867741 -0.644768
H20   H     H_    0.981913 0.263589 0.873506 0.352557
C43   C     C_2   0.899352 0.169168 0.678620 0.577103
O30   O     O_2   0.010804 0.084338 0.700697 -0.455255
O31   O     O_R   0.895176 0.260869 0.628323 -0.652829
H21   H     H_    0.988790 0.241224 0.612170 0.329897
C44   C     C_2   0.534206 0.274008 0.810898 0.694822
O32   O     O_2   0.496829 0.389694 0.793066 -0.454936
O33   O     O_R   0.443418 0.225015 0.804518 -0.617194
H22   H     H_    0.474183 0.129928 0.820300 0.380699
O34   O     O_3   0.628238 0.082779 0.703329 -0.607243
C45   C     C_3   0.512165 0.089252 0.671850 -0.056789
H23   H     H_    0.534716 0.040013 0.618563 0.099021
H24   H     H_    0.429122 0.193020 0.671840 0.240211
H25   H     H_    0.469070 0.041908 0.706345 0.161519
C46   C     C_2   0.215861 0.438019 0.843706 0.689307
O35   O     O_2   0.180483 0.362109 0.817500 -0.469177
O36   O     O_R   0.279411 0.405862 0.910278 -0.618754
H26   H     H_    0.284326 0.321316 0.931733 0.346473
O37   O     O_3   0.277455 0.421044 0.693888 -0.495652
C47   C     C_3   0.181073 0.387902 0.666744 -0.076431
H27   H     H_    0.081158 0.450143 0.690199 0.166074
H28   H     H_    0.210685 0.281556 0.680507 0.176465
H29   H     H_    0.175498 0.395266 0.608181 0.107654
O38   O     O_3   0.137191 0.791196 0.705725 -0.526485
C48   C     C_3   0.005710 0.843656 0.729594 -0.109730
H30   H     H_    0.992520 0.764100 0.755536 0.038644
H31   H     H_    0.933944 0.892253 0.684905 0.162942
H32   H     H_    0.989588 0.916727 0.772290 0.167394
C49   C     C_2   0.823387 0.460023 0.279709 0.577082
O39   O     O_2   0.945796 0.398952 0.268076 -0.498770
O40   O     O_R   0.752179 0.388865 0.285693 -0.666003
H33   H     H_    0.814299 0.287324 0.279756 0.331370
C50   C     C_2   0.533874 0.663535 0.175075 0.601279
O41   O     O_2   0.484181 0.674843 0.234027 -0.433564
O42   O     O_R   0.471910 0.642901 0.115725 -0.663001
H34   H     H_    0.385926 0.640785 0.128003 0.357278
O43   O     O_3   0.612639 0.827947 0.334783 -0.559771
C51   C     C_3   0.657938 0.877365 0.391728 -0.116760
H35   H     H_    0.754999 0.873396 0.376955 0.121230
H36   H     H_    0.671502 0.822999 0.442828 0.082964
H37   H     H_    0.580125 0.984396 0.402568 0.166284
C52   C     C_2   0.048568 0.929361 0.338342 0.597735
O44   O     O_2   0.009706 0.961332 0.399676 -0.526370
O45   O     O_R   0.063027 0.020933 0.294418 -0.663522
H38   H     H_    0.042825 0.108022 0.320180 0.354430
C53   C     C_2   0.244311 0.549598 0.206584 0.543407
O46   O     O_2   0.264017 0.447708 0.173726 -0.473039
O47   O     O_R   0.337816 0.539791 0.257866 -0.650455
H39   H     H_    0.415460 0.443261 0.263890 0.357104
O48   O     O_3   0.878443 0.659491 0.667259 -0.661452
C54   C     C_3   0.899242 0.648377 0.592986 -0.139999
H40   H     H_    0.970369 0.685749 0.579521 0.119546
H41   H     H_    0.803195 0.715960 0.564843 0.132480
H42   H     H_    0.945695 0.541950 0.573048 0.128428
C55   C     C_2   0.511349 0.613694 0.863442 0.607666
O49   O     O_2   0.511863 0.528783 0.903841 -0.454708
O50   O     O_R   0.410828 0.749676 0.872438 -0.697213
H43   H     H_    0.350796 0.764488 0.915298 0.359166
C56   C     C_2   0.479509 0.595328 0.709939 0.605252
O51   O     O_2   0.385702 0.706064 0.726872 -0.448944
O52   O     O_R   0.460597 0.505171 0.669152 -0.622057
H44   H     H_    0.530072 0.468268 0.630432 0.318864

loop_
_geom_bond_atom_site_label_1
_geom_bond_atom_site_label_2
_geom_bond_distance
_ccdc_geom_bond_type
O25   Cr6   1.989697 S    
Cr6   O26   2.041244 S    
C33   H15   1.089801 S    
O52   H44   0.997980 S    
C56   O52   1.371077 S    
C13   H7    1.098586 S    
C46   O35   1.213688 D    
C29   C30   1.430833 S    
O20   C40   1.285673 A    
C51   H37   1.105758 S    
C39   O24   1.288237 A    
C10   C55   1.544082 S    
O4    Cr2   1.992808 S    
C34   C52   1.487784 S    
O21   C38   1.296145 A    
O38   C48   1.374926 S    
O8    Cr1   1.981718 S    
O11   Cr3   2.092261 S    
C10   C14   1.571559 S    
C41   H19   1.076975 S    
H4    C9    1.106080 S    
C54   H41   1.108553 S    
C14   C56   1.445609 S    
C50   O41   1.221712 D    
C35   O16   1.299255 A    
O4    C2    1.307475 A    
O23   C39   1.288948 A    
Cr5   O26   2.047901 S    
Cr4   O26   2.041852 S    
O34   C45   1.409599 S    
C5    O11   1.287164 A    
C47   H27   1.085210 S    
C24   C39   1.428205 S    
O18   Cr6   2.112208 S    
C48   H32   1.098019 S    
O23   Cr5   1.973135 S    
C6    C27   1.441478 S    
C31   H16   1.087907 S    
C23   C26   1.343246 D    
C54   H40   1.106879 S    
C47   H28   1.107304 S    
O6    C3    1.296246 A    
C25   H10   1.089435 S    
C55   O49   1.224416 D    
C7    O27   1.403341 S    
O19   Cr6   1.980555 S    
C20   H9    1.073242 S    
C19   O38   1.374513 S    
C36   O18   1.269872 A    
C17   H8    1.084296 S    
C49   O39   1.222657 D    
O21   Cr4   1.989671 S    
C2    C12   1.491953 S    
Cr3   O13   2.047608 S    
O15   Cr4   1.981986 S    
C45   H24   1.080328 S    
C42   O28   1.218978 D    
C5    C23   1.453125 S    
C32   C53   1.488448 S    
O33   H22   0.997788 S    
C27   H14   1.084224 S    
O12   C6    1.299142 A    
C28   H13   1.085229 S    
C30   H12   1.086424 S    
O14   Cr4   2.110916 S    
O1    Cr1   2.101410 S    
O19   C37   1.298757 A    
O48   C54   1.413493 S    
C26   C49   1.479984 S    
O10   Cr2   1.979570 S    
C23   O43   1.387387 S    
C54   H42   1.110044 S    
O1    C3    1.314654 A    
O45   H38   1.013714 S    
C15   C18   1.391173 D    
C16   C17   1.357311 D    
C38   O22   1.285750 A    
O15   C35   1.311063 A    
C51   H36   1.113421 S    
C8    H2    1.111972 S    
C21   C22   1.522954 S    
C24   C50   1.483704 S    
C9    C13   1.561676 S    
O12   Cr3   1.992090 S    
C1    O3    1.306245 A    
C14   H6    1.110849 S    
C7    C11   1.597491 S    
C15   O34   1.397796 S    
C20   C37   1.468664 S    
C44   O33   1.390992 S    
C32   C33   1.361041 D    
O17   Cr5   1.992047 S    
C41   H18   1.056460 S    
O25   C40   1.296986 A    
O10   C5    1.298095 A    
O7    Cr1   2.111010 S    
C7    H1    1.095544 S    
C1    C19   1.470129 S    
O29   H20   1.014222 S    
Cr1   O13   2.040561 S    
C25   C26   1.437999 S    
C16   C35   1.489463 S    
C46   O36   1.403323 S    
C42   O29   1.400258 S    
C48   H30   1.097161 S    
C51   H35   1.111365 S    
C52   O45   1.398068 S    
C22   O37   1.387619 S    
C11   C36   1.481545 S    
Cr2   O13   2.041336 S    
C43   O30   1.220910 D    
C43   O31   1.390112 S    
C29   H11   1.087509 S    
O43   C51   1.415009 S    
C45   H25   1.097946 S    
O24   Cr6   2.099291 S    
O14   C37   1.292325 A    
C45   H23   1.111895 S    
O40   H33   1.011370 S    
O16   Cr5   2.093925 S    
C20   C21   1.348923 D    
C16   C44   1.467163 S    
O36   H26   1.014088 S    
C27   C30   1.336624 D    
C32   C40   1.450968 S    
C28   C29   1.338432 D    
C17   C18   1.519533 S    
O9    Cr2   2.112270 S    
O2    Cr1   1.990019 S    
C53   O46   1.222915 D    
O47   H39   1.013473 S    
O6    Cr3   1.972363 S    
O8    C4    1.293099 A    
C21   C46   1.493092 S    
C2    O5    1.278582 A    
C8    H3    1.099201 S    
C47   H29   1.106386 S    
O2    C1    1.290654 A    
O50   H43   1.013271 S    
O17   C36   1.317622 A    
C9    C11   1.627060 S    
O5    Cr3   2.114737 S    
O42   H34   1.011054 S    
C31   C34   1.336564 D    
C10   H5    1.102860 S    
C4    C31   1.456915 S    
C13   O48   1.427330 S    
C10   C11   1.521891 S    
C41   H17   1.102169 S    
C9    C42   1.566450 S    
O7    C6    1.286301 A    
O31   H21   1.014657 S    
C12   C14   1.594060 S    
C12   C13   1.555032 S    
C53   O47   1.396737 S    
C55   O50   1.396536 S    
C44   O32   1.206474 D    
C19   C22   1.394904 D    
C48   H31   1.110854 S    
C52   O44   1.223682 D    
C33   C34   1.461145 S    
O3    Cr2   2.101648 S    
C7    C8    1.530134 S    
C4    O9    1.294031 A    
C24   C25   1.346237 D    
C56   O51   1.214601 D    
C49   O40   1.394968 S    
C18   C43   1.507798 S    
C3    C15   1.501513 S    
C50   O42   1.398467 S    
O27   C41   1.379936 S    
O20   Cr4   2.103115 S    
O22   Cr5   2.112242 S    
O37   C47   1.411181 S    
C8    C12   1.506808 S    
C28   C38   1.432749 S    
