data_mof_unit_4952.cif
_audit_creation_date              2012-12-11T15:46:59-0500
_audit_creation_method            fapswitch 2.2
_symmetry_space_group_name_H-M    P1
_symmetry_Int_Tables_number       1
_space_group_crystal_system       triclinic
_cell_length_a                    20.152231
_cell_length_b                    7.255648
_cell_length_c                    13.54771
_cell_angle_alpha                 90.000408
_cell_angle_beta                  102.99037
_cell_angle_gamma                 89.999064
_cell_volume                      1930.21642958

loop_
_atom_site_label
_atom_site_type_symbol
_atom_type_description
_atom_site_fract_x
_atom_site_fract_y
_atom_site_fract_z
_atom_type_partial_charge
O1    O     O_R   0.449560 0.506810 0.599700 -0.536279
O2    O     O_R   0.550440 0.006810 0.400300 -0.536262
O3    O     O_R   0.587960 0.180060 0.595760 -0.544137
O4    O     O_R   0.412040 0.680060 0.404240 -0.544136
C1    C     C_R   0.614858 0.344213 0.617690 0.687878
C2    C     C_R   0.385141 0.844213 0.382312 0.687864
O5    O     O_R   0.452380 0.177430 0.611700 -0.536671
O6    O     O_R   0.547620 0.677430 0.388300 -0.536689
O7    O     O_R   0.413900 0.001890 0.416350 -0.542814
O8    O     O_R   0.586100 0.501890 0.583650 -0.542802
C3    C     C_R   0.436733 0.345832 0.638122 0.700914
C4    C     C_R   0.563265 0.845831 0.361876 0.700911
O9    O     O_3   0.487530 0.337490 0.435890 -0.378724
O10   O     O_3   0.512470 0.837490 0.564110 -0.378715
V1    V     V_3+5 0.502310 0.064660 0.511890 1.429191
V2    V     V_3+5 0.497690 0.564660 0.488110 1.429155
C5    C     C_R   0.606561 0.899035 0.107254 -0.004785
C6    C     C_R   0.393436 0.399181 0.892733 -0.004865
H1    H     H_    0.514208 0.892307 0.162838 0.159113
H2    H     H_    0.485788 0.392515 0.837144 0.159071
H3    H     H_    0.694301 0.889890 0.980415 0.158535
H4    H     H_    0.305711 0.389989 0.019584 0.158470
C7    C     C_R   0.602294 0.855364 0.283273 -0.058367
C8    C     C_R   0.397705 0.355369 0.716725 -0.058357
C9    C     C_R   0.930161 0.848445 0.315956 -0.168689
C10   C     C_R   0.069839 0.348475 0.684041 -0.168686
C11   C     C_R   0.894163 0.842678 0.392004 -0.120717
C12   C     C_R   0.105836 0.342751 0.607991 -0.120713
C13   C     C_R   0.823237 0.848015 0.368049 -0.158798
C14   C     C_R   0.176762 0.348080 0.631946 -0.158794
C15   C     C_R   0.785995 0.858353 0.265953 0.087910
C16   C     C_R   0.214006 0.358358 0.734047 0.087908
C17   C     C_R   0.823410 0.865319 0.188540 0.069670
C18   C     C_R   0.176590 0.365312 0.811461 0.069647
C19   C     C_R   0.713127 0.863823 0.238431 0.067246
C20   C     C_R   0.286872 0.363817 0.761569 0.067255
C21   C     C_R   0.678982 0.884940 0.134490 0.062436
C22   C     C_R   0.321017 0.385001 0.865506 0.062426
C23   C     C_R   0.717772 0.885897 0.060328 -0.159448
C24   C     C_R   0.282231 0.385956 0.939672 -0.159396
C25   C     C_R   0.788273 0.876643 0.086718 -0.197730
C26   C     C_R   0.211731 0.376647 0.913285 -0.197692
C27   C     C_R   0.673050 0.847467 0.311126 -0.209272
C28   C     C_R   0.326949 0.347396 0.688877 -0.209305
C29   C     C_R   0.569295 0.881344 0.182400 -0.196822
C30   C     C_R   0.430702 0.381465 0.817590 -0.196713
C31   C     C_R   0.895568 0.860104 0.214605 -0.068030
C32   C     C_R   0.104433 0.360099 0.785395 -0.068029
H5    H     H_    0.694962 0.827072 0.390492 0.095172
H6    H     H_    0.305035 0.326890 0.609520 0.095189
H7    H     H_    0.985324 0.844675 0.336186 0.103218
H8    H     H_    0.014676 0.344718 0.663810 0.103218
H9    H     H_    0.799511 0.846080 0.431691 0.106486
H10   H     H_    0.200488 0.346219 0.568302 0.106488
H11   H     H_    0.921466 0.834869 0.470451 0.120595
H12   H     H_    0.078532 0.334997 0.529542 0.120593
H13   H     H_    0.815111 0.878696 0.025865 0.115829
H14   H     H_    0.184896 0.378691 0.974144 0.115832
C33   C     C_R   0.217260 0.023121 0.223864 -0.152488
C34   C     C_R   0.782802 0.523095 0.775948 -0.152570
H15   H     H_    0.193089 0.155933 0.205688 0.119178
H16   H     H_    0.807025 0.655886 0.793967 0.119206
C35   C     C_R   0.282473 0.018690 0.287248 -0.156206
C36   C     C_R   0.717588 0.518665 0.712569 -0.156208
H17   H     H_    0.306217 0.147687 0.315999 0.118964
H18   H     H_    0.693895 0.647644 0.683668 0.118947
C37   C     C_R   0.316277 0.850207 0.313361 -0.033682
C38   C     C_R   0.683721 0.350209 0.686643 -0.033732
C39   C     C_R   0.283147 0.686293 0.273792 -0.132234
C40   C     C_R   0.716791 0.186324 0.726394 -0.132198
H19   H     H_    0.307459 0.553618 0.291856 0.120664
H20   H     H_    0.692427 0.053671 0.708486 0.120759
C41   C     C_R   0.217930 0.690683 0.210411 -0.151995
C42   C     C_R   0.782009 0.190712 0.789771 -0.151931
H21   H     H_    0.194319 0.561606 0.181533 0.116801
H22   H     H_    0.805569 0.061656 0.818800 0.116797
C43   C     C_R   0.183902 0.859115 0.184798 -0.037118
C44   C     C_R   0.816099 0.359115 0.815198 -0.037135
O11   O     O_R   0.913920 0.203370 0.916260 -0.539623
O12   O     O_R   0.086080 0.703370 0.083740 -0.539622
O13   O     O_R   0.047620 0.535540 0.888290 -0.537263
O14   O     O_R   0.952380 0.035540 0.111710 -0.537266
C45   C     C_R   0.064043 0.368306 0.862638 0.680212
C46   C     C_R   0.935958 0.868308 0.137363 0.680213
O15   O     O_R   0.912040 0.532780 0.904220 -0.545925
O16   O     O_R   0.087960 0.032780 0.095780 -0.545930
O17   O     O_R   0.949550 0.708160 0.099720 -0.534775
O18   O     O_R   0.050450 0.208160 0.900280 -0.534780
C47   C     C_R   0.885382 0.364935 0.883147 0.676251
C48   C     C_R   0.114618 0.864934 0.116851 0.676247
O19   O     O_3   0.012480 0.375300 0.064060 -0.378542
O20   O     O_3   0.987520 0.875300 0.935940 -0.378539
V3    V     V_3+5 0.997690 0.648180 0.988110 1.411442
V4    V     V_3+5 0.002310 0.148180 0.011890 1.411434
C49   C     C_2   0.567435 0.938623 0.002622 0.781328
O21   O     O_2   0.588312 0.051732 0.949910 -0.560129
O22   O     O_R   0.504442 0.853257 0.966404 -0.649031
H23   H     H_    0.481839 0.893517 0.895095 0.301164
C50   C     C_2   0.432553 0.439003 0.997341 0.781440
O23   O     O_2   0.411652 0.552211 0.049977 -0.560068
O24   O     O_R   0.495575 0.353790 0.033605 -0.649030
H24   H     H_    0.518176 0.394262 0.104878 0.301189

loop_
_geom_bond_atom_site_label_1
_geom_bond_atom_site_label_2
_ccdc_geom_bond_type
C14   C16   A    
C35   H17   S    
O24   H24   S    
C7    C29   A    
C11   C13   A    
C49   O21   D    
O1    C3    A    
C46   O17   A    
O2    C4    A    
C33   C43   A    
C2    O7    A    
O22   H23   S    
C12   H12   S    
C23   C25   A    
O5    C3    A    
C14   H10   S    
C4    C7    S    
C34   C44   A    
C42   H22   S    
O14   V4    S    
C16   C20   A    
C19   C21   A    
C5    C29   A    
C11   H11   S    
C3    C8    S    
C7    C27   A    
C34   H16   S    
C39   H19   S    
O16   V4    S    
O15   V3    S    
C18   C26   A    
C40   C42   A    
C15   C17   A    
C39   C41   A    
C5    C49   S    
C19   C27   A    
C9    C31   A    
C10   C32   A    
C24   C26   A    
C45   O18   A    
O6    V2    S    
O12   C48   A    
C41   H21   S    
C26   H14   S    
C1    C38   S    
C6    C30   A    
O13   C45   A    
O18   V4    S    
C44   C47   S    
C21   C23   A    
C35   C37   A    
C43   C48   S    
C33   H15   S    
O11   V4    S    
O4    C2    A    
O16   C48   A    
O15   C47   A    
C27   H5    S    
O5    V1    S    
C37   C39   A    
C36   H18   S    
O4    V2    S    
C9    H7    S    
C10   H8    S    
O13   V3    S    
C50   O23   D    
H3    C23   S    
O6    C4    A    
H4    C24   S    
C49   O22   S    
O1    V2    S    
C5    C21   A    
C31   C46   S    
O2    V1    S    
C2    C37   S    
C50   O24   S    
O14   C46   A    
C17   C31   A    
C15   C19   A    
C20   C28   A    
C18   C32   A    
C6    C50   S    
C36   C38   A    
O3    V1    S    
C28   H6    S    
C10   C12   A    
O3    C1    A    
H1    C29   S    
C9    C11   A    
C33   C35   A    
C32   C45   S    
C34   C36   A    
C17   C25   A    
C12   C14   A    
O7    V1    S    
C8    C30   A    
C1    O8    A    
C13   C15   A    
O8    V2    S    
O19   V4    S    
C22   C24   A    
C13   H9    S    
C8    C28   A    
O17   V3    S    
C20   C22   A    
O20   V3    S    
C6    C22   A    
O11   C47   A    
C25   H13   S    
C38   C40   A    
C42   C44   A    
O9    V2    S    
C41   C43   A    
O10   V1    S    
C40   H20   S    
O12   V3    S    
H2    C30   S    
C16   C18   A    
