data_mof_unit_4500.cif
_audit_creation_date              2012-12-10T17:54:24-0500
_audit_creation_method            fapswitch 2.2
_symmetry_space_group_name_H-M    P1
_symmetry_Int_Tables_number       1
_space_group_crystal_system       triclinic
_cell_length_a                    27.5413
_cell_length_b                    10.757882
_cell_length_c                    9.871033
_cell_angle_alpha                 89.404701
_cell_angle_beta                  89.697133
_cell_angle_gamma                 90.458774
_cell_volume                      2924.35566417

loop_
_atom_site_label
_atom_site_type_symbol
_atom_type_description
_atom_site_fract_x
_atom_site_fract_y
_atom_site_fract_z
_atom_type_partial_charge
C1    C     C_R   0.502900 0.259633 0.501779 0.879364
C2    C     C_R   0.279191 0.538403 0.638500 0.008698
C3    C     C_R   0.252111 0.535456 0.517392 0.234530
C4    C     C_R   0.100750 0.519323 0.557508 -0.047828
C5    C     C_R   0.128771 0.412553 0.580518 -0.041902
C6    C     C_R   0.106640 0.303749 0.630117 -0.162247
C7    C     C_R   0.123377 0.630940 0.514620 -0.025644
C8    C     C_R   0.352936 0.512047 0.504686 -0.064501
C9    C     C_R   0.646926 0.485078 0.501072 -0.046920
C10   C     C_R   0.976711 0.389129 0.584530 0.090811
C11   C     C_R   0.971218 0.616463 0.585978 -0.062900
C12   C     C_R   0.405866 0.501865 0.500650 0.873530
C13   C     C_R   0.948574 0.498625 0.579326 0.081458
C14   C     C_R   0.954325 0.274660 0.555387 -0.161731
C15   C     C_R   0.904620 0.266488 0.534408 -0.090166
C16   C     C_R   0.876026 0.373333 0.539081 -0.022802
C17   C     C_R   0.897898 0.490275 0.562647 -0.084350
C18   C     C_R   0.869272 0.598492 0.567811 -0.104562
C19   C     C_R   0.819606 0.586908 0.536735 0.546200
C20   C     C_R   0.825923 0.366432 0.519106 0.519493
C21   C     C_R   0.720540 0.446562 0.626726 -0.105389
C22   C     C_R   0.670424 0.457115 0.623469 -0.204922
C23   C     C_R   0.495114 0.739263 0.499996 0.889085
C24   C     C_R   0.674239 0.498870 0.381198 -0.206152
C25   C     C_R   0.724629 0.489041 0.385038 -0.081838
C26   C     C_R   0.747685 0.464088 0.508192 0.310227
C27   C     C_R   0.027263 0.398775 0.606459 -0.018210
C28   C     C_R   0.050002 0.513962 0.575912 0.077426
C29   C     C_R   0.022042 0.623143 0.561337 0.074789
C30   C     C_R   0.056387 0.297496 0.649924 -0.069816
C31   C     C_R   0.095170 0.736562 0.491038 -0.098212
C32   C     C_R   0.942124 0.721324 0.615810 -0.123080
C33   C     C_R   0.890966 0.712075 0.608371 0.186502
C34   C     C_R   0.594095 0.497262 0.499867 0.883300
C35   C     C_R   0.045231 0.732576 0.513289 -0.149041
C36   C     C_R   0.509977 0.107897 0.761530 -0.158809
C37   C     C_R   0.494825 0.046042 0.879413 -0.147346
C38   C     C_R   0.469554 0.934273 0.870451 -0.120509
C39   C     C_R   0.463812 0.878688 0.744680 -0.121591
C40   C     C_R   0.483412 0.935219 0.625792 0.100185
C41   C     C_R   0.499629 0.058513 0.631769 0.109323
C42   C     C_R   0.504567 0.125631 0.507221 -0.116652
C43   C     C_R   0.503544 0.063820 0.383349 -0.209128
C44   C     C_R   0.497712 0.937372 0.381003 -0.198162
C45   C     C_R   0.178973 0.419386 0.561076 0.557376
C46   C     C_R   0.489093 0.872056 0.501672 -0.127243
C47   C     C_R   0.436203 0.339762 0.142566 -0.221173
C48   C     C_R   0.404302 0.262742 0.073172 -0.228790
C49   C     C_R   0.404069 0.263763 0.932991 0.204273
C50   C     C_R   0.436080 0.341082 0.861866 -0.213108
C51   C     C_R   0.468535 0.421364 0.928796 0.118895
C52   C     C_R   0.468572 0.421123 0.073589 0.176466
C53   C     C_R   0.529907 0.575637 0.070329 -0.123291
C54   C     C_R   0.529903 0.575574 0.926935 -0.116031
C55   C     C_R   0.173877 0.633602 0.496656 0.591415
C56   C     C_R   0.275487 0.523539 0.391929 -0.091147
C57   C     C_R   0.325702 0.512249 0.385317 -0.189172
C58   C     C_R   0.329521 0.525712 0.630285 -0.233851
H1    H     H_    0.350587 0.527568 0.722663 0.198221
H2    H     H_    0.254428 0.519681 0.299700 0.163354
H3    H     H_    0.111524 0.822604 0.454634 0.201203
H4    H     H_    0.656836 0.519846 0.285610 0.159926
H5    H     H_    0.745846 0.504352 0.293636 0.143731
H6    H     H_    0.024885 0.814508 0.486244 0.164985
H7    H     H_    0.507980 0.112807 0.287521 0.170424
H8    H     H_    0.531176 0.191560 0.775078 0.170087
H9    H     H_    0.501808 0.086329 0.977553 0.140604
H10   H     H_    0.455699 0.888771 0.961204 0.145788
H11   H     H_    0.443723 0.791963 0.741533 0.162634
H12   H     H_    0.500754 0.890795 0.284535 0.168604
H13   H     H_    0.554293 0.637366 0.123393 0.148345
H14   H     H_    0.434157 0.332450 0.249792 0.223672
H15   H     H_    0.379716 0.201873 0.128983 0.186491
H16   H     H_    0.434575 0.334352 0.754834 0.225498
H17   H     H_    0.554268 0.637315 0.871701 0.157516
H18   H     H_    0.128783 0.225346 0.659973 0.228584
H19   H     H_    0.650201 0.444576 0.717090 0.163186
H20   H     H_    0.738555 0.428926 0.722201 0.141546
H21   H     H_    0.888839 0.176383 0.512511 0.220409
H22   H     H_    0.975511 0.191813 0.541324 0.159257
H23   H     H_    0.343067 0.502208 0.287367 0.179158
N1    N     N_R   0.200382 0.529188 0.522280 -0.345965
N2    N     N_R   0.799181 0.472377 0.517793 -0.363927
N3    N     N_R   0.499540 0.498800 0.142780 -0.116313
N4    N     N_R   0.499520 0.498720 0.857170 -0.120908
O1    O     O_R   0.500000 0.316780 0.614690 -0.652567
O2    O     O_2   0.803997 0.255278 0.500681 -0.527094
O3    O     O_2   0.196460 0.739679 0.456808 -0.527914
O4    O     O_2   0.791719 0.688362 0.521697 -0.504498
O5    O     O_R   0.500000 0.316750 0.385360 -0.638947
O6    O     O_R   0.428760 0.500030 0.614650 -0.644082
O7    O     O_R   0.428750 0.500010 0.385320 -0.635948
O8    O     O_R   0.500000 0.683250 0.614640 -0.626314
O9    O     O_R   0.500000 0.683220 0.385310 -0.616337
O10   O     O_R   0.571250 0.499990 0.614680 -0.620406
O11   O     O_R   0.571240 0.499970 0.385350 -0.616326
O12   O     O_2   0.206471 0.317752 0.582480 -0.527498
Zn1   Zn    Zn3+2 0.500000 0.500020 0.653130 0.933090
Zn2   Zn    Zn3+2 0.500000 0.499980 0.346870 0.945928
C59   C     C_2   0.964107 0.834168 0.675058 0.946310
O13   O     O_2   0.992507 0.824791 0.769414 -0.566095
O14   O     O_R   0.952538 0.950948 0.622351 -0.799200
H24   H     H_    0.966216 0.020143 0.679241 0.354943
I1    I     I_    0.847772 0.861648 0.688208 -0.165690
C60   C     C_2   0.255910 0.552949 0.774080 0.947769
O15   O     O_2   0.277831 0.522625 0.876582 -0.615189
O16   O     O_R   0.209412 0.603060 0.785829 -0.793732
H25   H     H_    0.197862 0.607850 0.883312 0.360160
I2    I     I_    0.355555 0.147630 0.827035 -0.285990
C61   C     C_2   0.036931 0.194853 0.736655 0.887911
O17   O     O_2   0.056621 0.093294 0.737439 -0.590535
O18   O     O_R   0.997382 0.216272 0.822601 -0.782590
H26   H     H_    0.988477 0.140879 0.880272 0.359603

loop_
_geom_bond_atom_site_label_1
_geom_bond_atom_site_label_2
_ccdc_geom_bond_type
C10   C27   A    
C21   C26   A    
O11   Zn2   S    
C1    O5    A    
C33   I1    S    
C41   C42   A    
C31   H3    S    
C12   O6    A    
C45   N1    A    
C7    C55   A    
C51   N4    A    
O10   Zn1   S    
C53   C54   A    
C40   C46   A    
C60   O16   S    
C26   N2    S    
C30   C61   S    
C53   N3    A    
C28   C29   A    
C34   O11   A    
C50   H16   S    
C5    C6    A    
C36   H8    S    
C9    C22   A    
C15   C16   A    
C20   O2    S    
C56   C57   A    
C18   C19   A    
C25   H5    S    
C55   O3    S    
C52   N3    A    
C61   O17   D    
N4    Zn1   S    
C8    C58   A    
C15   H21   S    
C16   C17   A    
C21   H20   S    
O16   H25   S    
C44   H12   S    
C35   H6    S    
C14   H22   S    
C8    C12   S    
C16   C20   A    
C23   C46   S    
C21   C22   A    
C27   C30   A    
C36   C41   A    
C4    C7    A    
C19   N2    A    
O18   H26   S    
C4    C28   A    
C44   C46   A    
C17   C18   A    
C7    C31   A    
C51   C52   A    
C24   C25   A    
C10   C14   A    
C39   C40   A    
C58   H1    S    
C5    C45   A    
C32   C59   S    
C43   C44   A    
C37   C38   A    
C19   O4    S    
C8    C57   A    
C3    C56   A    
C47   C48   A    
C43   H7    S    
C3    N1    S    
C59   O14   S    
C50   C51   A    
C39   H11   S    
C34   O10   A    
C55   N1    A    
C40   C41   A    
C6    C30   A    
C38   H10   S    
C11   C32   A    
C9    C34   S    
C31   C35   A    
C42   C43   A    
C53   H13   S    
O5    Zn2   S    
C49   I2    S    
C1    O1    A    
C36   C37   A    
C24   H4    S    
N3    Zn2   S    
C48   H15   S    
C12   O7    A    
C22   H19   S    
C4    C5    A    
C10   C13   A    
C54   N4    A    
C2    C58   A    
C9    C24   A    
C6    H18   S    
C47   C52   A    
C60   O15   D    
C29   C35   A    
C2    C60   S    
C23   O9    A    
C13   C17   A    
C32   C33   A    
C2    C3    A    
C25   C26   A    
C45   O12   S    
C11   C13   A    
C38   C39   A    
O9    Zn2   S    
C48   C49   A    
C37   H9    S    
C59   O13   D    
C57   H23   S    
O6    Zn1   S    
O14   H24   S    
O1    Zn1   S    
C18   C33   A    
C61   O18   S    
C47   H14   S    
C54   H17   S    
C23   O8    A    
C1    C42   S    
C56   H2    S    
C11   C29   A    
C49   C50   A    
C20   N2    A    
C27   C28   A    
C14   C15   A    
O8    Zn1   S    
O7    Zn2   S    
