data_mof_unit_1119.cif
_audit_creation_date              2012-12-11T17:36:12-0500
_audit_creation_method            fapswitch 2.2
_symmetry_space_group_name_H-M    P1
_symmetry_Int_Tables_number       1
_space_group_crystal_system       triclinic
_cell_length_a                    25.864014
_cell_length_b                    6.904063
_cell_length_c                    21.695399
_cell_angle_alpha                 89.991335
_cell_angle_beta                  96.042211
_cell_angle_gamma                 89.992877
_cell_volume                      3852.55551912

loop_
_atom_site_label
_atom_site_type_symbol
_atom_type_description
_atom_site_fract_x
_atom_site_fract_y
_atom_site_fract_z
_atom_type_partial_charge
O1    O     O_R   0.208650 0.594520 0.175450 -0.534878
O2    O     O_R   0.791350 0.405480 0.824550 -0.534938
O3    O     O_R   0.291350 0.094520 0.324550 -0.534952
O4    O     O_R   0.708650 0.905480 0.675450 -0.534893
O5    O     O_R   0.192980 0.260780 0.300160 -0.540852
O6    O     O_R   0.807020 0.739220 0.699840 -0.540921
O7    O     O_R   0.307020 0.760780 0.199840 -0.540920
O8    O     O_R   0.692980 0.239220 0.800160 -0.540852
C1    C     C_R   0.178798 0.432874 0.318429 0.682166
C2    C     C_R   0.821202 0.567126 0.681571 0.682083
C3    C     C_R   0.321203 0.932875 0.181571 0.682137
C4    C     C_R   0.678797 0.067125 0.818429 0.682221
O9    O     O_R   0.202550 0.264660 0.174420 -0.536482
O10   O     O_R   0.797450 0.735340 0.825580 -0.536576
O11   O     O_R   0.297450 0.764660 0.325580 -0.536588
O12   O     O_R   0.702550 0.235340 0.674420 -0.536492
O13   O     O_R   0.300990 0.096480 0.197920 -0.539325
O14   O     O_R   0.699010 0.903520 0.802080 -0.539307
O15   O     O_R   0.199010 0.596480 0.302080 -0.539305
O16   O     O_R   0.800990 0.403520 0.697920 -0.539323
C5    C     C_R   0.191092 0.433342 0.151115 0.700118
C6    C     C_R   0.808908 0.566653 0.848886 0.698522
C7    C     C_R   0.308910 0.933296 0.348889 0.698497
C8    C     C_R   0.691090 0.066708 0.651112 0.700093
O17   O     O_3   0.282290 0.427760 0.257860 -0.364802
O18   O     O_3   0.717710 0.572240 0.742140 -0.364515
O19   O     O_3   0.217710 0.927760 0.242140 -0.364488
O20   O     O_3   0.782290 0.072240 0.757860 -0.364776
V1    V     V_3+5 0.244010 0.152080 0.248540 1.413802
V2    V     V_3+5 0.755990 0.847920 0.751460 1.413452
V3    V     V_3+5 0.255990 0.652080 0.251460 1.413463
V4    V     V_3+5 0.744010 0.347920 0.748540 1.413804
C9    C     C_R   0.657491 0.061417 0.591835 -0.042658
C10   C     C_R   0.342379 0.938626 0.408261 -0.043372
C11   C     C_R   0.842373 0.561057 0.908253 -0.043185
C12   C     C_R   0.157498 0.438884 0.091842 -0.042478
C13   C     C_R   0.646597 0.126459 0.481926 -0.126671
C14   C     C_R   0.353005 0.873732 0.518170 -0.136500
C15   C     C_R   0.852834 0.623108 0.018320 -0.136446
C16   C     C_R   0.146762 0.376524 0.981784 -0.126618
C17   C     C_R   0.678191 0.116320 0.537768 -0.196212
C18   C     C_R   0.321577 0.883313 0.462203 -0.187209
C19   C     C_R   0.821454 0.614446 0.962301 -0.187357
C20   C     C_R   0.178309 0.385810 0.037676 -0.196346
C21   C     C_R   0.604304 0.017104 0.589791 -0.198411
C22   C     C_R   0.395533 0.983479 0.410539 -0.197499
C23   C     C_R   0.895586 0.517237 0.910470 -0.197446
C24   C     C_R   0.104254 0.482191 0.089855 -0.198365
C25   C     C_R   0.570554 0.029826 0.533391 0.049718
C26   C     C_R   0.429111 0.971492 0.467087 0.055040
C27   C     C_R   0.929104 0.528223 0.967079 0.055045
C28   C     C_R   0.070560 0.470353 0.033397 0.049732
C29   C     C_R   0.593002 0.085362 0.478912 0.136731
C30   C     C_R   0.406575 0.916231 0.521547 0.119396
C31   C     C_R   0.906456 0.581489 0.021651 0.119366
C32   C     C_R   0.093116 0.416736 0.978810 0.136717
C33   C     C_R   0.515532 0.991940 0.529370 0.019885
C34   C     C_R   0.484067 0.009662 0.471169 0.025680
C35   C     C_R   0.984100 0.490853 0.971129 0.025669
C36   C     C_R   0.015496 0.507393 0.029411 0.019872
C37   C     C_R   0.508562 0.064459 0.418764 -0.228654
C38   C     C_R   0.491012 0.937930 0.581839 -0.208570
C39   C     C_R   0.990865 0.559380 0.081991 -0.208613
C40   C     C_R   0.008702 0.437964 0.918617 -0.228660
C41   C     C_R   0.561787 0.101450 0.422166 0.167567
C42   C     C_R   0.437644 0.901140 0.578596 0.180655
C43   C     C_R   0.937458 0.595384 0.078777 0.180610
C44   C     C_R   0.061965 0.401727 0.921991 0.167549
H1    H     H_    0.409271 0.022216 0.367057 0.093494
H2    H     H_    0.590732 0.978002 0.633329 0.094687
H3    H     H_    0.090611 0.520024 0.133461 0.094556
H4    H     H_    0.909400 0.479901 0.866913 0.093344
H5    H     H_    0.280778 0.845934 0.460884 0.110657
H6    H     H_    0.719028 0.152912 0.538898 0.112269
H7    H     H_    0.219199 0.350080 0.038758 0.112182
H8    H     H_    0.780599 0.650940 0.961035 0.110575
H9    H     H_    0.664447 0.169662 0.441105 0.161629
H10   H     H_    0.334990 0.829605 0.558764 0.152682
H11   H     H_    0.834731 0.665711 0.059005 0.152692
H12   H     H_    0.164696 0.334782 0.940878 0.161611
H13   H     H_    0.487510 0.081106 0.373620 0.126022
H14   H     H_    0.512383 0.923565 0.626825 0.120536
H15   H     H_    0.012175 0.572660 0.127047 0.120554
H16   H     H_    0.987707 0.422280 0.873405 0.126028
C45   C     C_R   0.427272 0.793651 0.079287 -0.132708
C46   C     C_R   0.572729 0.206347 0.920716 -0.132353
C47   C     C_R   0.072726 0.293656 0.420712 -0.132360
C48   C     C_R   0.927276 0.706346 0.579291 -0.132714
H17   H     H_    0.445420 0.663099 0.064134 0.105159
H18   H     H_    0.554582 0.336899 0.935870 0.105224
H19   H     H_    0.054576 0.163108 0.435863 0.105232
H20   H     H_    0.945427 0.836894 0.564143 0.105161
C49   C     C_R   0.388019 0.778696 0.119245 -0.169649
C50   C     C_R   0.611982 0.221303 0.880757 -0.169131
C51   C     C_R   0.111979 0.278700 0.380753 -0.169129
C52   C     C_R   0.888023 0.721301 0.619250 -0.169646
H21   H     H_    0.376789 0.636305 0.133935 0.118276
H22   H     H_    0.623213 0.363695 0.866068 0.118387
H23   H     H_    0.123208 0.136312 0.366061 0.118406
H24   H     H_    0.876796 0.863689 0.633944 0.118290
C53   C     C_R   0.363556 0.945827 0.139700 -0.057186
C54   C     C_R   0.636445 0.054173 0.860300 -0.057259
C55   C     C_R   0.136444 0.445825 0.360300 -0.057284
C56   C     C_R   0.863556 0.554176 0.639701 -0.057202
C57   C     C_R   0.379672 0.127831 0.119052 -0.168624
C58   C     C_R   0.620328 0.872168 0.880947 -0.168546
C59   C     C_R   0.120331 0.627825 0.380950 -0.168553
C60   C     C_R   0.879668 0.372177 0.619047 -0.168636
H25   H     H_    0.361933 0.260061 0.133472 0.122100
H26   H     H_    0.638066 0.739938 0.866526 0.122165
H27   H     H_    0.138071 0.760051 0.366532 0.122181
H28   H     H_    0.861926 0.239951 0.633464 0.122115
C61   C     C_R   0.418805 0.142284 0.079227 -0.137291
C62   C     C_R   0.581196 0.857714 0.920773 -0.137254
C63   C     C_R   0.081198 0.642279 0.420775 -0.137244
C64   C     C_R   0.918801 0.357724 0.579222 -0.137287
H29   H     H_    0.430236 0.284051 0.064089 0.105378
H30   H     H_    0.569764 0.715946 0.935910 0.105389
H31   H     H_    0.069769 0.784043 0.435914 0.105396
H32   H     H_    0.930228 0.215961 0.564080 0.105385
C65   C     C_R   0.442833 0.975601 0.058990 0.130978
C66   C     C_R   0.557169 0.024397 0.941011 0.130886
C67   C     C_R   0.057168 0.475601 0.441010 0.130875
C68   C     C_R   0.942833 0.524402 0.558990 0.130974
C69   C     C_1   0.483179 0.992337 0.017388 -0.058677
C70   C     C_1   0.516822 0.007660 0.982613 -0.058584
C71   C     C_1   0.016821 0.492339 0.482612 -0.058577
C72   C     C_1   0.983179 0.507665 0.517388 -0.058672
N1    N     N_3   0.584105 0.157113 0.366997 -0.687141
H33   H     H_    0.576549 0.047284 0.334095 0.234778
H34   H     H_    0.565355 0.282846 0.349520 0.235099
N2    N     N_3   0.414703 0.847199 0.633782 -0.676566
H35   H     H_    0.443294 0.817143 0.670273 0.231873
H36   H     H_    0.393935 0.967047 0.647356 0.226921
N3    N     N_3   0.914402 0.647211 0.134077 -0.676569
H37   H     H_    0.942929 0.676644 0.170689 0.231893
H38   H     H_    0.893749 0.526578 0.147274 0.226974
N4    N     N_3   0.084390 0.347976 0.866714 -0.687163
H39   H     H_    0.076729 0.458542 0.834079 0.234788
H40   H     H_    0.065801 0.222363 0.848909 0.235066

loop_
_geom_bond_atom_site_label_1
_geom_bond_atom_site_label_2
_ccdc_geom_bond_type
O17   V3    S    
C48   C52   A    
O1    C5    A    
C47   H19   S    
O19   V1    S    
C9    C21   A    
C44   N4    S    
C10   C18   A    
C48   C68   A    
C11   C23   A    
C25   C33   A    
N3    H37   S    
C5    C12   S    
O7    C3    A    
C6    C11   S    
O5    C1    A    
C26   C30   A    
C58   C62   A    
C36   C39   A    
C40   C44   A    
C57   C61   A    
C14   C18   A    
C58   H26   S    
O4    C8    A    
C51   H23   S    
C50   H22   S    
O1    V3    S    
O13   V1    S    
C31   C43   A    
O2    V4    S    
O3    V1    S    
C40   H16   S    
C22   H1    S    
C46   C50   A    
C17   H6    S    
O3    C7    A    
C1    O15   A    
C15   C31   A    
C48   H20   S    
C2    O16   A    
N2    H35   S    
C16   C32   A    
C47   C51   A    
O2    C6    A    
C16   H12   S    
C45   C65   A    
C10   C22   A    
C11   C19   A    
C16   C20   A    
O5    V1    S    
C1    C55   S    
C68   C72   S    
C13   C29   A    
C34   C37   A    
O11   C7    A    
C38   H14   S    
O15   V3    S    
C35   C36   A    
O12   C8    A    
C53   C57   A    
C45   C49   A    
O10   V2    S    
C51   C55   A    
C42   N2    S    
O17   V1    S    
C39   C43   A    
C63   C67   A    
C38   C42   A    
O19   V3    S    
C26   C34   A    
O20   V4    S    
O7    V3    S    
C46   H18   S    
C49   C53   A    
C45   H17   S    
O18   V4    S    
C15   C19   A    
C14   H10   S    
C33   C38   A    
C32   C44   A    
C13   H9    S    
C60   H28   S    
C39   H15   S    
O8    V4    S    
C66   C70   S    
C20   H7    S    
C43   N3    S    
C4    C54   S    
C37   C41   A    
C41   N1    S    
C14   C30   A    
C21   C25   A    
O8    C4    A    
C7    C10   S    
C35   C40   A    
O9    C5    A    
C3    C53   S    
C59   C63   A    
C62   H30   S    
N4    H40   S    
C61   H29   S    
N2    H36   S    
O6    V2    S    
C65   C69   S    
O18   V2    S    
C63   H31   S    
C52   C56   A    
C69   C70   T    
C12   C20   A    
C27   C35   A    
C24   H3    S    
C71   C72   T    
C49   H21   S    
C67   C71   S    
C56   C60   A    
C29   C41   A    
N1    H33   S    
O16   V4    S    
O9    V1    S    
C19   H8    S    
N3    H38   S    
C57   H25   S    
C3    O13   A    
C18   H5    S    
C64   C68   A    
C21   H2    S    
C59   H27   S    
O6    C2    A    
C23   C27   A    
O11   V3    S    
C30   C42   A    
O12   V4    S    
C22   C26   A    
C8    C9    S    
C9    C17   A    
O10   C6    A    
C2    C56   S    
C37   H13   S    
C47   C67   A    
C60   C64   A    
C33   C34   A    
C25   C29   A    
C52   H24   S    
O20   V2    S    
C12   C24   A    
C27   C31   A    
C13   C17   A    
C46   C66   A    
C23   H4    S    
N4    H39   S    
O14   V2    S    
C62   C66   A    
C64   H32   S    
C24   C28   A    
C61   C65   A    
C50   C54   A    
C28   C36   A    
C54   C58   A    
C4    O14   A    
C55   C59   A    
O4    V2    S    
C28   C32   A    
C15   H11   S    
N1    H34   S    
