data_mof_unit_4355.cif
_audit_creation_date              2012-12-10T18:57:09-0500
_audit_creation_method            fapswitch 2.2
_symmetry_space_group_name_H-M    P1
_symmetry_Int_Tables_number       1
_space_group_crystal_system       triclinic
_cell_length_a                    8.728292
_cell_length_b                    10.816935
_cell_length_c                    9.546739
_cell_angle_alpha                 89.986636
_cell_angle_beta                  97.641872
_cell_angle_gamma                 90.473832
_cell_volume                      893.303746217

loop_
_atom_site_label
_atom_site_type_symbol
_atom_type_description
_atom_site_fract_x
_atom_site_fract_y
_atom_site_fract_z
_atom_type_partial_charge
C1    C     C_R   0.495624 0.262374 0.499495 0.822986
C2    C     C_R   0.435662 0.936051 0.367403 0.417364
C3    C     C_R   0.473930 0.870809 0.495927 -0.202496
C4    C     C_R   0.484135 0.936470 0.622712 0.065722
C5    C     C_3   0.600559 0.930175 0.752103 -0.451430
C6    C     C_3   0.600455 0.070533 0.753108 -0.437724
C7    C     C_R   0.569306 0.594289 0.081901 0.313926
C8    C     C_R   0.418407 0.414028 0.064542 -0.096360
C9    C     C_R   0.418379 0.414025 0.915656 -0.086202
C10   C     C_R   0.569611 0.594102 0.934576 0.261431
C11   C     C_3   0.736102 0.630449 0.949042 -0.525131
C12   C     C_R   0.204042 0.498978 0.464098 0.870908
C13   C     C_3   0.735455 0.631304 0.107702 -0.500213
C14   C     C_R   0.494531 0.737727 0.499029 0.821180
C15   C     C_R   0.796107 0.500068 0.536107 0.880664
C16   C     C_2   0.038592 0.495792 0.444727 -0.369371
C17   C     C_2   0.961901 0.501368 0.556317 -0.376142
C18   C     C_R   0.484348 0.063499 0.623485 0.114328
C19   C     C_R   0.475988 0.129507 0.497432 -0.156520
C20   C     C_R   0.440275 0.065564 0.369005 -0.313418
Cu1   Cu    Cu3+1 0.499990 0.499980 0.640670 0.933884
Cu2   Cu    Cu3+1 0.500010 0.500020 0.359330 0.948746
H1    H     H_    0.979922 0.487649 0.337825 0.164042
H2    H     H_    0.354726 0.342991 0.852185 0.140994
H3    H     H_    0.810527 0.556965 0.913579 0.219849
H4    H     H_    0.754407 0.723593 0.905323 0.191692
H5    H     H_    0.809237 0.558169 0.161384 0.207704
H6    H     H_    0.752354 0.724993 0.155371 0.207628
H7    H     H_    0.021116 0.507817 0.663760 0.173426
H8    H     H_    0.422348 0.114939 0.269488 0.172381
H9    H     H_    0.551258 0.888943 0.843180 0.205382
H10   H     H_    0.712291 0.890660 0.730510 0.187289
H11   H     H_    0.550821 0.110098 0.844519 0.197369
H12   H     H_    0.712156 0.112410 0.732655 0.192958
H13   H     H_    0.354750 0.343014 0.112589 0.138402
N1    N     N_R   0.500980 0.500930 0.148050 -0.196251
N2    N     N_R   0.500990 0.500890 0.852140 -0.187805
O1    O     O_R   0.500000 0.319640 0.618810 -0.585527
O2    O     O_R   0.500020 0.319680 0.381230 -0.590671
O3    O     O_R   0.274830 0.499980 0.591380 -0.580191
O4    O     O_R   0.274850 0.500020 0.353800 -0.594430
O5    O     O_R   0.499980 0.680320 0.618770 -0.586352
O6    O     O_R   0.500000 0.680360 0.381190 -0.533743
O7    O     O_R   0.725150 0.499980 0.646200 -0.590724
O8    O     O_R   0.725170 0.500020 0.408620 -0.578360
O9    O     O_3   0.409538 0.874878 0.239198 -0.565590
C21   C     C_3   0.248426 0.867336 0.197107 0.080434
H14   H     H_    0.200261 0.960846 0.171153 0.131263
H15   H     H_    0.187996 0.824712 0.281300 0.131352
C22   C     C_3   0.216378 0.786726 0.065708 -0.777142
H16   H     H_    0.256297 0.691042 0.090417 0.252973
H17   H     H_    0.090246 0.784019 0.028691 0.197659
H18   H     H_    0.277593 0.824625 0.980079 0.237859

loop_
_geom_bond_atom_site_label_1
_geom_bond_atom_site_label_2
_ccdc_geom_bond_type
C12   O3    A    
C7    C10   A    
C22   H17   S    
C13   H6    S    
C12   O4    A    
C21   C22   S    
Cu1   O7    S    
C17   H7    S    
C7    N1    A    
C13   H5    S    
C19   C20   A    
C6    H11   S    
C14   O5    A    
C5    H10   S    
C4    C18   A    
C9    N2    A    
C22   H16   S    
C9    H2    S    
C20   H8    S    
Cu1   Cu2   S    
C2    O9    S    
C4    C5    S    
C11   C13   S    
C16   C17   D    
C3    C14   S    
C1    O1    A    
C10   N2    A    
C12   C16   S    
Cu2   O2    S    
C15   O7    A    
C2    C3    A    
C16   H1    S    
C5    C6    S    
C6    C18   S    
C1    C19   S    
Cu2   O4    S    
C10   C11   S    
C1    O2    A    
C2    C20   A    
C3    C4    A    
C22   H18   S    
C6    H12   S    
C7    C13   S    
Cu2   O8    S    
Cu1   N2    S    
C21   H15   S    
C18   C19   A    
C8    N1    A    
C15   C17   S    
C11   H3    S    
O9    C21   S    
C8    C9    A    
Cu1   O5    S    
C11   H4    S    
C8    H13   S    
Cu2   O6    S    
Cu2   N1    S    
Cu1   O1    S    
C21   H14   S    
C14   O6    A    
C5    H9    S    
C15   O8    A    
Cu1   O3    S    
