data_mof_unit_607.cif
_audit_creation_date              2012-12-10T18:21:23-0500
_audit_creation_method            fapswitch 2.2
_symmetry_space_group_name_H-M    P1
_symmetry_Int_Tables_number       1
_space_group_crystal_system       triclinic
_cell_length_a                    14.915347
_cell_length_b                    14.116281
_cell_length_c                    10.810781
_cell_angle_alpha                 88.768999
_cell_angle_beta                  89.933855
_cell_angle_gamma                 90.861388
_cell_volume                      2275.41661774

loop_
_atom_site_label
_atom_site_type_symbol
_atom_type_description
_atom_site_fract_x
_atom_site_fract_y
_atom_site_fract_z
_atom_type_partial_charge
C1    C     C_R   0.326566 0.498948 0.501965 0.892615
C2    C     C_3   0.595467 0.520778 0.923949 -0.560313
C3    C     C_R   0.812353 0.493966 0.393998 -0.163956
C4    C     C_R   0.767503 0.503445 0.505411 -0.008854
C5    C     C_R   0.812556 0.518577 0.616333 -0.251705
C6    C     C_R   0.905664 0.521511 0.616692 0.118121
C7    C     C_R   0.951933 0.509627 0.504429 0.068382
C8    C     C_R   0.904914 0.496256 0.392725 0.095067
C9    C     C_R   0.953169 0.531068 0.727458 -0.279573
C10   C     C_R   0.047087 0.529440 0.727117 0.221044
C11   C     C_R   0.093053 0.522991 0.614149 0.106346
C12   C     C_R   0.501681 0.500461 0.257038 0.903948
C13   C     C_R   0.045107 0.507685 0.504300 -0.058517
C14   C     C_R   0.090473 0.484215 0.395620 0.020785
C15   C     C_R   0.044362 0.481123 0.282334 0.215391
C16   C     C_R   0.951085 0.485500 0.281786 -0.277028
C17   C     C_R   0.186373 0.528424 0.608009 -0.299680
C18   C     C_R   0.230143 0.496623 0.503401 -0.102567
C19   C     C_R   0.180688 0.460787 0.404016 0.166666
C20   C     C_R   0.535761 0.803920 0.401028 0.508686
C21   C     C_R   0.546655 0.200364 0.412903 0.487103
C22   C     C_R   0.457492 0.795786 0.594159 -0.155839
C23   C     C_R   0.450324 0.200872 0.588330 -0.158816
C24   C     C_R   0.451526 0.896575 0.595060 0.022277
C25   C     C_R   0.447981 0.099831 0.593117 0.024517
C26   C     C_R   0.672636 0.500726 0.504307 0.924431
C27   C     C_R   0.485310 0.950111 0.494140 0.049420
C28   C     C_R   0.485422 0.051156 0.494702 0.072600
C29   C     C_R   0.520772 0.903399 0.392574 -0.092778
C30   C     C_R   0.525956 0.103483 0.397437 -0.094162
C31   C     C_R   0.411709 0.945638 0.692892 -0.165289
C32   C     C_R   0.408782 0.045984 0.691074 -0.181373
C33   C     C_R   0.546144 0.057021 0.288571 -0.143599
C34   C     C_R   0.541374 0.958862 0.285029 -0.076901
C35   C     C_R   0.498866 0.499246 0.742104 0.848768
C36   C     C_3   0.426508 0.565009 0.068621 -0.478131
C37   C     C_3   0.483934 0.397465 0.073576 -0.437153
C38   C     C_3   0.438710 0.580089 0.928619 0.075731
C39   C     C_3   0.473330 0.397522 0.932555 0.062930
C40   C     C_3   0.594326 0.532007 0.066188 -0.361306
C41   C     C_3   0.501631 0.499705 0.119770 0.105986
C42   C     C_3   0.498559 0.498582 0.877980 0.057205
H1    H     H_    0.427718 0.635020 0.113618 0.226530
H2    H     H_    0.540660 0.350979 0.099606 0.218370
H3    H     H_    0.225219 0.550142 0.686998 0.184457
H4    H     H_    0.914882 0.480994 0.195113 0.138055
H5    H     H_    0.428820 0.753923 0.669496 0.175192
H6    H     H_    0.415101 0.240375 0.656954 0.178903
H7    H     H_    0.383080 0.906610 0.771061 0.137435
H8    H     H_    0.377508 0.081080 0.767509 0.141995
H9    H     H_    0.565650 0.096537 0.205604 0.178609
H10   H     H_    0.556264 0.928198 0.197053 0.218545
H11   H     H_    0.359699 0.532516 0.086957 0.163063
H12   H     H_    0.424310 0.365284 0.117891 0.180002
H13   H     H_    0.477534 0.647749 0.914698 0.191951
H14   H     H_    0.523331 0.347103 0.896018 0.166428
H15   H     H_    0.607633 0.607134 0.086500 0.257296
H16   H     H_    0.649198 0.490019 0.108726 0.174297
H17   H     H_    0.622740 0.586919 0.879137 0.197109
H18   H     H_    0.641562 0.462833 0.899114 0.184881
H19   H     H_    0.775021 0.484603 0.308968 0.132723
H20   H     H_    0.775111 0.526455 0.701547 0.123454
H21   H     H_    0.917429 0.535239 0.814521 0.145031
N1    N     N_R   0.500070 0.750030 0.500050 -0.160899
N2    N     N_R   0.500070 0.249970 0.500050 -0.154771
O1    O     O_R   0.367860 0.580280 0.500020 -0.625835
O2    O     O_R   0.367860 0.419720 0.500020 -0.607886
O3    O     O_R   0.500000 0.580270 0.314790 -0.556913
O4    O     O_R   0.500000 0.419730 0.314790 -0.602673
O5    O     O_R   0.632160 0.580270 0.499960 -0.561563
O6    O     O_R   0.632160 0.419730 0.499960 -0.529250
O7    O     O_R   0.500030 0.580270 0.685200 -0.632020
O8    O     O_R   0.500030 0.419730 0.685200 -0.628045
Zn1   Zn    Zn3+2 0.500020 0.607200 0.499990 1.017076
Zn2   Zn    Zn3+2 0.500020 0.392800 0.499990 1.014852
N3    N     N_2   0.094359 0.521436 0.840648 -0.320257
H22   H     H_    0.060995 0.550962 0.913406 0.232679
C43   C     C_3   0.124246 0.425855 0.868364 -0.824568
H23   H     H_    0.065664 0.378365 0.888333 0.249792
H24   H     H_    0.169270 0.425635 0.949647 0.238699
H25   H     H_    0.162896 0.396936 0.790290 0.261034
N4    N     N_2   0.211460 0.381634 0.337208 -0.283884
H26   H     H_    0.163253 0.333885 0.308116 0.238595
C44   C     C_3   0.285162 0.395460 0.253144 -0.744941
H27   H     H_    0.261729 0.387446 0.156416 0.225212
H28   H     H_    0.335176 0.340369 0.275136 0.251196
H29   H     H_    0.316219 0.466534 0.262648 0.215511
N5    N     N_2   0.092177 0.482164 0.168714 -0.304247
H30   H     H_    0.054359 0.458750 0.095600 0.229522
C45   C     C_3   0.139264 0.570915 0.141589 -0.801960
H31   H     H_    0.183601 0.562936 0.060492 0.245701
H32   H     H_    0.182619 0.592350 0.219834 0.252500
H33   H     H_    0.090483 0.627928 0.121478 0.243089
S1    S     S_3+6 0.608205 0.759651 0.282365 0.008530
O9    O     O_2   0.554234 0.755996 0.165304 -0.393369
O10   O     O_2   0.683274 0.830952 0.262993 -0.311128
O11   O     O_3   0.658291 0.655573 0.302928 -0.541519
H34   H     H_    0.711798 0.658073 0.248498 0.355353
S2    S     S_3+6 0.655858 0.239731 0.363619 0.036938
O12   O     O_2   0.710946 0.259622 0.476656 -0.263224
O13   O     O_2   0.703399 0.164480 0.293525 -0.312365
O14   O     O_3   0.652376 0.337634 0.273300 -0.594411
H35   H     H_    0.708754 0.337834 0.224798 0.355543
N6    N     N_2   0.353466 0.591800 0.864416 -0.309866
H36   H     H_    0.309953 0.534962 0.867575 0.231523
C46   C     C_3   0.308708 0.680629 0.884181 -0.806749
H37   H     H_    0.285211 0.684404 0.981368 0.245791
H38   H     H_    0.249923 0.686365 0.821763 0.250918
H39   H     H_    0.354617 0.741561 0.863986 0.235308
N7    N     N_2   0.383819 0.364725 0.897663 -0.292634
H40   H     H_    0.332849 0.399575 0.940501 0.225048
C47   C     C_3   0.368306 0.263227 0.907144 -0.838294
H41   H     H_    0.307251 0.244287 0.853917 0.246631
H42   H     H_    0.357837 0.240737 0.005259 0.239838
H43   H     H_    0.425854 0.223996 0.869697 0.241589

loop_
_geom_bond_atom_site_label_1
_geom_bond_atom_site_label_2
_ccdc_geom_bond_type
C12   O4    A    
C27   C29   A    
C44   H29   S    
C6    C9    A    
N6    C46   S    
O11   H34   S    
C7    C8    A    
C25   C28   A    
C12   O3    A    
C1    C18   S    
N3    C43   S    
C38   C42   S    
C5    C6    A    
C21   S2    S    
C2    H18   S    
C46   H37   S    
O3    Zn1   S    
C15   C16   A    
O1    Zn1   S    
C18   C19   A    
C35   C42   S    
N7    H40   S    
C47   H41   S    
C38   N6    S    
C36   H11   S    
C10   N3    S    
C39   N7    S    
C11   C17   A    
C38   H13   S    
C31   C32   A    
O5    Zn1   S    
C24   C27   A    
C40   H15   S    
C19   N4    S    
C9    C10   A    
C25   C32   A    
C22   H5    S    
C8    C16   A    
C13   C14   A    
C26   O6    A    
O8    Zn2   S    
C36   C41   S    
O14   H35   S    
C31   H7    S    
C47   H42   S    
N6    H36   S    
C33   C34   A    
C39   C42   S    
C20   C29   A    
C3    H19   S    
C40   H16   S    
N3    H22   S    
O7    Zn1   S    
C3    C8    A    
C16   H4    S    
C43   H23   S    
S1    O11   S    
C29   C34   A    
C1    O1    A    
C20   N1    A    
C12   C41   S    
C45   H32   S    
S2    O12   D    
C17   C18   A    
C39   H14   S    
C44   H27   S    
S1    O10   D    
C32   H8    S    
C37   H12   S    
C40   C41   S    
S2    O13   D    
N5    C45   S    
C35   O7    A    
N4    C44   S    
C26   O5    A    
C22   C24   A    
O2    Zn2   S    
C3    C4    A    
C45   H33   S    
C20   S1    S    
C35   O8    A    
C23   H6    S    
C30   C33   A    
C21   N2    A    
C9    H21   S    
C14   C19   A    
C17   H3    S    
C4    C5    A    
C4    C26   S    
C6    C7    A    
C33   H9    S    
C21   C30   A    
C34   H10   S    
N2    Zn2   S    
C23   N2    A    
C37   H2    S    
C36   C38   S    
C24   C31   A    
C37   C39   S    
O6    Zn2   S    
C11   C13   A    
C43   H25   S    
C45   H31   S    
C2    H17   S    
C46   H38   S    
C2    C42   S    
C28   C30   A    
C1    O2    A    
C5    H20   S    
O4    Zn2   S    
C43   H24   S    
C23   C25   A    
C37   C41   S    
S1    O9    D    
N7    C47   S    
C10   C11   A    
C22   N1    A    
C2    C40   S    
C7    C13   A    
S2    O14   S    
N5    H30   S    
N4    H26   S    
C27   C28   A    
N1    Zn1   S    
C14   C15   A    
C44   H28   S    
C36   H1    S    
C47   H43   S    
C15   N5    S    
C46   H39   S    
