data_mof_unit_2985.cif
_audit_creation_date              2012-12-11T15:53:31-0500
_audit_creation_method            fapswitch 2.2
_symmetry_space_group_name_H-M    P1
_symmetry_Int_Tables_number       1
_space_group_crystal_system       triclinic
_cell_length_a                    6.930086
_cell_length_b                    14.550547
_cell_length_c                    15.942524
_cell_angle_alpha                 90.415849
_cell_angle_beta                  90.111267
_cell_angle_gamma                 89.897827
_cell_volume                      1607.5411029

loop_
_atom_site_label
_atom_site_type_symbol
_atom_type_description
_atom_site_fract_x
_atom_site_fract_y
_atom_site_fract_z
_atom_type_partial_charge
O1    O     O_R   0.361600 0.167310 0.164620 -0.542879
O2    O     O_R   0.638400 0.832690 0.835380 -0.542880
O3    O     O_R   0.691080 0.157570 0.338750 -0.545510
O4    O     O_R   0.308920 0.842430 0.661250 -0.545510
O5    O     O_R   0.861410 0.336420 0.339360 -0.535302
O6    O     O_R   0.138590 0.663580 0.660640 -0.535302
C1    C     C_R   0.522187 0.135291 0.367554 0.694371
C2    C     C_R   0.477813 0.864709 0.632446 0.694371
O7    O     O_R   0.691320 0.156280 0.165240 -0.545314
O8    O     O_R   0.308680 0.843720 0.834760 -0.545314
O9    O     O_R   0.861640 0.335130 0.164600 -0.521766
O10   O     O_R   0.138360 0.664870 0.835400 -0.521767
C3    C     C_R   0.522256 0.133840 0.136042 0.678475
C4    C     C_R   0.477744 0.866160 0.863958 0.678475
O11   O     O_R   0.361370 0.168600 0.339370 -0.540613
O12   O     O_R   0.638630 0.831400 0.660630 -0.540613
O13   O     O_3   0.527990 0.310540 0.251980 -0.362227
O14   O     O_3   0.472010 0.689460 0.748020 -0.362227
V1    V     V_3+5 0.802830 0.240980 0.251990 1.412257
V2    V     V_3+5 0.197170 0.759020 0.748010 1.412257
O15   O     O_R   0.191360 0.346160 0.165220 -0.555367
O16   O     O_R   0.808640 0.653840 0.834780 -0.555368
C5    C     C_R   0.021815 0.368967 0.136806 0.735578
C6    C     C_R   0.978185 0.631033 0.863194 0.735579
O17   O     O_R   0.191130 0.347440 0.338740 -0.534996
O18   O     O_R   0.808870 0.652560 0.661260 -0.534995
C7    C     C_R   0.022165 0.369262 0.367731 0.711726
C8    C     C_R   0.977835 0.630738 0.632269 0.711726
V3    V     V_3+5 0.302840 0.262750 0.251990 1.397071
V4    V     V_3+5 0.697160 0.737250 0.748010 1.397071
O19   O     O_3   0.027820 0.193180 0.251990 -0.375793
O20   O     O_3   0.972180 0.806820 0.748010 -0.375793
C9    C     C_3   0.824980 0.460580 0.488441 -0.174795
C10   C     C_3   0.175020 0.539420 0.511559 -0.174795
C11   C     C_3   0.944308 0.457394 0.571386 -0.237708
C12   C     C_3   0.055692 0.542606 0.428614 -0.237708
H1    H     H_    0.901822 0.422203 0.630055 0.117893
H2    H     H_    0.098178 0.577797 0.369945 0.117893
H3    H     H_    0.680780 0.429269 0.478270 0.153348
H4    H     H_    0.319220 0.570731 0.521729 0.153348
C13   C     C_3   0.989472 0.561102 0.562486 -0.106318
C14   C     C_3   0.010527 0.438897 0.437514 -0.106318
C15   C     C_3   0.873383 0.563449 0.480680 0.362466
C16   C     C_3   0.126617 0.436551 0.519320 0.362466
C17   C     C_R   0.861549 0.569871 0.000128 -0.296726
C18   C     C_R   0.138451 0.430129 0.999872 -0.296725
H5    H     H_    0.755668 0.624764 0.001534 0.129112
H6    H     H_    0.244332 0.375236 0.998466 0.129112
C19   C     C_R   0.869584 0.507613 0.067297 0.292914
C20   C     C_R   0.130416 0.492387 0.932703 0.292915
C21   C     C_R   0.009907 0.436963 0.067604 -0.114714
C22   C     C_R   0.990093 0.563037 0.932396 -0.114713
C23   C     C_R   0.679270 0.024272 0.466733 -0.161445
C24   C     C_R   0.320730 0.975728 0.533267 -0.161445
C25   C     C_R   0.668164 0.958941 0.530426 -0.155420
C26   C     C_R   0.331836 0.041059 0.469574 -0.155419
C27   C     C_R   0.488757 0.933870 0.564572 -0.044422
C28   C     C_R   0.511243 0.066130 0.435428 -0.044422
C29   C     C_R   0.679460 0.025249 0.033052 -0.160138
C30   C     C_R   0.320540 0.974751 0.966948 -0.160138
C31   C     C_R   0.668461 0.961129 0.967325 -0.156385
C32   C     C_R   0.331539 0.038871 0.032675 -0.156385
C33   C     C_R   0.488850 0.935015 0.933329 -0.044873
C34   C     C_R   0.511150 0.064985 0.066671 -0.044873
N1    N     N_2   0.734002 0.634349 0.461200 -0.521985
H7    H     H_    0.789663 0.699742 0.467104 0.242743
C35   C     C_3   0.628049 0.620214 0.383992 -0.565124
H8    H     H_    0.518690 0.675485 0.376902 0.193996
H9    H     H_    0.551403 0.553254 0.384975 0.211093
H10   H     H_    0.727620 0.621981 0.329486 0.191799
N2    N     N_2   0.265997 0.365651 0.538799 -0.521985
H11   H     H_    0.210337 0.300258 0.532896 0.242743
C36   C     C_3   0.371951 0.379786 0.616008 -0.565124
H12   H     H_    0.481310 0.324515 0.623098 0.193996
H13   H     H_    0.272379 0.378019 0.670514 0.191799
H14   H     H_    0.448597 0.446746 0.615025 0.211093
N3    N     N_2   0.744090 0.519938 0.136920 -0.531567
H15   H     H_    0.750782 0.585435 0.161935 0.237841
C37   C     C_3   0.547194 0.491773 0.121399 -0.467726
H16   H     H_    0.477943 0.537746 0.074781 0.168156
H17   H     H_    0.464051 0.495862 0.180776 0.193743
H18   H     H_    0.542892 0.419734 0.097887 0.207918
N4    N     N_2   0.255910 0.480062 0.863080 -0.531567
H19   H     H_    0.249218 0.414565 0.838065 0.237841
C38   C     C_3   0.452806 0.508227 0.878602 -0.467727
H20   H     H_    0.522057 0.462254 0.925219 0.168156
H21   H     H_    0.457108 0.580266 0.902112 0.207919
H22   H     H_    0.535949 0.504138 0.819224 0.193743
H23   H     H_    0.819769 0.041775 0.441977 0.115980
H24   H     H_    0.180231 0.958225 0.558023 0.115980
H25   H     H_    0.800687 0.928043 0.552814 0.116681
H26   H     H_    0.199313 0.071957 0.447186 0.116681
H27   H     H_    0.820215 0.043647 0.057444 0.116105
H28   H     H_    0.179784 0.956353 0.942556 0.116105
H29   H     H_    0.801273 0.931931 0.943263 0.117844
H30   H     H_    0.198727 0.068069 0.056737 0.117844

loop_
_geom_bond_atom_site_label_1
_geom_bond_atom_site_label_2
_ccdc_geom_bond_type
C6    C22   S    
C32   H30   S    
O13   V3    S    
C36   H12   S    
C23   C25   A    
C12   C14   S    
O4    C2    A    
V1    O19   S    
N3    H15   S    
O9    V1    S    
C29   C34   A    
C9    H3    S    
C30   C33   A    
C10   H4    S    
C9    C14   S    
C11   H1    S    
C24   H24   S    
O3    C1    A    
O12   V4    S    
C8    C13   S    
C16   N2    S    
C30   C32   A    
C25   H25   S    
C31   C33   A    
O7    C3    A    
C32   C34   A    
C9    C11   S    
O5    C7    A    
O7    V1    S    
O6    C8    A    
O8    V2    S    
C19   C21   A    
C20   C22   A    
O3    V1    S    
O14   V4    S    
C26   C28   A    
C1    C28   S    
C10   C12   S    
N3    C37   S    
C2    O12   A    
C13   C15   S    
C10   C13   S    
C14   C16   S    
C11   C13   S    
C20   N4    S    
O11   V3    S    
C18   H6    S    
C17   H5    S    
O17   V3    S    
C24   C26   A    
C29   C31   A    
C38   H21   S    
C35   H8    S    
C9    C15   S    
C10   C16   S    
O8    C4    A    
C37   H17   S    
C1    O11   A    
C17   C22   A    
N1    C35   S    
C38   H20   S    
O15   V3    S    
C18   C21   A    
C35   H9    S    
C2    C27   S    
C5    C21   S    
N4    H19   S    
C17   C19   A    
C15   N1    S    
O10   V2    S    
O1    V3    S    
C11   C16   S    
N4    C38   S    
O18   V4    S    
O15   C5    A    
C23   H23   S    
C36   H14   S    
O16   C6    A    
O1    C3    A    
C36   H13   S    
C12   H2    S    
N2    C36   S    
V2    O20   S    
C38   H22   S    
C18   C20   A    
O16   V4    S    
C37   H18   S    
C23   C28   A    
C31   H29   S    
O5    V1    S    
O17   C7    A    
O6    V2    S    
O10   C6    A    
O18   C8    A    
O2    V4    S    
C35   H10   S    
C25   C27   A    
N2    H11   S    
V3    O19   S    
V4    O20   S    
C7    C14   S    
C3    C34   S    
C4    C33   S    
O9    C5    A    
O13   V1    S    
C19   N3    S    
O14   V2    S    
O2    C4    A    
C37   H16   S    
O4    V2    S    
C26   H26   S    
N1    H7    S    
C12   C15   S    
C29   H27   S    
C24   C27   A    
C30   H28   S    
