data_mof_unit_3311.cif
_audit_creation_date              2012-12-10T17:18:58-0500
_audit_creation_method            fapswitch 2.2
_symmetry_space_group_name_H-M    P1
_symmetry_Int_Tables_number       1
_space_group_crystal_system       triclinic
_cell_length_a                    10.165035
_cell_length_b                    10.802349
_cell_length_c                    13.457826
_cell_angle_alpha                 91.670579
_cell_angle_beta                  100.32733
_cell_angle_gamma                 96.085278
_cell_volume                      1443.8687188

loop_
_atom_site_label
_atom_site_type_symbol
_atom_type_description
_atom_site_fract_x
_atom_site_fract_y
_atom_site_fract_z
_atom_type_partial_charge
C1    C     C_R   0.052426 0.732423 0.491313 0.909676
C2    C     C_2   0.996978 0.063561 0.467114 -0.145519
C3    C     C_2   0.430973 0.511149 0.508796 -0.133050
C4    C     C_2   0.569092 0.488929 0.491038 -0.121167
C5    C     C_R   0.094518 0.516124 0.686543 0.882439
C6    C     C_R   0.907868 0.492565 0.313229 0.897010
C7    C     C_R   0.151418 0.550793 0.792776 -0.281717
C8    C     C_R   0.866637 0.507833 0.204052 -0.282283
C9    C     C_R   0.173512 0.694435 0.937945 -0.304153
C10   C     C_R   0.884325 0.459087 0.030616 -0.254525
C11   C     C_R   0.099039 0.643156 0.845651 0.445981
C12   C     C_R   0.945270 0.267222 0.503665 0.923975
C13   C     C_R   0.931809 0.451642 0.133638 0.382932
C14   C     C_R   0.277727 0.513011 0.832528 0.347559
C15   C     C_R   0.759110 0.578125 0.170174 0.337812
C16   C     C_R   0.363920 0.587034 0.910286 0.012937
C17   C     C_R   0.701958 0.575039 0.066007 -0.002772
C18   C     C_R   0.307400 0.670953 0.968770 -0.085956
C19   C     C_R   0.764847 0.511312 0.996422 -0.068211
C20   C     C_R   0.503140 0.574745 0.934690 0.028859
C21   C     C_R   0.576678 0.621186 0.029802 0.017610
C22   C     C_3   0.282078 0.748945 0.190424 0.121092
C23   C     C_R   0.520187 0.709216 0.084466 -0.222110
C24   C     C_3   0.192455 0.828639 0.237254 -0.843768
C25   C     C_3   0.701142 0.334375 0.775110 0.119346
C26   C     C_3   0.800914 0.245850 0.754144 -0.837341
C27   C     C_3   0.997836 0.260139 0.165418 0.128320
C28   C     C_3   0.114679 0.191899 0.213659 -0.803621
C29   C     C_3   0.994000 0.806933 0.779612 0.133162
C30   C     C_3   0.860181 0.846131 0.728121 -0.814663
C31   C     C_R   0.572676 0.524237 0.864373 -0.265143
C32   C     C_R   0.386454 0.731790 0.056071 0.455107
C33   C     C_R   0.703656 0.493583 0.894256 0.506910
C34   C     C_2   0.078385 0.863952 0.477754 -0.401795
C35   C     C_2   0.909924 0.134149 0.496984 -0.388149
C36   C     C_2   0.974686 0.931287 0.470216 -0.154596
H1    H     H_    0.129100 0.758929 0.981634 0.198654
H2    H     H_    0.421869 0.584252 0.563379 0.163559
H3    H     H_    0.664561 0.620521 0.591589 0.165250
H4    H     H_    0.334936 0.377800 0.409532 0.165478
H5    H     H_    0.366034 0.727710 0.250497 0.168389
H6    H     H_    0.219535 0.660023 0.160145 0.167300
H7    H     H_    0.109827 0.853522 0.178008 0.249503
H8    H     H_    0.147636 0.775326 0.294518 0.221476
H9    H     H_    0.252136 0.915203 0.274137 0.255771
H10   H     H_    0.641274 0.357682 0.701939 0.165328
H11   H     H_    0.632210 0.284009 0.820300 0.139064
H12   H     H_    0.935619 0.414087 0.978050 0.208722
H13   H     H_    0.855816 0.215292 0.826595 0.235246
H14   H     H_    0.746727 0.162648 0.708262 0.203061
H15   H     H_    0.874934 0.293087 0.712382 0.272242
H16   H     H_    0.776838 0.692920 0.284424 0.332263
H17   H     H_    0.235636 0.347028 0.766147 0.334888
H18   H     H_    0.961243 0.220649 0.086739 0.131177
H19   H     H_    0.915929 0.243086 0.210234 0.124195
H20   H     H_    0.152779 0.229189 0.292505 0.250756
H21   H     H_    0.080480 0.090974 0.214944 0.204733
H22   H     H_    0.197416 0.204066 0.169731 0.260798
H23   H     H_    0.578803 0.767174 0.146677 0.212701
H24   H     H_    0.065422 0.817454 0.725640 0.126857
H25   H     H_    0.032368 0.871241 0.847074 0.129591
H26   H     H_    0.785052 0.833064 0.778622 0.249501
H27   H     H_    0.873554 0.945887 0.710177 0.202508
H28   H     H_    0.822632 0.789742 0.656668 0.258319
H29   H     H_    0.527195 0.510899 0.785204 0.190438
H30   H     H_    0.090858 0.103216 0.446667 0.187264
H31   H     H_    0.873052 0.890056 0.473038 0.190403
H32   H     H_    0.816455 0.094029 0.517672 0.149296
H33   H     H_    0.179749 0.905707 0.475039 0.155511
H34   H     H_    0.578220 0.416235 0.436133 0.172872
N1    N     N_2   0.322180 0.446120 0.460900 -0.182335
N2    N     N_2   0.677820 0.553880 0.539100 -0.180660
O1    O     O_R   0.935190 0.693030 0.507870 -0.615922
O2    O     O_3   0.773158 0.444776 0.825105 -0.588308
O3    O     O_3   0.702518 0.639781 0.239851 -0.772001
O4    O     O_3   0.316712 0.402690 0.798744 -0.778090
O5    O     O_3   0.042251 0.388539 0.165082 -0.588983
O6    O     O_3   0.974938 0.681988 0.807698 -0.555849
O7    O     O_R   0.064810 0.306970 0.492130 -0.611218
O8    O     O_R   0.142080 0.658430 0.482770 -0.617043
O9    O     O_R   0.857920 0.341570 0.517230 -0.617466
O10   O     O_R   0.969700 0.527180 0.651960 -0.527438
O11   O     O_R   0.030300 0.472820 0.348040 -0.562368
O12   O     O_R   0.176600 0.492580 0.626860 -0.598712
O13   O     O_R   0.823400 0.507420 0.373140 -0.577472
O14   O     O_3   0.333766 0.814911 0.114002 -0.622589
Zn1   Zn    Zn3+2 0.861850 0.523100 0.516760 0.967325
Zn2   Zn    Zn3+2 0.138150 0.476900 0.483240 0.945825

loop_
_geom_bond_atom_site_label_1
_geom_bond_atom_site_label_2
_ccdc_geom_bond_type
C2    C35   D    
C15   O3    S    
C8    C13   A    
H4    N1    S    
C30   H28   S    
H16   O3    S    
C4    H34   S    
C28   H20   S    
C36   H31   S    
C28   H21   S    
C7    C11   A    
C6    O13   A    
C24   H9    S    
C26   H14   S    
C27   H19   S    
C22   H5    S    
O10   Zn1   S    
C12   O7    A    
C31   H29   S    
C25   O2    S    
O1    Zn1   S    
C7    C14   A    
C29   O6    S    
C3    H2    S    
H3    N2    S    
C31   C33   A    
C14   C16   A    
C25   H11   S    
O11   Zn2   S    
C30   H27   S    
O7    Zn2   S    
C1    C34   S    
C13   O5    S    
O13   Zn1   S    
C29   H25   S    
C27   H18   S    
C19   C33   A    
C26   H13   S    
C5    C7    S    
C5    O12   A    
C6    C8    S    
C2    H30   S    
C25   C26   S    
C17   C21   A    
C14   O4    S    
C3    N1    D    
C29   C30   S    
C11   O6    S    
C9    C18   A    
C29   H24   S    
C10   C19   A    
C16   C20   A    
C32   O14   S    
C9    H1    S    
C12   C35   S    
C9    C11   A    
C34   H33   S    
O9    Zn1   S    
C8    C15   A    
C30   H26   S    
C10   H12   S    
C24   H8    S    
C22   C24   S    
H17   O4    S    
C18   C32   A    
C3    C4    S    
C4    N2    D    
N2    Zn1   S    
C2    C36   S    
C15   C17   A    
C6    O11   A    
C23   H23   S    
O12   Zn2   S    
C27   O5    S    
C10   C13   A    
C28   H22   S    
C1    O1    A    
C23   C32   A    
C21   C23   A    
O8    Zn2   S    
C26   H15   S    
C5    O10   A    
C22   H6    S    
C35   H32   S    
C17   C19   A    
C12   O9    A    
C34   C36   D    
C22   O14   S    
N1    Zn2   S    
C33   O2    S    
C20   C21   A    
C16   C18   A    
C27   C28   S    
C24   H7    S    
C1    O8    A    
C25   H10   S    
C20   C31   A    
