data_mof_unit_2504.cif
_audit_creation_date              2012-12-11T15:43:53-0500
_audit_creation_method            fapswitch 2.2
_symmetry_space_group_name_H-M    P1
_symmetry_Int_Tables_number       1
_space_group_crystal_system       triclinic
_cell_length_a                    14.592072
_cell_length_b                    16.237634
_cell_length_c                    6.896173
_cell_angle_alpha                 89.599147
_cell_angle_beta                  99.08601
_cell_angle_gamma                 90.092385
_cell_volume                      1613.44193737

loop_
_atom_site_label
_atom_site_type_symbol
_atom_type_description
_atom_site_fract_x
_atom_site_fract_y
_atom_site_fract_z
_atom_type_partial_charge
O1    O     O_R   0.831700 0.662810 0.581550 -0.536080
O2    O     O_R   0.168300 0.337190 0.418450 -0.536235
O3    O     O_R   0.168300 0.162810 0.418450 -0.535559
O4    O     O_R   0.831700 0.837190 0.581550 -0.535703
O5    O     O_R   0.842890 0.834390 0.255500 -0.543083
O6    O     O_R   0.157110 0.165610 0.744500 -0.543139
O7    O     O_R   0.157110 0.334390 0.744500 -0.543454
O8    O     O_R   0.842890 0.665610 0.255500 -0.545621
O9    O     O_R   0.661690 0.835580 0.024130 -0.527760
O10   O     O_R   0.338310 0.164420 0.975870 -0.528876
O11   O     O_R   0.338310 0.335580 0.975870 -0.533334
O12   O     O_R   0.661690 0.664420 0.024130 -0.532535
C1    C     C_R   0.863820 0.865935 0.431321 0.712378
C2    C     C_R   0.136177 0.134067 0.568677 0.712300
C3    C     C_R   0.135864 0.365696 0.567826 0.707069
C4    C     C_R   0.863805 0.634094 0.431979 0.705452
C5    C     C_R   0.067821 0.064357 0.531925 -0.102684
C6    C     C_R   0.932170 0.935651 0.468064 -0.102723
C7    C     C_R   0.932089 0.564357 0.468913 -0.102470
C8    C     C_R   0.067131 0.435134 0.530439 -0.101821
H1    H     H_    0.993687 0.907445 0.213492 0.131256
H2    H     H_    0.006298 0.092567 0.786488 0.131287
H3    H     H_    0.007101 0.406377 0.787839 0.131577
H4    H     H_    0.991866 0.592935 0.211166 0.132096
C9    C     C_R   0.995828 0.948059 0.338174 -0.199777
C10   C     C_R   0.004159 0.051952 0.661810 -0.199646
C11   C     C_R   0.004422 0.447324 0.662310 -0.198433
C12   C     C_R   0.994604 0.552032 0.336792 -0.200390
O13   O     O_3   0.687240 0.750000 0.366320 -0.368635
O14   O     O_3   0.312760 0.250000 0.633680 -0.369884
V1    V     V_3+5 0.757720 0.750000 0.115230 1.386485
V2    V     V_3+5 0.242280 0.250000 0.884770 1.387123
O15   O     O_R   0.650500 0.664000 0.690740 -0.548530
O16   O     O_R   0.349500 0.336000 0.309260 -0.547493
O17   O     O_R   0.349500 0.164000 0.309260 -0.547601
O18   O     O_R   0.650500 0.836000 0.690740 -0.547385
C13   C     C_R   0.631664 0.633578 0.855708 0.757386
C14   C     C_R   0.374574 0.361678 0.145494 0.754617
C15   C     C_R   0.373709 0.137807 0.147281 0.751550
C16   C     C_R   0.626263 0.862162 0.852721 0.756413
C17   C     C_R   0.063503 0.010673 0.367444 0.168371
C18   C     C_R   0.936482 0.989340 0.632535 0.168430
C19   C     C_R   0.937025 0.510183 0.634120 0.169956
C20   C     C_R   0.061840 0.489075 0.364686 0.166683
V3    V     V_3+5 0.735670 0.750000 0.607790 1.388017
V4    V     V_3+5 0.264330 0.250000 0.392210 1.386167
O19   O     O_3   0.806150 0.750000 0.906560 -0.374150
O20   O     O_3   0.193850 0.250000 0.093440 -0.372529
C21   C     C_2   0.563499 0.933944 0.844591 -0.338415
C22   C     C_2   0.436405 0.065970 0.155442 -0.336430
C23   C     C_2   0.446676 0.426688 0.148490 -0.349455
C24   C     C_2   0.566626 0.563159 0.854296 -0.349433
C25   C     C_2   0.518049 0.956495 0.994504 0.173864
C26   C     C_2   0.481905 0.043403 0.005618 0.176034
C27   C     C_2   0.493897 0.443463 0.995848 0.158303
C28   C     C_2   0.562933 0.512083 0.011973 0.174251
H5    H     H_    0.436430 0.026070 0.282116 0.109819
H6    H     H_    0.563384 0.973832 0.717864 0.110018
H7    H     H_    0.519486 0.552813 0.718182 0.110832
H8    H     H_    0.460818 0.463346 0.281087 0.112952
C29   C     C_3   0.131061 0.016423 0.222897 -0.738308
H9    H     H_    0.203485 0.015328 0.302154 0.194564
H10   H     H_    0.123472 0.964061 0.118733 0.188398
H11   H     H_    0.118453 0.073621 0.133736 0.221410
C30   C     C_3   0.868911 0.983600 0.777057 -0.738330
H12   H     H_    0.796492 0.984692 0.697777 0.194492
H13   H     H_    0.881513 0.926407 0.866238 0.221301
H14   H     H_    0.876492 0.035969 0.881202 0.188603
C31   C     C_3   0.870343 0.515682 0.780318 -0.744900
H15   H     H_    0.797645 0.514503 0.702560 0.196847
H16   H     H_    0.878551 0.463270 0.886043 0.190178
H17   H     H_    0.883258 0.572871 0.867551 0.219542
C32   C     C_3   0.127842 0.483166 0.217216 -0.739284
H18   H     H_    0.200745 0.484610 0.293693 0.194472
H19   H     H_    0.114647 0.425706 0.131114 0.221087
H20   H     H_    0.119122 0.535237 0.110543 0.189316
C33   C     C_3   0.502261 0.106725 0.854362 -0.723816
H21   H     H_    0.576561 0.103707 0.837381 0.180477
H22   H     H_    0.458150 0.094808 0.710791 0.206648
H23   H     H_    0.492212 0.171020 0.899464 0.200179
C34   C     C_3   0.497808 0.893194 0.145952 -0.722113
H24   H     H_    0.423499 0.896158 0.162888 0.179537
H25   H     H_    0.507980 0.828821 0.101266 0.206453
H26   H     H_    0.541864 0.905287 0.289498 0.205911
C35   C     C_3   0.631413 0.518169 0.201251 -0.716507
H27   H     H_    0.627461 0.463362 0.296771 0.180771
H28   H     H_    0.703601 0.520710 0.169073 0.196494
H29   H     H_    0.616350 0.573311 0.285075 0.215981
C36   C     C_3   0.483678 0.391604 0.811598 -0.686383
H30   H     H_    0.538287 0.406272 0.721349 0.175250
H31   H     H_    0.491716 0.325310 0.850792 0.197191
H32   H     H_    0.415321 0.403215 0.719560 0.213116

loop_
_geom_bond_atom_site_label_1
_geom_bond_atom_site_label_2
_ccdc_geom_bond_type
O6    V2    S    
C27   C28   S    
C31   H17   S    
O15   V3    S    
C32   H18   S    
C17   C29   S    
C34   H24   S    
C25   C26   S    
O2    V4    S    
C22   C26   D    
C1    C6    S    
C5    C10   A    
O8    V1    S    
C6    C18   A    
C35   H27   S    
C33   H23   S    
C16   C21   S    
O12   C13   A    
C25   C34   S    
O4    C1    A    
C29   H10   S    
C34   H25   S    
C30   H13   S    
C18   C30   S    
O16   V4    S    
H3    C11   S    
C36   H31   S    
O5    C1    A    
C29   H9    S    
C26   C33   S    
C33   H22   S    
O8    C4    A    
V1    O19   S    
V2    O20   S    
C2    C5    S    
C20   C32   S    
C6    C9    A    
C8    C20   A    
C7    C19   A    
O4    V3    S    
V3    O19   S    
C3    C8    S    
V4    O20   S    
C31   H16   S    
C35   H28   S    
O18   C16   A    
C9    C17   A    
C13   C24   S    
C14   C23   S    
C33   H21   S    
C12   C20   A    
O9    C16   A    
O15   C13   A    
C21   H6    S    
O13   V3    S    
O10   C15   A    
C29   H11   S    
O17   C15   A    
C7    C12   A    
C24   H7    S    
O10   V2    S    
O6    C2    A    
C30   H14   S    
O18   V3    S    
O1    C4    A    
C36   H32   S    
O2    C3    A    
O3    C2    A    
O11   V2    S    
O12   V1    S    
C32   H20   S    
C32   H19   S    
C34   H26   S    
C10   C18   A    
C35   H29   S    
H1    C9    S    
O7    V2    S    
O16   C14   A    
C22   H5    S    
O14   V4    S    
H4    C12   S    
C8    C11   A    
O3    V4    S    
O13   V1    S    
O14   V2    S    
O1    V3    S    
C28   C35   S    
C4    C7    S    
C21   C25   D    
O7    C3    A    
C23   C27   D    
C31   H15   S    
C5    C17   A    
O9    V1    S    
C11   C19   A    
C15   C22   S    
C27   C36   S    
C30   H12   S    
H2    C10   S    
O11   C14   A    
C23   H8    S    
C36   H30   S    
C19   C31   S    
O17   V4    S    
C24   C28   D    
O5    V1    S    
