data_mof_unit_4559.cif
_audit_creation_date              2012-12-11T17:37:42-0500
_audit_creation_method            fapswitch 2.2
_symmetry_space_group_name_H-M    P1
_symmetry_Int_Tables_number       1
_space_group_crystal_system       triclinic
_cell_length_a                    13.042226
_cell_length_b                    13.075304
_cell_length_c                    15.44564
_cell_angle_alpha                 117.41325
_cell_angle_beta                  63.383786
_cell_angle_gamma                 97.747388
_cell_volume                      2081.9157236

loop_
_atom_site_label
_atom_site_type_symbol
_atom_type_description
_atom_site_fract_x
_atom_site_fract_y
_atom_site_fract_z
_atom_type_partial_charge
C1    C     C_R   0.996204 0.832028 0.059982 -0.123354
C2    C     C_R   0.671957 0.554500 0.321745 0.042986
C3    C     C_R   0.665120 0.453748 0.921850 0.086661
C4    C     C_R   0.091492 0.788546 0.294006 0.075911
C5    C     C_R   0.338810 0.519221 0.953146 -0.094401
C6    C     C_R   0.966164 0.178844 0.780509 -0.132080
C7    C     C_R   0.206212 0.496608 0.691563 -0.129261
C8    C     C_R   0.053414 0.254583 0.085012 -0.097561
C9    C     C_R   0.949942 0.171957 0.994025 -0.147483
C10   C     C_R   0.298528 0.594909 0.792164 -0.111542
C11   C     C_R   0.259337 0.417779 0.047584 -0.163370
C12   C     C_R   0.678766 0.475873 0.220336 -0.122113
C13   C     C_R   0.046667 0.276678 0.683382 -0.104615
C14   C     C_R   0.362311 0.436647 0.975493 0.183913
C15   C     C_R   0.032875 0.165308 0.675035 0.061627
C16   C     C_R   0.298595 0.561148 0.693300 0.066925
C17   C     C_R   0.007762 0.151293 0.042019 0.099477
C18   C     C_R   0.439470 0.889073 0.100216 -0.120223
C19   C     C_R   0.359525 0.883431 0.195280 -0.145320
C20   C     C_R   0.270033 0.972105 0.274334 0.104884
C21   C     C_R   0.262275 0.066265 0.256373 -0.156378
C22   C     C_R   0.342438 0.071610 0.161235 -0.103507
C23   C     C_R   0.757396 0.515752 0.890761 -0.127653
C24   C     C_R   0.431024 0.983152 0.083269 -0.099121
C25   C     C_R   0.157918 0.062387 0.475998 -0.217195
C26   C     C_R   0.081724 0.056381 0.573031 0.069271
C27   C     C_R   0.055136 0.945588 0.567744 0.031783
C28   C     C_R   0.093086 0.849235 0.467716 -0.232134
C29   C     C_R   0.135561 0.862823 0.373838 0.043636
C30   C     C_R   0.185584 0.965670 0.375144 0.040751
C31   C     C_R   0.017578 0.905379 0.720829 -0.161892
C32   C     C_R   0.941418 0.886723 0.809426 -0.168313
C33   C     C_R   0.823563 0.885206 0.836636 -0.105239
C34   C     C_R   0.026379 0.696166 0.296872 -0.146764
C35   C     C_R   0.781479 0.904879 0.776412 -0.107895
C36   C     C_R   0.857268 0.924903 0.688298 -0.183887
C37   C     C_R   0.975663 0.924943 0.660306 0.105911
C38   C     C_R   0.857881 0.423949 0.419361 0.258016
C39   C     C_R   0.743145 0.447272 0.447367 -0.110171
C40   C     C_R   0.694694 0.562401 0.507824 0.077929
C41   C     C_R   0.754829 0.650849 0.553936 -0.154710
C42   C     C_R   0.870170 0.626887 0.523066 -0.151752
C43   C     C_R   0.923599 0.515497 0.448149 -0.201366
C44   C     C_R   0.490907 0.603976 0.607399 -0.222567
C45   C     C_R   0.678425 0.418700 0.987796 -0.155568
C46   C     C_R   0.382794 0.590759 0.609210 0.054642
C47   C     C_R   0.365677 0.587923 0.523605 0.029029
C48   C     C_R   0.461614 0.587317 0.433094 -0.245883
C49   C     C_R   0.572114 0.583480 0.425880 0.073510
C50   C     C_R   0.585550 0.591152 0.514730 0.024501
C51   C     C_R   0.239688 0.458359 0.446698 -0.179612
C52   C     C_R   0.131255 0.416064 0.470576 -0.164956
C53   C     C_R   0.035354 0.484052 0.565404 -0.114903
C54   C     C_R   0.045837 0.598115 0.631115 -0.118635
C55   C     C_R   0.154551 0.640240 0.608757 -0.145088
C56   C     C_R   0.102681 0.796855 0.204372 -0.141572
C57   C     C_R   0.252937 0.567465 0.520489 0.116110
C58   C     C_2   0.474083 0.400872 0.954724 -0.272699
C59   C     C_2   0.572949 0.423955 0.888200 0.184169
C60   C     C_2   0.823425 0.954024 0.105786 -0.257986
C61   C     C_2   0.798805 0.025924 0.209082 -0.025426
C62   C     C_R   0.782926 0.573865 0.309977 -0.114900
C63   C     C_R   0.895924 0.746851 0.963586 -0.166658
C64   C     C_R   0.905937 0.850744 0.042553 0.129387
H1    H     H_    0.023470 0.893670 0.120005 0.116488
H2    H     H_    0.933527 0.115925 0.809293 0.131956
H3    H     H_    0.180725 0.453936 0.628192 0.136755
H4    H     H_    0.094127 0.273209 0.137325 0.120697
H5    H     H_    0.891901 0.115541 0.965357 0.113981
H6    H     H_    0.349170 0.657978 0.827074 0.091547
H7    H     H_    0.249143 0.365135 0.087438 0.098591
H8    H     H_    0.088062 0.300355 0.618206 0.095702
H9    H     H_    0.493016 0.987400 0.009662 0.098955
H10   H     H_    0.508047 0.820542 0.039730 0.112532
H11   H     H_    0.367422 0.810078 0.207332 0.116729
H12   H     H_    0.608519 0.440914 0.199486 0.094659
H13   H     H_    0.193115 0.134299 0.315037 0.124900
H14   H     H_    0.335611 0.144201 0.147828 0.107711
H15   H     H_    0.193704 0.142407 0.477625 0.121949
H16   H     H_    0.072224 0.765643 0.465127 0.121519
H17   H     H_    0.108403 0.907866 0.701055 0.119959
H18   H     H_    0.974668 0.874175 0.856672 0.133761
H19   H     H_    0.764443 0.869355 0.904412 0.096198
H20   H     H_    0.690275 0.904395 0.797882 0.105838
H21   H     H_    0.824206 0.940011 0.641756 0.128779
H22   H     H_    0.015529 0.500101 0.414543 0.156956
H23   H     H_    0.781524 0.542982 0.828311 0.122538
H24   H     H_    0.693869 0.377419 0.418135 0.142724
H25   H     H_    0.715910 0.739046 0.604748 0.120871
H26   H     H_    0.919317 0.694983 0.553464 0.149194
H27   H     H_    0.505699 0.604480 0.671277 0.153314
H28   H     H_    0.450784 0.580326 0.365005 0.127895
H29   H     H_    0.314366 0.400781 0.378437 0.120820
H30   H     H_    0.122358 0.329001 0.418298 0.151883
H31   H     H_    0.952346 0.449298 0.586310 0.163974
H32   H     H_    0.970952 0.650470 0.703275 0.133390
H33   H     H_    0.014023 0.653765 0.345617 0.106575
H34   H     H_    0.163949 0.722957 0.667518 0.112173
H35   H     H_    0.470512 0.383273 0.018038 0.111711
H36   H     H_    0.775109 0.968619 0.070279 0.139921
H37   H     H_    0.840162 0.012877 0.250951 0.153273
H38   H     H_    0.634308 0.353309 0.011853 0.092883
H39   H     H_    0.157055 0.850612 0.169460 0.119519
H40   H     H_    0.809837 0.637918 0.368626 0.125951
H41   H     H_    0.830055 0.729434 0.935704 0.105487
H42   H     H_    0.397718 0.563871 0.909687 0.127578
N1    N     N_R   0.037320 0.720000 0.995830 -0.047842
N2    N     N_R   0.946240 0.290870 0.848020 -0.042699
N3    N     N_R   0.146160 0.501170 0.788610 -0.043340
N4    N     N_R   0.025750 0.332680 0.063570 -0.041276
N5    N     N_R   0.962680 0.280000 0.004170 -0.043343
N6    N     N_R   0.209230 0.553860 0.848010 -0.039060
N7    N     N_R   0.175100 0.482030 0.063570 -0.042767
N8    N     N_R   0.996810 0.351820 0.788610 -0.040006
N9    N     N_R   0.790770 0.446140 0.151990 -0.040368
N10   N     N_R   0.824900 0.517970 0.936430 -0.042248
N11   N     N_R   0.003190 0.648180 0.211390 -0.041884
N12   N     N_R   0.774330 0.457010 0.995830 -0.037785
N13   N     N_R   0.053760 0.709130 0.151980 -0.043742
N14   N     N_R   0.853840 0.498830 0.211390 -0.039877
N15   N     N_R   0.974250 0.667320 0.936430 -0.041413
N16   N     N_R   0.225670 0.542990 0.004170 -0.052102
Ni1   Ni    Ni4+2 0.130310 0.630310 0.000000 0.212434
Ni2   Ni    Ni4+2 0.869690 0.369690 0.000000 0.219076
Ni3   Ni    Ni4+2 0.985660 0.509480 0.863750 0.218813
Ni4   Ni    Ni4+2 0.014340 0.490520 0.136250 0.221543
I1    I     I_    0.930210 0.252836 0.340822 -0.557012
I2    I     I_    0.601342 0.423432 0.740404 -0.478218

loop_
_geom_bond_atom_site_label_1
_geom_bond_atom_site_label_2
_ccdc_geom_bond_type
C45   N12   A    
C9    N5    A    
C41   H25   S    
C53   H31   S    
C41   C42   A    
C3    C23   A    
C19   C20   A    
N1    Ni1   S    
C2    C12   A    
C38   I1    S    
C20   C30   S    
C53   C54   A    
C28   C29   A    
C26   C27   A    
C18   C24   A    
C36   C37   A    
C9    H5    S    
N11   N13   A    
C38   C39   A    
C11   C14   A    
C11   H7    S    
C24   H9    S    
C44   C50   A    
C34   H33   S    
C18   C19   A    
N2    N8    A    
C49   C50   A    
N4    N5    A    
C6    C15   A    
C46   C47   A    
N7    N16   A    
C31   C32   A    
C1    H1    S    
C10   N6    A    
C51   C57   A    
C63   H41   S    
N11   Ni4   S    
C54   H32   S    
C13   N8    A    
C12   N9    A    
C34   N11   A    
C23   N10   A    
C18   H10   S    
C23   H23   S    
C21   C22   A    
C4    C56   A    
C39   H24   S    
N2    Ni2   S    
C28   H16   S    
C63   N15   A    
C44   C46   A    
C62   H40   S    
C5    H42   S    
C14   C58   S    
C4    C34   A    
C51   C52   A    
C22   H14   S    
N6    Ni1   S    
N3    N6    A    
C16   C46   S    
C39   C40   A    
N8    Ni3   S    
C15   C26   S    
N7    Ni4   S    
C59   I2    S    
C5    N16   A    
C3    C45   A    
C7    N3    A    
C60   C61   D    
C42   H26   S    
C35   C36   A    
C61   H37   S    
N15   Ni3   S    
C29   C30   A    
C2    C49   S    
C8    N4    A    
C47   C57   S    
C47   C48   A    
C48   C49   A    
N12   Ni2   S    
C52   H30   S    
C33   H19   S    
C5    C14   A    
C44   H27   S    
N4    Ni4   S    
C10   H6    S    
N3    Ni3   S    
C40   C41   A    
C1    N1    A    
C8    H4    S    
N10   Ni3   S    
C55   C57   A    
C12   H12   S    
C56   N13   A    
C22   C24   A    
C58   C59   D    
C42   C43   A    
N1    N15   A    
C1    C64   A    
C52   C53   A    
C9    C17   A    
C25   C30   A    
C54   C55   A    
C7    C16   A    
N9    Ni2   S    
N5    Ni2   S    
C25   H15   S    
C43   H22   S    
C62   N14   A    
C58   H35   S    
C4    C29   S    
C56   H39   S    
C60   H36   S    
C31   H17   S    
C35   H20   S    
C13   H8    S    
N13   Ni1   S    
C36   H21   S    
C32   H18   S    
C8    C17   A    
C51   H29   S    
C60   C64   S    
C32   C33   A    
C13   C15   A    
C25   C26   A    
C38   C43   A    
C10   C16   A    
C27   C37   S    
C40   C50   S    
C55   H34   S    
C19   H11   S    
C33   C35   A    
N10   N12   A    
N14   Ni4   S    
C11   N7    A    
C45   H38   S    
C7    H3    S    
C63   C64   A    
C31   C37   A    
C6    H2    S    
C20   C21   A    
N9    N14   A    
C48   H28   S    
C21   H13   S    
C27   C28   A    
C6    N2    A    
N16   Ni1   S    
C2    C62   A    
C3    C59   S    
