data_mof_unit_4667.cif
_audit_creation_date              2012-12-10T18:50:02-0500
_audit_creation_method            fapswitch 2.2
_symmetry_space_group_name_H-M    P1
_symmetry_Int_Tables_number       1
_space_group_crystal_system       triclinic
_cell_length_a                    10.615006
_cell_length_b                    9.876246
_cell_length_c                    10.6507
_cell_angle_alpha                 90.432428
_cell_angle_beta                  90.515143
_cell_angle_gamma                 89.554429
_cell_volume                      1116.4710488

loop_
_atom_site_label
_atom_site_type_symbol
_atom_type_description
_atom_site_fract_x
_atom_site_fract_y
_atom_site_fract_z
_atom_type_partial_charge
C1    C     C_R   0.260187 0.500502 0.498887 0.989406
C2    C     C_R   0.595093 0.926909 0.558383 0.481635
C3    C     C_R   0.403976 0.928663 0.444782 -0.243382
C4    C     C_R   0.403069 0.072058 0.446511 -0.246547
C5    C     C_R   0.499188 0.499370 0.257748 0.892233
C6    C     C_R   0.739556 0.499677 0.500047 0.928359
C7    C     C_R   0.499562 0.499856 0.742238 0.892972
C8    C     C_3   0.374591 0.566087 0.069672 0.351518
C9    C     C_3   0.502508 0.347753 0.070788 0.355531
C10   C     C_3   0.375720 0.568762 0.924743 -0.474470
C11   C     C_3   0.501073 0.349912 0.927068 -0.451726
C12   C     C_3   0.615398 0.572969 0.929736 -0.417628
C13   C     C_3   0.618629 0.569203 0.073432 -0.394477
C14   C     C_3   0.498949 0.497694 0.121396 -0.032887
C15   C     C_3   0.497836 0.498287 0.878489 0.033323
C16   C     C_3   0.410379 0.804360 0.103256 -0.273783
C17   C     C_3   0.591726 0.139271 0.124558 -0.334079
C18   C     C_3   0.086168 0.222471 0.290542 -0.350880
C19   C     C_3   0.110349 0.795872 0.658056 -0.272081
C20   C     C_3   0.806668 0.118891 0.522844 -0.308032
C21   C     C_3   0.693243 0.884894 0.746506 -0.343542
C22   C     C_R   0.064367 0.420319 0.408286 0.493653
C23   C     C_R   0.064321 0.583923 0.584646 0.449148
C24   C     C_R   0.933635 0.422827 0.408750 -0.335543
C25   C     C_R   0.934614 0.579498 0.586906 -0.264053
C26   C     C_R   0.871600 0.499632 0.499223 -0.146804
C27   C     C_R   0.127377 0.501727 0.497085 -0.244836
C28   C     C_R   0.599161 0.071874 0.551058 0.470274
H1    H     H_    0.327204 0.874976 0.399866 0.192522
H2    H     H_    0.704650 0.513606 0.105133 0.211515
H3    H     H_    0.612884 0.679594 0.899504 0.172070
H4    H     H_    0.702958 0.525840 0.891878 0.180952
H5    H     H_    0.879567 0.368065 0.338519 0.167918
H6    H     H_    0.883075 0.636063 0.657611 0.179020
H7    H     H_    0.468740 0.797385 0.018172 0.134496
H8    H     H_    0.471992 0.826849 0.185199 0.183834
H9    H     H_    0.346889 0.893105 0.091055 0.160856
H10   H     H_    0.559163 0.094642 0.033804 0.141329
H11   H     H_    0.522692 0.118346 0.199704 0.175136
H12   H     H_    0.325452 0.126353 0.403561 0.193489
H13   H     H_    0.681693 0.088679 0.150901 0.178302
H14   H     H_    0.062724 0.167355 0.378069 0.147200
H15   H     H_    0.160101 0.162832 0.241574 0.177927
H16   H     H_    0.003633 0.227563 0.225917 0.179686
H17   H     H_    0.178058 0.852077 0.718466 0.181486
H18   H     H_    0.013866 0.826274 0.687310 0.162603
H19   H     H_    0.127328 0.826642 0.559213 0.157195
H20   H     H_    0.883021 0.187508 0.554347 0.191339
H21   H     H_    0.785848 0.141047 0.422313 0.157854
H22   H     H_    0.843761 0.014113 0.532498 0.179561
H23   H     H_    0.297896 0.494669 0.093721 0.104613
H24   H     H_    0.753007 0.807958 0.793916 0.170753
H25   H     H_    0.597620 0.883021 0.788713 0.141356
H26   H     H_    0.738640 0.983574 0.765799 0.206772
H27   H     H_    0.414894 0.296528 0.103046 0.063849
H28   H     H_    0.292323 0.513184 0.887306 0.166624
H29   H     H_    0.417076 0.293676 0.892039 0.139417
H30   H     H_    0.366575 0.672688 0.886720 0.214763
H31   H     H_    0.586104 0.296412 0.890376 0.231699
H32   H     H_    0.628730 0.672928 0.112535 0.165402
N1    N     N_R   0.499970 0.857200 0.499970 -0.130873
N2    N     N_R   0.499970 0.142800 0.499970 -0.127868
O1    O     O_R   0.316750 0.614620 0.499990 -0.599617
O2    O     O_3   0.613086 0.279709 0.114359 -0.578564
O3    O     O_3   0.133467 0.353229 0.315739 -0.605757
O4    O     O_3   0.130989 0.655872 0.675310 -0.611783
O5    O     O_3   0.700555 0.142595 0.599379 -0.591082
O6    O     O_3   0.690370 0.854111 0.616952 -0.592098
O7    O     O_R   0.316750 0.385380 0.499990 -0.614855
O8    O     O_R   0.499970 0.614670 0.314790 -0.609161
O9    O     O_R   0.499970 0.385330 0.314790 -0.601063
O10   O     O_R   0.683220 0.614710 0.500010 -0.575521
O11   O     O_R   0.683220 0.385290 0.500010 -0.571024
O12   O     O_R   0.500010 0.614660 0.685200 -0.603319
O13   O     O_R   0.500010 0.385340 0.685200 -0.615126
O14   O     O_3   0.335497 0.689854 0.128311 -0.575292
Zn1   Zn    Zn3+2 0.499980 0.653120 0.500000 0.994138
Zn2   Zn    Zn3+2 0.499980 0.346880 0.500000 0.994024

loop_
_geom_bond_atom_site_label_1
_geom_bond_atom_site_label_2
_ccdc_geom_bond_type
C5    O9    A    
C9    O2    S    
C20   O5    S    
C19   H18   S    
C13   H32   S    
C18   O3    S    
C6    O10   A    
O10   Zn1   S    
C23   O4    S    
C10   H30   S    
C24   C26   A    
C2    O6    S    
C10   C15   S    
C18   H14   S    
C16   H7    S    
C21   H26   S    
C19   H19   S    
C4    N2    A    
C8    O14   S    
C19   O4    S    
C17   H11   S    
C3    H1    S    
C20   H22   S    
C11   C15   S    
C4    H12   S    
N1    Zn1   S    
O12   Zn1   S    
O11   Zn2   S    
C9    H27   S    
C23   C27   A    
C10   H28   S    
C2    N1    A    
C16   H9    S    
C7    C15   S    
C13   C14   S    
C12   H4    S    
O8    Zn1   S    
O7    Zn2   S    
C11   H31   S    
C1    O1    A    
C7    O12   A    
C3    N1    A    
C13   H2    S    
C21   H24   S    
C28   O5    S    
C7    O13   A    
C25   C26   A    
C1    O7    A    
C9    C14   S    
C22   O3    S    
C20   H21   S    
C18   H16   S    
C12   C15   S    
C9    C11   S    
C8    H23   S    
C5    C14   S    
C20   H20   S    
C22   C27   A    
C21   O6    S    
C22   C24   A    
C3    C4    A    
C6    O11   A    
O1    Zn1   S    
C8    C14   S    
C16   O14   S    
N2    Zn2   S    
C5    O8    A    
C19   H17   S    
C25   H6    S    
C24   H5    S    
C12   H3    S    
C18   H15   S    
C16   H8    S    
C21   H25   S    
C6    C26   S    
C17   H10   S    
C23   C25   A    
O13   Zn2   S    
C17   H13   S    
C12   C13   S    
C8    C10   S    
C1    C27   S    
C2    C28   A    
C17   O2    S    
C11   H29   S    
O9    Zn2   S    
C28   N2    A    
