data_mof_unit_724.cif
_audit_creation_date              2013-03-05T16:33:47-0500
_audit_creation_method            fapswitch 2.2
_symmetry_space_group_name_H-M    P1
_symmetry_Int_Tables_number       1
_space_group_crystal_system       triclinic
_cell_length_a                    15.978012
_cell_length_b                    10.858386
_cell_length_c                    9.596744
_cell_angle_alpha                 91.170665
_cell_angle_beta                  90.172168
_cell_angle_gamma                 90.790105
_cell_volume                      1664.47635368

loop_
_atom_site_label
_atom_site_type_symbol
_atom_site_description
_atom_site_fract_x
_atom_site_fract_y
_atom_site_fract_z
_atom_type_partial_charge
O1    O     O_R   0.500000 0.319640 0.618810 -0.583352
O2    O     O_R   0.500010 0.319680 0.381230 -0.547787
C1    C     C_R   0.499055 0.262658 0.498827 0.811552
O3    O     O_R   0.380300 0.499950 0.618760 -0.587777
O4    O     O_R   0.380310 0.499990 0.381180 -0.524791
C2    C     C_R   0.341327 0.501813 0.499765 0.841037
Cu1   Cu    Cu3+1 0.500000 0.499980 0.640670 0.950797
Cu2   Cu    Cu3+1 0.500000 0.500020 0.359330 0.993991
O5    O     O_R   0.499990 0.680320 0.618770 -0.575284
O6    O     O_R   0.500000 0.680360 0.381190 -0.594463
O7    O     O_R   0.619690 0.500010 0.618820 -0.577738
O8    O     O_R   0.619700 0.500050 0.381240 -0.578447
C3    C     C_R   0.499798 0.737537 0.500964 0.785440
C4    C     C_R   0.658498 0.501136 0.500169 0.815693
C5    C     C_R   0.954993 0.524819 0.620817 -0.253095
H1    H     H_    0.920169 0.530276 0.717053 0.147070
C6    C     C_R   0.912118 0.512641 0.494399 0.090217
C7    C     C_R   0.956575 0.508966 0.367734 0.012299
C8    C     C_R   0.044271 0.514478 0.371751 -0.235751
H2    H     H_    0.079308 0.509664 0.276101 0.142767
C9    C     C_R   0.087260 0.523898 0.498654 0.085518
C10   C     C_R   0.042304 0.532512 0.624113 0.015114
C11   C     C_1   0.822483 0.508584 0.497713 -0.068191
C12   C     C_1   0.177122 0.517170 0.498564 -0.039687
C13   C     C_1   0.252137 0.509714 0.499134 -0.129846
C14   C     C_1   0.747491 0.504887 0.499892 -0.178186
C15   C     C_R   0.502009 0.067408 0.622188 0.111695
C16   C     C_R   0.493370 0.129627 0.497874 -0.093305
C17   C     C_R   0.476191 0.060968 0.375166 -0.186142
H3    H     H_    0.466194 0.105749 0.277075 0.204294
C18   C     C_R   0.475473 0.932261 0.377377 -0.230856
H4    H     H_    0.463534 0.881546 0.280842 0.168432
C19   C     C_R   0.494502 0.870771 0.501374 -0.115784
C20   C     C_R   0.506236 0.941461 0.623166 0.090546
C21   C     C_3   0.568865 0.945421 0.741139 -0.215067
C22   C     C_3   0.562915 0.085408 0.738869 -0.488116
H5    H     H_    0.540631 0.908429 0.837538 0.143196
H6    H     H_    0.532944 0.125242 0.833661 0.195905
H7    H     H_    0.620909 0.134531 0.705647 0.196361
C23   C     C_R   0.570665 0.530770 0.074590 0.202036
N1    N     N_R   0.500520 0.500930 0.147930 -0.247678
C24   C     C_R   0.434271 0.451276 0.071229 0.395367
C25   C     C_R   0.433884 0.454581 0.923145 -0.136837
H8    H     H_    0.380450 0.417765 0.865893 0.184711
N2    N     N_R   0.500520 0.500890 0.852020 -0.212893
C26   C     C_R   0.570983 0.529123 0.927786 0.231559
C27   C     C_3   0.619402 0.646586 0.924618 -0.476649
C28   C     C_3   0.618924 0.648878 0.082969 -0.491232
H9    H     H_    0.682604 0.634451 0.879018 0.208498
H10   H     H_    0.581842 0.719952 0.878693 0.209108
H11   H     H_    0.682130 0.637181 0.129198 0.212955
H12   H     H_    0.582156 0.725847 0.128682 0.204047
C29   C     C_R   0.084499 0.552478 0.759448 0.102952
C30   C     C_R   0.128085 0.663307 0.788058 -0.151821
C31   C     C_R   0.164000 0.685074 0.919306 -0.152936
C32   C     C_R   0.157092 0.596049 0.021779 -0.070035
C33   C     C_R   0.115225 0.484382 0.992469 -0.070483
C34   C     C_R   0.078105 0.463178 0.862344 -0.147792
H13   H     H_    0.132930 0.733383 0.709649 0.129678
H14   H     H_    0.196880 0.771043 0.941744 0.138348
H15   H     H_    0.184745 0.613380 0.123500 0.152239
H16   H     H_    0.111268 0.413893 0.070218 0.152606
H17   H     H_    0.044561 0.377346 0.841632 0.135839
N3    N     N_R   0.365771 0.390735 0.137441 0.139954
O9    O     O_R   0.289806 0.423324 0.108849 -0.417336
O10   O     O_R   0.377303 0.284637 0.194102 -0.381984
C35   C     C_R   0.913174 0.501013 0.230984 0.104944
C36   C     C_R   0.856054 0.404496 0.200219 -0.129687
C37   C     C_R   0.814366 0.399111 0.071888 -0.132441
C38   C     C_R   0.829837 0.489223 0.973074 -0.135409
C39   C     C_R   0.886983 0.584914 0.002468 -0.141125
C40   C     C_R   0.928697 0.590786 0.130619 -0.152298
H18   H     H_    0.843974 0.333379 0.275343 0.127137
H19   H     H_    0.770203 0.324924 0.048923 0.128258
H20   H     H_    0.797767 0.484542 0.873581 0.130355
H21   H     H_    0.899357 0.654387 0.925837 0.126145
H22   H     H_    0.972581 0.665770 0.152013 0.129092
C41   C     C_R   0.658140 0.903151 0.715664 0.165975
C42   C     C_R   0.712234 0.899681 0.831373 -0.159194
C43   C     C_R   0.794808 0.861033 0.816210 -0.153614
C44   C     C_R   0.824805 0.826070 0.685046 -0.115117
C45   C     C_R   0.772707 0.832303 0.568457 -0.144930
C46   C     C_R   0.690179 0.871887 0.582910 -0.134558
H23   H     H_    0.689988 0.925802 0.934186 0.130206
H24   H     H_    0.835456 0.858262 0.906432 0.128406
H25   H     H_    0.888657 0.795494 0.673507 0.131049
H26   H     H_    0.796485 0.807192 0.466399 0.133858
H27   H     H_    0.653174 0.879336 0.489567 0.122468

loop_
_geom_bond_atom_site_label_1
_geom_bond_atom_site_label_2
_geom_bond_distance
_ccdc_geom_bond_type
C31   C32   1.396524 A    
N1    C24   1.384324 A    
C21   C22   1.524902 S    
C43   H24   1.081940 S    
C44   C45   1.395872 A    
C33   H16   1.081131 S    
C27   H9    1.110227 S    
C29   C30   1.403871 A    
C23   C26   1.408615 A    
C17   H3    1.080762 S    
O4    C2    1.298903 A    
Cu1   N2    2.028086 S    
C16   C17   1.405141 A    
C8    C9    1.397636 A    
C7    C8    1.402038 A    
C42   H23   1.083404 S    
O7    C4    1.298384 A    
C2    C13   1.428839 S    
C5    H1    1.080658 S    
C32   C33   1.399784 A    
C5    C6    1.394487 A    
C20   C21   1.508311 S    
C11   C14   1.198611 T    
O5    C3    1.301110 A    
C26   C27   1.483492 S    
C41   C46   1.411187 A    
C28   H11   1.111754 S    
C27   C28   1.519386 S    
C36   C37   1.398173 A    
C18   C19   1.410736 A    
C38   C39   1.397578 A    
C10   C29   1.472253 S    
C44   H25   1.082530 S    
C46   H27   1.076876 S    
C31   H14   1.082289 S    
O3    Cu1   1.923460 S    
C19   C20   1.395886 A    
C27   H10   1.102270 S    
C30   H13   1.083201 S    
C5    C10   1.396636 A    
C15   C20   1.370396 A    
C35   C36   1.406354 A    
Cu1   Cu2   2.699957 S    
C12   C13   1.202439 T    
O3    C2    1.299723 A    
C41   C42   1.406543 A    
C36   H18   1.082960 S    
N2    C26   1.366260 A    
C4    C14   1.421963 S    
O1    C1    1.295926 A    
N3    O10   1.299118 A    
Cu1   O7    1.924492 S    
C25   H8    1.081398 S    
C3    C19   1.450263 S    
C40   H22   1.083190 S    
C18   H4    1.083091 S    
Cu2   O8    1.923456 S    
C6    C7    1.409880 A    
C37   H19   1.082385 S    
C6    C11   1.432729 S    
Cu2   N1    2.029020 S    
C25   N2    1.362343 A    
C23   N1    1.364012 A    
O8    C4    1.296939 A    
C24   C25   1.422306 A    
C24   N3    1.426609 S    
C38   H20   1.082206 S    
C35   C40   1.404488 A    
C34   H17   1.083238 S    
Cu1   O5    1.973715 S    
C30   C31   1.396920 A    
C1    C16   1.445944 S    
C21   H5    1.110585 S    
O1    Cu1   1.965140 S    
C22   H7    1.113500 S    
O2    Cu2   1.973713 S    
C43   C44   1.395497 A    
O6    C3    1.295222 A    
O4    Cu2   1.924492 S    
C29   C34   1.400989 A    
C15   C22   1.489414 S    
C21   C41   1.523386 S    
N3    O9    1.299058 A    
C8    H2    1.077339 S    
C22   H6    1.111846 S    
O2    C1    1.298310 A    
C7    C35   1.482857 S    
C39   C40   1.396953 A    
C17   C18   1.398042 A    
C33   C34   1.394358 A    
C39   H21   1.080930 S    
C37   C38   1.396570 A    
C42   C43   1.397130 A    
C28   H12   1.111843 S    
Cu2   O6    1.965140 S    
C45   C46   1.398948 A    
C9    C12   1.438684 S    
C15   C16   1.390418 A    
C32   H15   1.082216 S    
C9    C10   1.405977 A    
C23   C28   1.487909 S    
C45   H26   1.082655 S    
