data_mof_unit_2683.cif
_audit_creation_date              2012-12-10T20:35:50-0500
_audit_creation_method            fapswitch 2.2
_symmetry_space_group_name_H-M    P1
_symmetry_Int_Tables_number       1
_space_group_crystal_system       triclinic
_cell_length_a                    15.718666
_cell_length_b                    10.671203
_cell_length_c                    9.882842
_cell_angle_alpha                 89.841506
_cell_angle_beta                  90.560701
_cell_angle_gamma                 90.275427
_cell_volume                      1657.61435884

loop_
_atom_site_label
_atom_site_type_symbol
_atom_type_description
_atom_site_fract_x
_atom_site_fract_y
_atom_site_fract_z
_atom_type_partial_charge
C1    C     C_R   0.503567 0.260132 0.500300 0.990849
C2    C     C_3   0.952424 0.462731 0.641603 0.331028
C3    C     C_3   0.917285 0.505967 0.500370 -0.189667
C4    C     C_3   0.950712 0.642425 0.477329 0.238618
C5    C     C_3   0.049310 0.643477 0.475595 1.122834
C6    C     C_1   0.825778 0.504379 0.501609 0.150364
C7    C     C_1   0.174505 0.508025 0.497723 0.169803
C8    C     C_1   0.249749 0.505872 0.498443 -0.099812
C9    C     C_R   0.503958 0.063381 0.622205 -0.285008
C10   C     C_R   0.518288 0.128983 0.502871 -0.277334
C11   C     C_R   0.550407 0.065970 0.389517 0.550811
C12   C     C_R   0.338442 0.501719 0.499524 0.893924
C13   C     C_R   0.552845 0.935556 0.389993 0.397807
C14   C     C_R   0.518945 0.870903 0.502305 -0.298507
C15   C     C_R   0.502020 0.935772 0.620830 -0.142604
C16   C     C_3   0.431008 0.926627 0.722292 0.823886
C17   C     C_3   0.433571 0.071871 0.725130 0.936691
C18   C     C_R   0.429086 0.533369 0.070032 -0.039217
C19   C     C_R   0.571911 0.473162 0.073345 -0.159468
C20   C     C_R   0.571968 0.472696 0.929922 0.631842
C21   C     C_R   0.429229 0.534212 0.927744 -0.074783
C22   C     C_3   0.342312 0.476664 0.919999 0.838081
C23   C     C_R   0.503845 0.739756 0.499957 0.951417
C24   C     C_3   0.343266 0.472495 0.074876 0.848314
C25   C     C_R   0.661643 0.500331 0.500527 0.852554
C26   C     C_3   0.051120 0.457553 0.635491 -0.669920
C27   C     C_3   0.049674 0.420579 0.382767 0.336869
C28   C     C_3   0.951406 0.412113 0.390796 0.237957
C29   C     C_1   0.750473 0.502428 0.501686 -0.114074
C30   C     C_3   0.083095 0.508097 0.497186 -0.167604
H1    H     H_    0.078647 0.513788 0.720105 0.260194
H2    H     H_    0.933991 0.534837 0.717751 0.188742
H3    H     H_    0.925710 0.683475 0.382393 0.105618
H4    H     H_    0.629490 0.449491 0.128191 0.184362
H5    H     H_    0.073399 0.359499 0.650341 0.220401
H6    H     H_    0.076643 0.325093 0.398034 0.089233
H7    H     H_    0.939061 0.317287 0.433606 0.181015
N1    N     N_R   0.499430 0.499140 0.142800 -0.107725
N2    N     N_R   0.499430 0.499180 0.857150 -0.128697
O1    O     O_R   0.500010 0.316790 0.614690 -0.584697
O2    O     O_R   0.500000 0.316760 0.385350 -0.550967
O3    O     O_R   0.377150 0.500020 0.614720 -0.551978
O4    O     O_R   0.377140 0.499990 0.385380 -0.579797
O5    O     O_R   0.500000 0.683240 0.614650 -0.573439
O6    O     O_R   0.499990 0.683210 0.385310 -0.585860
O7    O     O_R   0.622860 0.500010 0.614620 -0.550028
O8    O     O_R   0.622850 0.499980 0.385280 -0.642006
Zn1   Zn    Zn3+2 0.500010 0.500020 0.653130 1.098012
Zn2   Zn    Zn3+2 0.499990 0.499980 0.346870 1.047174
O9    O     O_3   0.918932 0.342865 0.675760 -0.602504
C31   C     C_3   0.913253 0.329241 0.817465 -0.201252
H8    H     H_    0.862822 0.391031 0.858007 0.180736
H9    H     H_    0.975250 0.348818 0.868735 0.165386
H10   H     H_    0.895195 0.230990 0.840812 0.211496
F1    F     F_    0.575326 0.129023 0.276915 -0.639819
O10   O     O_3   0.578542 0.873553 0.274900 -0.563988
C32   C     C_3   0.665057 0.842164 0.291128 -0.180586
H11   H     H_    0.685708 0.790538 0.199965 0.181591
H12   H     H_    0.675383 0.779507 0.380012 0.127070
H13   H     H_    0.705484 0.927728 0.300321 0.179810
O11   O     O_3   0.355616 0.863779 0.674184 -0.618027
C33   C     C_3   0.318339 0.910554 0.553268 -0.178032
H14   H     H_    0.361335 0.966592 0.488404 0.129648
H15   H     H_    0.261735 0.967350 0.578470 0.231557
H16   H     H_    0.295803 0.829750 0.492037 0.202043
O12   O     O_3   0.462628 0.870713 0.842930 -0.637585
C34   C     C_3   0.398061 0.861342 0.940998 -0.095382
H17   H     H_    0.353146 0.784250 0.915369 0.234915
H18   H     H_    0.362360 0.950254 0.953220 0.170915
H19   H     H_    0.428024 0.838412 0.040062 0.190314
F2    F     F_    0.362095 0.129141 0.671497 -0.713446
O13   O     O_3   0.453709 0.123634 0.854984 -0.586870
C35   C     C_3   0.541708 0.133910 0.884224 -0.165189
H20   H     H_    0.572485 0.204303 0.817685 0.192761
H21   H     H_    0.574337 0.042167 0.876553 0.180404
H22   H     H_    0.549573 0.166989 0.989918 0.235982
F3    F     F_    0.644350 0.440973 0.865684 -0.669829
F4    F     F_    0.284450 0.560880 0.864136 -0.652707
O14   O     O_3   0.343186 0.357156 0.858053 -0.575627
C36   C     C_3   0.259856 0.316183 0.824674 -0.056437
H23   H     H_    0.207980 0.365995 0.877976 0.125051
H24   H     H_    0.254063 0.215367 0.850793 0.191532
H25   H     H_    0.249307 0.326152 0.714131 0.174713
F5    F     F_    0.283989 0.550612 0.134828 -0.627754
O15   O     O_3   0.348910 0.349705 0.129798 -0.624483
C37   C     C_3   0.269099 0.307143 0.175629 -0.096409
H26   H     H_    0.216424 0.328267 0.103681 0.168372
H27   H     H_    0.254899 0.348252 0.275619 0.190017
H28   H     H_    0.271765 0.203934 0.188367 0.154649
F6    F     F_    0.077021 0.460828 0.256982 -0.603271
O16   O     O_3   0.908843 0.405220 0.262714 -0.572987
C38   C     C_3   0.898937 0.520585 0.194787 -0.144800
H29   H     H_    0.957477 0.578663 0.194856 0.229530
H30   H     H_    0.843842 0.572519 0.235336 0.118552
H31   H     H_    0.883639 0.500620 0.087227 0.173881
F7    F     F_    0.080641 0.720988 0.577318 -0.595936
F8    F     F_    0.077156 0.691364 0.353043 -0.625895
F9    F     F_    0.921645 0.720855 0.578652 -0.617316

loop_
_geom_bond_atom_site_label_1
_geom_bond_atom_site_label_2
_ccdc_geom_bond_type
C23   O6    A    
C4    F9    S    
C18   C21   A    
C35   H20   S    
C19   C20   A    
C3    C6    S    
C7    C8    T    
O8    Zn2   S    
N1    Zn2   S    
O15   C37   S    
C20   F3    S    
C18   C24   S    
C3    C28   S    
C22   O14   S    
C12   O4    A    
C37   H27   S    
C32   H12   S    
C15   C16   S    
O10   C32   S    
C27   F6    S    
C2    H2    S    
C12   O3    A    
C2    O9    S    
C1    O1    A    
C16   C17   S    
C33   H15   S    
C24   O15   S    
C25   O8    A    
C13   O10   S    
O12   C34   S    
C26   H1    S    
C7    C30   S    
C21   C22   S    
C27   C30   S    
C35   H21   S    
C36   H25   S    
O2    Zn2   S    
C25   C29   S    
O7    Zn1   S    
C31   H8    S    
C22   F4    S    
C36   H24   S    
O16   C38   S    
C20   N2    A    
C37   H26   S    
C36   H23   S    
C32   H13   S    
C18   N1    A    
C37   H28   S    
C38   H31   S    
C23   O5    A    
C34   H17   S    
C31   H9    S    
C14   C23   S    
C33   H14   S    
C19   N1    A    
C21   N2    A    
O6    Zn2   S    
C8    C12   S    
C38   H30   S    
O9    C31   S    
C2    C26   S    
O3    Zn1   S    
C1    O2    A    
C5    F8    S    
C17   F2    S    
C35   H22   S    
C22   C24   S    
C16   O12   S    
C16   O11   S    
C3    C4    S    
C5    F7    S    
C11   F1    S    
C5    C30   S    
C9    C10   A    
C9    C17   S    
O1    Zn1   S    
C4    H3    S    
C33   H16   S    
O4    Zn2   S    
C1    C10   S    
O13   C35   S    
C19   H4    S    
C26   C30   S    
C27   H6    S    
C34   H19   S    
C31   H10   S    
C2    C3    S    
C9    C15   A    
C11   C13   A    
C32   H11   S    
C28   H7    S    
C38   H29   S    
C28   O16   S    
C24   F5    S    
O11   C33   S    
C10   C11   A    
O14   C36   S    
C26   H5    S    
C4    C5    S    
C6    C29   T    
C17   O13   S    
C27   C28   S    
C14   C15   A    
C34   H18   S    
C13   C14   A    
C25   O7    A    
O5    Zn1   S    
N2    Zn1   S    
