data_mof_unit_666.cif
_audit_creation_date              2012-10-26T21:01:03-0400
_audit_creation_method            fapswitch 2.2
_symmetry_space_group_name_H-M    P1
_symmetry_Int_Tables_number       1
_space_group_crystal_system       triclinic
_cell_length_a                    10.912859
_cell_length_b                    10.86649
_cell_length_c                    9.55122
_cell_angle_alpha                 90.184972
_cell_angle_beta                  90.997743
_cell_angle_gamma                 90.271693
_cell_volume                      1132.4357241

loop_
_atom_site_label
_atom_site_type_symbol
_atom_type_description
_atom_site_fract_x
_atom_site_fract_y
_atom_site_fract_z
_atom_type_partial_charge
C1    C     C_R   0.499681 0.262852 0.499639 0.556453
C2    C     C_R   0.405289 0.450397 0.072378 -0.004259
C3    C     C_R   0.405170 0.450597 0.923645 -0.002266
C4    C     C_R   0.265638 0.501320 0.498330 0.556080
C5    C     C_R   0.601967 0.536019 0.928118 0.152712
C6    C     C_3   0.664525 0.657433 0.919542 -0.268187
C7    C     C_3   0.657675 0.664325 0.078256 -0.152263
C8    C     C_R   0.500031 0.737401 0.500216 0.559193
C9    C     C_R   0.734161 0.491128 0.501545 0.560541
C10   C     C_2   0.933672 0.426470 0.405691 -0.039441
C11   C     C_2   0.865311 0.470556 0.510068 -0.114644
C12   C     C_R   0.501353 0.130504 0.498073 0.025844
C13   C     C_2   0.067437 0.416857 0.427948 -0.071218
C14   C     C_2   0.133648 0.508546 0.490620 -0.039342
C15   C     C_R   0.474477 0.063312 0.616591 0.007881
C16   C     C_1   0.880046 0.380415 0.275608 0.266599
C17   C     C_1   0.778932 0.668040 0.147567 0.229195
C18   C     C_1   0.126427 0.304764 0.380819 0.211911
C19   C     C_1   0.082548 0.627483 0.525439 0.203516
C20   C     C_1   0.310646 0.877796 0.778146 0.230841
C21   C     C_R   0.530765 0.064561 0.375907 -0.135229
C22   C     C_R   0.531055 0.935421 0.376771 -0.138261
C23   C     C_R   0.502105 0.870268 0.499693 0.014821
C24   C     C_R   0.474948 0.939154 0.618070 0.015848
C25   C     C_3   0.432797 0.933933 0.766147 -0.130635
C26   C     C_3   0.430795 0.075736 0.762604 -0.257125
C27   C     C_R   0.601193 0.538521 0.075642 0.183178
Cu1   Cu    Cu3+1 0.499990 0.499980 0.640670 0.966186
Cu2   Cu    Cu3+1 0.500010 0.500020 0.359330 0.988424
H1    H     H_    0.500835 0.119418 0.832805 0.140984
H2    H     H_    0.501825 0.897209 0.841003 0.104379
H3    H     H_    0.337977 0.117452 0.766372 0.148433
H4    H     H_    0.327787 0.411752 0.126205 0.139139
H5    H     H_    0.758650 0.648281 0.877801 0.148468
H6    H     H_    0.607639 0.726746 0.865099 0.139459
H7    H     H_    0.553516 0.112063 0.280210 0.146463
H8    H     H_    0.553884 0.887420 0.281569 0.129565
H9    H     H_    0.327495 0.412001 0.866809 0.129226
H10   H     H_    0.594321 0.736285 0.115907 0.113557
H11   H     H_    0.907820 0.487465 0.612163 0.109286
N1    N     N_R   0.500780 0.500930 0.147930 -0.245872
N2    N     N_R   0.500780 0.500890 0.852020 -0.238272
N3    N     N_1   0.837514 0.343385 0.171842 -0.290824
N4    N     N_1   0.874494 0.672021 0.201884 -0.264056
N5    N     N_1   0.173530 0.215592 0.343384 -0.282468
N6    N     N_1   0.041671 0.722508 0.552709 -0.246107
N7    N     N_1   0.214609 0.833476 0.788164 -0.247343
O1    O     O_R   0.500000 0.319640 0.618810 -0.506676
O2    O     O_R   0.500010 0.319680 0.381230 -0.502906
O3    O     O_R   0.321940 0.499980 0.618760 -0.504264
O4    O     O_R   0.321950 0.500020 0.381180 -0.500016
O5    O     O_R   0.499990 0.680320 0.618770 -0.502230
O6    O     O_R   0.500000 0.680360 0.381190 -0.508653
O7    O     O_R   0.678050 0.499980 0.618820 -0.504332
O8    O     O_R   0.678060 0.500020 0.381240 -0.481292

loop_
_geom_bond_atom_site_label_1
_geom_bond_atom_site_label_2
_ccdc_geom_bond_type
C8    O6    A    
C25   H2    S    
C23   C24   A    
C1    O1    A    
C26   H3    S    
C6    C7    S    
C9    O8    A    
C9    C11   S    
C8    O5    A    
Cu2   O8    S    
C12   C15   A    
C5    C27   A    
C5    N2    A    
Cu1   O7    S    
C2    C3    A    
C17   N4    T    
C3    N2    A    
C21   H7    S    
Cu2   O2    S    
C13   C14   D    
C6    H6    S    
Cu1   O5    S    
C16   N3    T    
C11   H11   S    
C1    C12   S    
Cu1   O3    S    
C13   C18   S    
C12   C21   A    
C2    H4    S    
Cu1   N2    S    
Cu1   Cu2   S    
C26   H1    S    
C10   C11   D    
C4    C14   S    
C5    C6    S    
C19   N6    T    
C20   N7    T    
C20   C25   S    
C2    N1    A    
C18   N5    T    
C8    C23   S    
C7    C27   S    
C24   C25   S    
Cu2   O4    S    
C7    H10   S    
C22   C23   A    
C15   C24   A    
C15   C26   S    
C10   C16   S    
C9    O7    A    
C4    O4    A    
Cu2   N1    S    
C25   C26   S    
C21   C22   A    
C22   H8    S    
C1    O2    A    
C14   C19   S    
Cu1   O1    S    
C6    H5    S    
C3    H9    S    
C4    O3    A    
C27   N1    A    
Cu2   O6    S    
C10   C13   S    
C7    C17   S    
