data_mof_unit_4526.cif
_audit_creation_date              2012-12-11T15:20:17-0500
_audit_creation_method            fapswitch 2.2
_symmetry_space_group_name_H-M    P1
_symmetry_Int_Tables_number       1
_space_group_crystal_system       triclinic
_cell_length_a                    12.899309
_cell_length_b                    13.052906
_cell_length_c                    15.184391
_cell_angle_alpha                 116.979105
_cell_angle_beta                  63.273328
_cell_angle_gamma                 97.63571
_cell_volume                      2026.84519991

loop_
_atom_site_label
_atom_site_type_symbol
_atom_type_description
_atom_site_fract_x
_atom_site_fract_y
_atom_site_fract_z
_atom_type_partial_charge
C1    C     C_R   0.072539 0.816996 0.984531 -0.130774
C2    C     C_R   0.706057 0.427500 0.305986 0.095544
C3    C     C_R   0.637050 0.570327 0.031605 0.151733
C4    C     C_R   0.943723 0.830357 0.324224 0.085601
C5    C     C_R   0.322896 0.580835 0.012724 -0.134242
C6    C     C_R   0.902164 0.200674 0.792187 -0.132473
C7    C     C_R   0.219863 0.435543 0.683983 -0.122995
C8    C     C_R   0.050667 0.257189 0.090104 -0.123124
C9    C     C_R   0.948732 0.172654 0.995291 -0.103731
C10   C     C_R   0.321895 0.519154 0.780768 -0.127301
C11   C     C_R   0.243706 0.479645 0.107794 -0.153898
C12   C     C_R   0.700550 0.403242 0.209656 -0.144882
C13   C     C_R   0.984372 0.299712 0.695778 -0.134377
C14   C     C_R   0.336212 0.542980 0.078173 0.154399
C15   C     C_R   0.922004 0.205202 0.696453 0.086048
C16   C     C_R   0.331902 0.441932 0.676649 0.079615
C17   C     C_R   0.003032 0.154492 0.048869 0.056391
C18   C     C_R   0.911503 0.044032 0.426136 -0.316757
C19   C     C_R   0.900903 0.141477 0.521722 0.635867
C20   C     C_R   0.880112 0.127241 0.615294 -0.049178
C21   C     C_R   0.836056 0.025244 0.621082 -0.241847
C22   C     C_R   0.840812 0.930473 0.527402 -0.162704
C23   C     C_R   0.741080 0.587467 0.956577 -0.162547
C24   C     C_R   0.892504 0.936229 0.426703 0.070520
C25   C     C_R   0.639653 0.432292 0.488326 -0.173910
C26   C     C_R   0.546474 0.431954 0.580991 -0.254605
C27   C     C_R   0.441987 0.390989 0.576227 -0.040108
C28   C     C_R   0.443813 0.321317 0.471842 0.622873
C29   C     C_R   0.536232 0.325548 0.379639 -0.313966
C30   C     C_R   0.629440 0.390355 0.390069 0.077692
C31   C     C_2   0.428686 0.567601 0.112084 -0.199106
C32   C     C_2   0.522258 0.614222 0.062982 -0.201360
C33   C     C_2   0.076188 0.896523 0.856286 -0.217754
C34   C     C_R   0.937516 0.719890 0.315944 -0.129701
C35   C     C_2   0.175759 0.946820 0.843553 -0.130092
C36   C     C_R   0.660626 0.486460 0.053327 -0.115138
C37   C     C_R   0.019315 0.821280 0.220020 -0.131757
C38   C     C_R   0.802625 0.487890 0.304665 -0.144403
C39   C     C_R   0.968735 0.733267 0.891448 -0.152499
C40   C     C_R   0.031922 0.826928 0.917920 0.141624
H1    H     H_    0.140214 0.864087 0.005324 0.088304
H2    H     H_    0.843854 0.147972 0.827832 0.085898
H3    H     H_    0.193274 0.387210 0.619580 0.166907
H4    H     H_    0.091117 0.277909 0.144273 0.102375
H5    H     H_    0.894302 0.114456 0.961039 0.088196
H6    H     H_    0.390546 0.546195 0.806202 0.094138
H7    H     H_    0.219880 0.449219 0.169297 0.098704
H8    H     H_    0.004754 0.338533 0.641316 0.167512
H9    H     H_    0.941659 0.052388 0.350892 0.147109
H10   H     H_    0.809692 0.013052 0.693758 0.134819
H11   H     H_    0.646441 0.343827 0.176059 0.087815
H12   H     H_    0.816283 0.850503 0.533017 0.117916
H13   H     H_    0.713644 0.476360 0.497992 0.115024
H14   H     H_    0.553302 0.475948 0.657681 0.134313
H15   H     H_    0.530542 0.283876 0.302270 0.143457
H16   H     H_    0.430213 0.523877 0.157507 0.129160
H17   H     H_    0.519173 0.662220 0.021642 0.123660
H18   H     H_    0.029348 0.902089 0.814276 0.135301
H19   H     H_    0.229328 0.942237 0.880126 0.123313
H20   H     H_    0.753522 0.645076 0.919959 0.098702
H21   H     H_    0.888054 0.693172 0.379770 0.092200
H22   H     H_    0.600901 0.448962 0.105377 0.092779
H23   H     H_    0.045695 0.890108 0.195760 0.100408
H24   H     H_    0.843759 0.505471 0.357671 0.086775
H25   H     H_    0.942987 0.703257 0.825648 0.093584
H26   H     H_    0.368918 0.645588 0.987687 0.084210
N1    N     N_R   0.037310 0.720000 0.995790 -0.042610
N2    N     N_R   0.946240 0.290860 0.848040 -0.040350
N3    N     N_R   0.146140 0.501160 0.788590 -0.049655
N4    N     N_R   0.025760 0.332690 0.063610 -0.040660
N5    N     N_R   0.962690 0.280000 0.004210 -0.042277
N6    N     N_R   0.209210 0.553840 0.847990 -0.041600
N7    N     N_R   0.175110 0.482040 0.063580 -0.040592
N8    N     N_R   0.996790 0.351810 0.788620 -0.051753
N9    N     N_R   0.790790 0.446160 0.152010 -0.038806
N10   N     N_R   0.824890 0.517960 0.936420 -0.040571
N11   N     N_R   0.003210 0.648190 0.211380 -0.040627
N12   N     N_R   0.774330 0.457010 0.995840 -0.045858
N13   N     N_R   0.053760 0.709140 0.151960 -0.041002
N14   N     N_R   0.853860 0.498840 0.211410 -0.038040
N15   N     N_R   0.974240 0.667310 0.936390 -0.037906
N16   N     N_R   0.225670 0.542990 0.004160 -0.044027
Ni1   Ni    Ni4+2 0.130310 0.630310 0.999970 0.209263
Ni2   Ni    Ni4+2 0.869690 0.369690 0.000030 0.206350
Ni3   Ni    Ni4+2 0.985640 0.509470 0.863740 0.209652
Ni4   Ni    Ni4+2 0.014360 0.490530 0.136260 0.213105
O1    O     O_3   0.923997 0.245691 0.517142 -0.633295
C41   C     C_3   0.817509 0.314191 0.574422 -0.315487
H27   H     H_    0.775442 0.334994 0.663361 0.144426
H28   H     H_    0.756867 0.271640 0.537025 0.161435
H29   H     H_    0.835303 0.396992 0.568647 0.174917
O2    O     O_3   0.350999 0.261362 0.458834 -0.636211
C42   C     C_3   0.345523 0.165914 0.480337 -0.276380
H30   H     H_    0.326039 0.193556 0.567530 0.143605
H31   H     H_    0.427616 0.107686 0.423679 0.143472
H32   H     H_    0.273539 0.115644 0.465957 0.186224

loop_
_geom_bond_atom_site_label_1
_geom_bond_atom_site_label_2
_ccdc_geom_bond_type
O1    C41   S    
N1    Ni1   S    
C33   H18   S    
C11   H7    S    
C19   C20   A    
C23   N10   A    
C2    C12   A    
C9    H5    S    
C37   N13   A    
C26   C27   A    
C42   H30   S    
C18   C24   A    
C28   C29   A    
C25   H13   S    
C19   O1    S    
C34   N11   A    
C4    C24   S    
C11   C14   A    
N9    Ni2   S    
N2    N8    A    
C35   H19   S    
C18   C19   A    
N14   Ni4   S    
C1    C40   A    
C33   C35   D    
C6    C15   A    
C3    C23   A    
C10   H6    S    
N4    N5    A    
C7    H3    S    
C31   H16   S    
N9    N14   A    
C14   C31   S    
C16   C27   S    
C6    N2    A    
C42   H31   S    
C21   C22   A    
C39   H25   S    
C15   C20   S    
C32   H17   S    
C36   H22   S    
C26   H14   S    
C21   H10   S    
C37   H23   S    
C38   H24   S    
N11   N13   A    
C23   H20   S    
C4    C34   A    
C33   C40   S    
N2    Ni2   S    
C9    N5    A    
C39   N15   A    
C11   N7    A    
C39   C40   A    
C29   H15   S    
C25   C26   A    
C34   H21   S    
N3    N6    A    
C29   C30   A    
C2    C38   A    
C31   C32   D    
C41   H29   S    
C20   C21   A    
C28   O2    S    
C41   H27   S    
C5    C14   A    
C9    C17   A    
C7    C16   A    
C41   H28   S    
N11   Ni4   S    
N1    N15   A    
C42   H32   S    
C13   C15   A    
C22   C24   A    
N4    Ni4   S    
N7    N16   A    
C12   H11   S    
N3    Ni3   S    
C22   H12   S    
N5    Ni2   S    
C1    H1    S    
C25   C30   A    
C8    H4    S    
N10   N12   A    
C5    H26   S    
C7    N3    A    
C13   H8    S    
C8    N4    A    
C8    C17   A    
C2    C30   S    
C36   N12   A    
N13   Ni1   S    
C5    N16   A    
C38   N14   A    
C3    C36   A    
O2    C42   S    
C1    N1    A    
N8    Ni3   S    
C3    C32   S    
N7    Ni4   S    
N6    Ni1   S    
N12   Ni2   S    
C4    C37   A    
N16   Ni1   S    
C6    H2    S    
C12   N9    A    
C27   C28   A    
C10   C16   A    
N10   Ni3   S    
N15   Ni3   S    
C18   H9    S    
C13   N8    A    
C10   N6    A    
