data_mof_unit_2630.cif
_audit_creation_date              2013-03-05T15:48:35-0500
_audit_creation_method            fapswitch 2.2
_symmetry_space_group_name_H-M    P1
_symmetry_Int_Tables_number       1
_space_group_crystal_system       triclinic
_cell_length_a                    8.32909
_cell_length_b                    18.818763
_cell_length_c                    19.079194
_cell_angle_alpha                 99.234526
_cell_angle_beta                  94.2351
_cell_angle_gamma                 91.888923
_cell_volume                      2940.66309436

loop_
_atom_site_label
_atom_site_type_symbol
_atom_site_description
_atom_site_fract_x
_atom_site_fract_y
_atom_site_fract_z
_atom_type_partial_charge
P1    P     P_3+3 0.947550 0.663200 0.567530 0.486289
O1    O     O_2   0.118870 0.674530 0.547560 -0.303805
O2    O     O_3   0.870460 0.585330 0.542110 -0.383313
O3    O     O_3   0.354280 0.631750 0.418430 -0.339056
O4    O     O_2   0.239328 0.755798 0.475445 -0.388825
O5    O     O_3   0.970747 0.680978 0.660727 -0.580785
O6    O     O_3   0.300611 0.749388 0.343839 -0.510003
C1    C     C_3   0.402397 0.815880 0.258444 -0.973704
H1    H     H_    0.292788 0.804594 0.221489 0.296696
P2    P     P_3+3 0.354660 0.445020 0.336980 0.520839
P3    P     P_3+3 0.910831 0.592903 0.287942 0.570339
O7    O     O_2   0.180880 0.466650 0.327890 -0.322043
O8    O     O_3   0.939000 0.596010 0.380670 -0.351204
O9    O     O_2   0.053969 0.553967 0.254214 -0.281367
O10   O     O_3   0.319503 0.351463 0.317905 -0.602378
O11   O     O_3   0.934851 0.681401 0.270945 -0.498128
C2    C     C_3   0.886228 0.728912 0.329428 0.350996
H2    H     H_    0.979905 0.734657 0.374708 0.139966
H3    H     H_    0.772468 0.708561 0.347621 0.001770
C3    C     C_3   0.855529 0.802752 0.308370 -0.751587
H4    H     H_    0.787619 0.834479 0.349087 0.151271
C4    C     C_3   0.961210 0.313021 0.303605 0.435040
H5    H     H_    0.066425 0.334148 0.339639 0.144254
C5    C     C_3   0.982103 0.233206 0.273902 -1.112213
H6    H     H_    0.873504 0.210052 0.239347 0.262368
H7    H     H_    0.088846 0.227930 0.241630 0.245575
H8    H     H_    0.002062 0.201363 0.318188 0.274890
Ba1   Ba    Ba6+2 0.152460 0.535140 0.468980 1.648452
C6    C     C_3   0.029261 0.621370 0.688315 0.289566
H9    H     H_    0.134422 0.601211 0.660187 0.128270
H10   H     H_    0.934214 0.577284 0.679992 0.090833
C7    C     C_3   0.082657 0.645467 0.768166 -0.685291
H11   H     H_    0.212887 0.637368 0.778296 0.228937
H12   H     H_    0.065790 0.704136 0.784072 0.249492
C8    C     C_3   0.461096 0.315391 0.305494 0.457863
H13   H     H_    0.563146 0.347178 0.335873 0.148652
C9    C     C_3   0.486866 0.302483 0.225789 -1.148254
H14   H     H_    0.378100 0.274845 0.194195 0.264439
H15   H     H_    0.512936 0.353621 0.206729 0.265219
P4    P     P_3+3 0.862750 0.336790 0.432410 0.493672
O12   O     O_2   0.691430 0.325420 0.452420 -0.339730
O13   O     O_3   0.939830 0.414660 0.457830 -0.357929
O14   O     O_3   0.456020 0.368240 0.581510 -0.372157
O15   O     O_3   0.820704 0.320839 0.339653 -0.601320
P5    P     P_3+3 0.894165 0.401011 0.710534 0.438114
O16   O     O_3   0.374170 0.535780 0.585810 -0.392310
O17   O     O_3   0.871300 0.403980 0.619270 -0.394039
O18   O     O_2   0.756598 0.443726 0.744682 -0.409806
O19   O     O_3   0.852804 0.312530 0.723655 -0.518750
Ba2   Ba    Ba6+2 0.657710 0.464850 0.530960 1.600482
P6    P     P_3+3 0.368814 0.726134 0.426245 0.468340
C10   C     C_3   0.429010 0.754274 0.300481 0.450953
H16   H     H_    0.545654 0.766063 0.331530 -0.020967
H17   H     H_    0.505785 0.823468 0.226749 0.220020
O20   O     O_3   0.436130 0.464210 0.414140 -0.343049
C11   C     C_3   0.574476 0.689527 0.683368 0.515081
H18   H     H_    0.650270 0.656824 0.646510 0.007510
C12   C     C_3   0.681721 0.725194 0.748769 -0.868050
H19   H     H_    0.748687 0.683912 0.772138 0.275316
H20   H     H_    0.771367 0.764268 0.734172 0.205400
H21   H     H_    0.607887 0.754105 0.789532 0.264303
P7    P     P_3+3 0.449474 0.555761 0.675724 0.471396
O21   O     O_2   0.629420 0.533310 0.672080 -0.374823
O22   O     O_3   0.447115 0.649397 0.705599 -0.532539
H22   H     H_    0.781496 0.795815 0.256775 0.232411
C13   C     C_3   0.907815 0.264799 0.667018 0.447489
H23   H     H_    0.835164 0.267976 0.616589 0.147405
H24   H     H_    0.036417 0.276682 0.660420 0.008871
C14   C     C_3   0.890444 0.188205 0.682358 -0.939516
H25   H     H_    0.942356 0.150368 0.640276 0.236045
H26   H     H_    0.955277 0.184236 0.734425 0.263987
H27   H     H_    0.761211 0.172447 0.683564 0.267994
P8    P     P_3+3 0.436088 0.274734 0.573050 0.482480
C15   C     C_3   0.412553 0.306102 0.707841 0.369040
H28   H     H_    0.288460 0.318654 0.689918 0.018905
O23   O     O_2   0.576153 0.243044 0.531225 -0.367405
O24   O     O_3   0.474771 0.252464 0.658267 -0.553798
H29   H     H_    0.490010 0.356451 0.715081 0.144442
H30   H     H_    0.333651 0.318566 0.814047 0.188256
C16   C     C_3   0.404738 0.280452 0.779512 -0.757148
H31   H     H_    0.341829 0.226421 0.772084 0.203723
C17   C     C_R   0.996354 0.953769 0.538554 0.018700
C18   C     C_R   0.074389 0.907878 0.582149 -0.078348
C19   C     C_R   0.226238 0.043876 0.547454 -0.122578
C20   C     C_R   0.062012 0.023067 0.529934 0.056501
C21   C     C_R   0.284261 0.114173 0.547601 -0.132286
C22   C     C_R   0.183396 0.165814 0.525258 -0.036364
C23   C     C_R   0.025044 0.143448 0.496112 0.003517
C24   C     C_R   0.964318 0.071571 0.497958 0.022041
C25   C     C_R   0.237148 0.238630 0.529532 0.247473
C26   C     C_R   0.135031 0.287607 0.503214 -0.410871
C27   C     C_R   0.982005 0.266132 0.469851 0.158250
C28   C     C_R   0.927806 0.192640 0.464819 -0.050307
C29   C     C_R   0.842419 0.929695 0.504272 0.008417
C30   C     C_R   0.783676 0.857091 0.503733 0.008697
C31   C     C_R   0.880947 0.807791 0.534904 -0.029463
C32   C     C_R   0.021588 0.835421 0.576192 -0.152029
H32   H     H_    0.176804 0.343297 0.507466 0.176733
H33   H     H_    0.410042 0.126992 0.564527 0.173887
H34   H     H_    0.084880 0.802105 0.609063 0.204899
C33   C     C_R   0.780828 0.166208 0.428521 -0.048050
C34   C     C_R   0.720813 0.096602 0.430223 -0.180396
C35   C     C_R   0.807212 0.048761 0.467382 0.038444
C36   C     C_R   0.744968 0.978042 0.471619 0.067433
C37   C     C_R   0.585112 0.954735 0.446616 -0.211857
C38   C     C_R   0.626467 0.834336 0.472957 0.012025
C39   C     C_R   0.527365 0.884974 0.447863 -0.185230
C40   C     C_R   0.571873 0.761770 0.468612 0.085289
C41   C     C_R   0.673853 0.712901 0.495988 -0.504853
C42   C     C_R   0.828208 0.733793 0.528568 0.149050
H35   H     H_    0.710115 0.199025 0.398095 0.159781
H36   H     H_    0.403353 0.871375 0.428314 0.162745
H37   H     H_    0.313512 0.005830 0.560257 0.128669
H38   H     H_    0.606736 0.081517 0.400274 0.129608
H39   H     H_    0.499133 0.989761 0.426888 0.133354
C43   C     C_R   0.623842 0.515253 0.295640 -0.316980
C44   C     C_R   0.468839 0.485967 0.273483 0.247537
C45   C     C_R   0.409593 0.482250 0.202231 -0.191655
C46   C     C_R   0.503996 0.509985 0.153698 0.053513
C47   C     C_R   0.656172 0.544514 0.178508 -0.283792
C48   C     C_R   0.715055 0.547749 0.250186 0.257365
C49   C     C_R   0.434789 0.562559 0.043000 -0.138603
C50   C     C_R   0.376370 0.555024 0.971326 -0.122191
C51   C     C_R   0.329647 0.486660 0.931792 0.118844
C52   C     C_R   0.332042 0.426700 0.967140 -0.104103
C53   C     C_R   0.387099 0.434499 0.039410 -0.164100
C54   C     C_R   0.442311 0.502282 0.077592 0.146673
C55   C     C_R   0.139092 0.443591 0.823376 -0.243099
C56   C     C_R   0.093266 0.439420 0.750506 0.227449
C57   C     C_R   0.341885 0.504376 0.734774 0.255595
C58   C     C_R   0.390705 0.507788 0.808106 -0.180146
C59   C     C_R   0.287473 0.477931 0.853090 -0.020709
C60   C     C_R   0.196397 0.468260 0.706792 -0.539313
H40   H     H_    0.472982 0.615561 0.071641 0.136086
H41   H     H_    0.291687 0.456754 0.184465 0.145880
H42   H     H_    0.295504 0.373576 0.938433 0.128884
H43   H     H_    0.390407 0.387229 0.065163 0.126188
H44   H     H_    0.057339 0.422166 0.857197 0.163898
H45   H     H_    0.728627 0.567734 0.142352 0.155357
H46   H     H_    0.159002 0.465965 0.650905 0.169317
H47   H     H_    0.677259 0.509467 0.347421 0.205428
C61   C     C_2   0.438427 0.685912 0.249211 0.548578
H48   H     H_    0.537917 0.679572 0.215579 -0.071158
O25   O     O_2   0.334276 0.638026 0.243942 -0.510283
C62   C     C_2   0.992695 0.605801 0.816463 0.563555
H49   H     H_    0.894054 0.567704 0.795568 0.081307
O26   O     O_2   0.028845 0.617194 0.880587 -0.548135
C63   C     C_2   0.445197 0.243839 0.331164 0.527470
H50   H     H_    0.481702 0.194292 0.299258 -0.019086
O27   O     O_2   0.393850 0.240569 0.389306 -0.584771
H51   H     H_    0.591843 0.268537 0.215774 0.250906
C64   C     C_2   0.506241 0.748368 0.647060 0.403009
H52   H     H_    0.586757 0.786325 0.628187 -0.030166
O28   O     O_2   0.361281 0.755139 0.639643 -0.551128
H53   H     H_    0.389263 0.866522 0.295230 0.259021
C65   C     C_2   0.570225 0.277053 0.815188 0.744540
H54   H     H_    0.646883 0.233707 0.795852 0.052059
O29   O     O_2   0.619807 0.323072 0.865861 -0.592559
C66   C     C_2   0.611645 0.639767 0.496282 0.763651
H55   H     H_    0.529268 0.629031 0.534845 0.001126
O30   O     O_2   0.642763 0.591620 0.449388 -0.568056
C67   C     C_2   0.193227 0.934427 0.643250 0.485485
H56   H     H_    0.285180 0.899434 0.659137 0.061888
O31   O     O_2   0.183522 0.993833 0.679045 -0.566347
C68   C     C_2   0.549737 0.540318 0.838512 0.581117
H57   H     H_    0.626094 0.511936 0.872294 0.051542
O32   O     O_2   0.591832 0.600762 0.830480 -0.591763
H58   H     H_    0.371092 0.602603 0.946119 0.168153
C69   C     C_2   0.007607 0.845553 0.304285 0.768061
H59   H     H_    0.096327 0.855762 0.349777 0.003348
O33   O     O_2   0.029761 0.871613 0.250908 -0.577238
C70   C     C_2   0.943869 0.356056 0.243192 0.569355
H60   H     H_    0.978520 0.335414 0.189638 -0.022842
O34   O     O_2   0.891016 0.416662 0.254930 -0.585201

loop_
_geom_bond_atom_site_label_1
_geom_bond_atom_site_label_2
_geom_bond_distance
_ccdc_geom_bond_type
O14   P8    1.742314 S    
C13   H24   1.107404 S    
C22   C23   1.416300 A    
C53   H43   1.083232 S    
P5    C56   1.846992 S    
C53   C54   1.408167 A    
C17   C29   1.421163 A    
C34   C35   1.415366 A    
C39   H36   1.080066 S    
P7    C57   1.857179 S    
C30   C31   1.423481 A    
C5    H8    1.117567 S    
C55   C56   1.403362 A    
C62   H49   1.081204 S    
C50   C51   1.409862 A    
C11   H18   1.106377 S    
C37   C39   1.387628 A    
Ba1   O16   2.785807 S    
C68   H57   1.085127 S    
O7    Ba1   2.822091 S    
C65   H54   1.087065 S    
C8    C9    1.533206 S    
C9    H14   1.114545 S    
C19   C21   1.392858 A    
P8    C25   1.854226 S    
C6    C7    1.545769 S    
P2    O10   1.750039 S    
P3    O9    1.546581 D    
C13   C14   1.520588 S    
C38   C39   1.399485 A    
C12   H20   1.111770 S    
C2    C3    1.531382 S    
C40   C41   1.407197 A    
C51   C59   1.498066 S    
P1    O1    1.520890 D    
C69   H59   1.085672 S    
C49   C54   1.401817 A    
C14   H26   1.109603 S    
C1    H53   1.102879 S    
C55   H44   1.083004 S    
C45   C46   1.408430 A    
C49   H40   1.083106 S    
P7    O22   1.764047 S    
C62   O26   1.220888 D    
Ba1   Ba2   4.581665 S    
Ba1   O20   2.929792 S    
C4    O15   1.400715 S    
C8    H13   1.094851 S    
P6    C40   1.874278 S    
C15   O24   1.408000 S    
P1    Ba1   3.398058 S    
C11   O22   1.411375 S    
O8    Ba1   2.761033 S    
C11   C64   1.502861 S    
C1    C10   1.524999 S    
C23   C24   1.435104 A    
C12   H21   1.111735 S    
P4    O13   1.568032 S    
C13   H23   1.109192 S    
C29   C36   1.425014 A    
C68   O32   1.215666 D    
C15   C16   1.526442 S    
C24   C35   1.416593 A    
Ba2   O21   2.822239 S    
C69   O33   1.222208 D    
P3    C48   1.854371 S    
C9    H51   1.109700 S    
C55   C59   1.411625 A    
O10   C8    1.396479 S    
C36   C37   1.411824 A    
O3    Ba1   2.768037 S    
O2    Ba2   2.801878 S    
C70   O34   1.228999 D    
C16   C65   1.499493 S    
O17   Ba2   2.761693 S    
C67   O31   1.221390 D    
P5    O17   1.747655 S    
C43   C48   1.392875 A    
O3    P6    1.757815 S    
P1    O5    1.750727 S    
C33   C34   1.392717 A    
C3    H22   1.109107 S    
C5    H6    1.111949 S    
C15   H28   1.109432 S    
C1    H17   1.106405 S    
C26   C27   1.398814 A    
C20   C24   1.421921 A    
C21   C22   1.402092 A    
C1    H1    1.104436 S    
C7    C62   1.501212 S    
C12   H19   1.102922 S    
C31   C42   1.429876 A    
C10   C61   1.494027 S    
C43   H47   1.076392 S    
O19   C13   1.404700 S    
P1    O2    1.568061 S    
C7    H12   1.113468 S    
C14   H27   1.109910 S    
C6    H9    1.106842 S    
C34   H38   1.076961 S    
C30   C38   1.418255 A    
P1    C42   1.897464 S    
P3    O11   1.754924 S    
C66   H55   1.079829 S    
P5    O19   1.750037 S    
C31   C32   1.398273 A    
P7    O21   1.573976 D    
C66   O30   1.215802 D    
C2    H2    1.109833 S    
C47   H45   1.082525 S    
C10   H16   1.096653 S    
C19   C20   1.411116 A    
C21   H33   1.080930 S    
P2    O7    1.521592 D    
O13   Ba2   2.927120 S    
C56   C60   1.395856 A    
C50   H58   1.082858 S    
C52   H42   1.082424 S    
P4    O12   1.521264 D    
C18   C67   1.482705 S    
C64   O28   1.218495 D    
C15   H29   1.112477 S    
C52   C53   1.403662 A    
P8    O23   1.544031 D    
C61   O25   1.217060 D    
C57   C60   1.396088 A    
C28   C33   1.396339 A    
C58   C59   1.422510 A    
C41   C66   1.455533 S    
O12   Ba2   2.838659 S    
C32   H34   1.078639 S    
C70   H60   1.096234 S    
C67   H56   1.084042 S    
P5    O18   1.544791 D    
P2    Ba1   3.391031 S    
C23   C28   1.422957 A    
O2    Ba1   2.926270 S    
C61   H48   1.083116 S    
C37   H39   1.076987 S    
C4    H5    1.094993 S    
C5    H7    1.116459 S    
O16   P7    1.759599 S    
C63   O27   1.227802 D    
C16   H31   1.111830 S    
O6    C10   1.408924 S    
C46   C47   1.418168 A    
O14   Ba2   2.767374 S    
C33   H35   1.074152 S    
C17   C20   1.435922 A    
O16   Ba2   2.928939 S    
Ba2   O20   2.785014 S    
C7    H11   1.107489 S    
C65   O29   1.226368 D    
C57   C58   1.418587 A    
O6    P6    1.758242 S    
C6    H10   1.111801 S    
C19   H37   1.079330 S    
C41   C42   1.401450 A    
P3    O8    1.758695 S    
C25   C26   1.400780 A    
O11   C2    1.406728 S    
C38   C40   1.412689 A    
P4    Ba2   3.398673 S    
Ba1   O13   2.801279 S    
C27   C28   1.426746 A    
C2    H3    1.110075 S    
C11   C12   1.527244 S    
C43   C44   1.395326 A    
C3    C69   1.492242 S    
C4    C5    1.538219 S    
C8    C63   1.509968 S    
C26   H32   1.081878 S    
P2    O20   1.556846 S    
C29   C30   1.434226 A    
C14   H25   1.107545 S    
P4    C27   1.884701 S    
H30   C16   1.110463 S    
P4    O15   1.753766 S    
O5    C6    1.400202 S    
C3    H4    1.103706 S    
C58   C68   1.478151 S    
C60   H46   1.082173 S    
C9    H15   1.102598 S    
C17   C18   1.431017 A    
C18   C32   1.403194 A    
C22   C25   1.415322 A    
C35   C36   1.428880 A    
P2    C44   1.840458 S    
P8    O24   1.753047 S    
C47   C48   1.409494 A    
O4    P6    1.541749 D    
O1    Ba1   2.838137 S    
C64   H52   1.084555 S    
C49   C50   1.400662 A    
C44   C45   1.401639 A    
C63   H50   1.093750 S    
C4    C70   1.512639 S    
C45   H41   1.084949 S    
C51   C52   1.404361 A    
C46   C54   1.486859 S    
