data_mof_unit_2616.cif
_audit_creation_date              2012-12-10T20:38:17-0500
_audit_creation_method            fapswitch 2.2
_symmetry_space_group_name_H-M    P1
_symmetry_Int_Tables_number       1
_space_group_crystal_system       triclinic
_cell_length_a                    9.892692
_cell_length_b                    10.690683
_cell_length_c                    16.691457
_cell_angle_alpha                 90.614351
_cell_angle_beta                  85.154141
_cell_angle_gamma                 89.37541
_cell_volume                      1758.7478937

loop_
_atom_site_label
_atom_site_type_symbol
_atom_type_description
_atom_site_fract_x
_atom_site_fract_y
_atom_site_fract_z
_atom_type_partial_charge
C1    C     C_R   0.500047 0.740104 0.497244 0.874881
C2    C     C_R   0.361475 0.602968 0.772358 -0.200200
C3    C     C_R   0.447922 0.667974 0.158581 -0.157577
C4    C     C_R   0.431523 0.620720 0.235660 -0.208383
C5    C     C_R   0.651055 0.516246 0.214667 -0.199164
C6    C     C_R   0.666341 0.561703 0.136781 -0.175337
C7    C     C_R   0.562885 0.634249 0.107647 0.206977
C8    C     C_2   0.454250 0.639746 0.983218 -0.238079
C9    C     C_2   0.567077 0.654202 0.021109 -0.244259
C10   C     C_R   0.531718 0.542654 0.263456 -0.026038
C11   C     C_R   0.381603 0.937722 0.478822 0.139789
C12   C     C_R   0.480717 0.501561 0.653234 0.857654
C13   C     C_R   0.502410 0.871397 0.483268 -0.104359
C14   C     C_R   0.626795 0.933559 0.471252 -0.222973
C15   C     C_R   0.627497 0.063029 0.470778 -0.232229
C16   C     C_R   0.503811 0.128699 0.482120 -0.105917
C17   C     C_R   0.382288 0.065537 0.477840 0.131107
C18   C     C_3   0.253356 0.076640 0.530974 -0.473842
C19   C     C_3   0.253861 0.935359 0.533072 -0.507234
C20   C     C_R   0.924739 0.601644 0.528390 0.190478
C21   C     C_R   0.934091 0.404841 0.465302 -0.141237
C22   C     C_R   0.077883 0.404853 0.465292 -0.126841
C23   C     C_R   0.501139 0.260061 0.496621 0.880903
C24   C     C_R   0.066915 0.601627 0.527470 0.171123
C25   C     C_3   0.065999 0.658812 0.608755 -0.519861
C26   C     C_3   0.912254 0.663152 0.610702 -0.077027
C27   C     C_R   0.518977 0.505154 0.346953 0.848741
C28   C     C_R   0.466674 0.524346 0.739253 -0.031847
C29   C     C_R   0.565000 0.479279 0.787219 -0.241269
C30   C     C_R   0.562456 0.517962 0.866844 -0.142335
C31   C     C_R   0.460961 0.601766 0.898934 0.203334
C32   C     C_R   0.358100 0.640725 0.852274 -0.179978
H1    H     H_    0.644945 0.416403 0.762647 0.150077
H2    H     H_    0.755670 0.535079 0.098030 0.122538
H3    H     H_    0.722962 0.883551 0.468317 0.166097
H4    H     H_    0.723898 0.110591 0.467760 0.163505
H5    H     H_    0.267245 0.120940 0.590282 0.208305
H6    H     H_    0.168816 0.116073 0.498989 0.195076
H7    H     H_    0.271265 0.898734 0.593482 0.198485
H8    H     H_    0.168714 0.893474 0.503054 0.201519
H9    H     H_    0.884822 0.326932 0.438462 0.139928
H10   H     H_    0.136552 0.327122 0.438231 0.143385
H11   H     H_    0.107790 0.593395 0.652009 0.220177
H12   H     H_    0.341635 0.647119 0.273987 0.154944
H13   H     H_    0.110216 0.752867 0.608717 0.173926
H14   H     H_    0.871991 0.760637 0.608972 0.160567
H15   H     H_    0.731076 0.459084 0.236358 0.146896
H16   H     H_    0.665627 0.653083 0.986900 0.147624
H17   H     H_    0.277433 0.702667 0.877144 0.127450
H18   H     H_    0.368962 0.727655 0.138178 0.126874
H19   H     H_    0.285379 0.639551 0.735707 0.141355
H20   H     H_    0.354633 0.639709 0.015940 0.150099
H21   H     H_    0.638876 0.481321 0.903330 0.129401
N1    N     N_R   0.857140 0.500860 0.500530 -0.101733
N2    N     N_R   0.142780 0.500820 0.500530 -0.098514
O1    O     O_R   0.385310 0.683210 0.499990 -0.614494
O2    O     O_R   0.614650 0.683240 0.500000 -0.622446
O3    O     O_R   0.371780 0.500000 0.615800 -0.615666
O4    O     O_R   0.601120 0.500040 0.615800 -0.610732
O5    O     O_R   0.385350 0.316760 0.500000 -0.617965
O6    O     O_R   0.614690 0.316790 0.500010 -0.624809
O7    O     O_R   0.398880 0.499960 0.384200 -0.617547
O8    O     O_R   0.628220 0.500000 0.384200 -0.614965
Zn1   Zn    Zn3+2 0.346870 0.499980 0.499990 0.940789
Zn2   Zn    Zn3+2 0.653130 0.500020 0.500010 0.941191
C33   C     C_3   0.846163 0.588234 0.680607 -0.785651
H22   H     H_    0.741496 0.623963 0.694696 0.255061
H23   H     H_    0.847723 0.486295 0.666901 0.251435
H24   H     H_    0.899291 0.604360 0.735783 0.218821

loop_
_geom_bond_atom_site_label_1
_geom_bond_atom_site_label_2
_ccdc_geom_bond_type
C10   C27   S    
C33   H23   S    
O1    Zn1   S    
C22   N2    A    
C27   O7    A    
O6    Zn2   S    
C11   C13   A    
C8    H20   S    
O7    Zn1   S    
C31   C32   A    
C21   N1    A    
O5    Zn1   S    
C6    C7    A    
C12   O3    A    
N2    Zn1   S    
C25   H11   S    
O8    Zn2   S    
C17   C18   S    
C18   H6    S    
C5    C10   A    
N1    Zn2   S    
C22   H10   S    
C21   C22   A    
O4    Zn2   S    
C24   N2    A    
C5    H15   S    
C30   C31   A    
C11   C19   S    
C29   C30   A    
C27   O8    A    
C12   C28   S    
C21   H9    S    
C5    C6    A    
C19   H7    S    
C2    C32   A    
C28   C29   A    
C18   H5    S    
C33   H22   S    
C16   C23   S    
C3    C7    A    
C12   O4    A    
O3    Zn1   S    
C23   O5    A    
C30   H21   S    
C1    O1    A    
C32   H17   S    
C33   H24   S    
C1    C13   S    
C19   H8    S    
C26   H14   S    
C4    C10   A    
C15   C16   A    
C26   C33   S    
C16   C17   A    
C25   H13   S    
C15   H4    S    
C23   O6    A    
C24   C25   S    
C9    H16   S    
C20   N1    A    
C18   C19   S    
C2    H19   S    
C14   H3    S    
C7    C9    S    
C20   C24   A    
C14   C15   A    
C11   C17   A    
C2    C28   A    
C4    H12   S    
C25   C26   S    
C13   C14   A    
C8    C31   S    
C3    H18   S    
C3    C4    A    
C6    H2    S    
C29   H1    S    
O2    Zn2   S    
C8    C9    D    
C20   C26   S    
C1    O2    A    
