data_mof_unit_980.cif
_audit_creation_date              2012-12-10T19:10:04-0500
_audit_creation_method            fapswitch 2.2
_symmetry_space_group_name_H-M    P1
_symmetry_Int_Tables_number       1
_space_group_crystal_system       triclinic
_cell_length_a                    10.947467
_cell_length_b                    10.985452
_cell_length_c                    9.625752
_cell_angle_alpha                 91.689462
_cell_angle_beta                  91.327579
_cell_angle_gamma                 91.781735
_cell_volume                      1156.22181065

loop_
_atom_site_label
_atom_site_type_symbol
_atom_type_description
_atom_site_fract_x
_atom_site_fract_y
_atom_site_fract_z
_atom_type_partial_charge
C1    C     C_R   0.494436 0.263073 0.497660 0.801603
C2    C     C_R   0.187532 0.371423 0.969270 -0.235786
C3    C     C_R   0.930441 0.468271 0.378082 -0.199671
C4    C     C_R   0.871473 0.480476 0.504150 -0.097563
C5    C     C_R   0.942459 0.476746 0.627783 0.062650
C6    C     C_R   0.069225 0.485983 0.621802 -0.158030
C7    C     C_R   0.128293 0.485375 0.494912 -0.079443
C8    C     C_R   0.057383 0.466950 0.371301 0.061414
C9    C     C_R   0.914416 0.521735 0.880285 0.245967
C10   C     C_R   0.872727 0.485517 0.008493 -0.181598
C11   C     C_R   0.805803 0.375798 0.020177 -0.149799
C12   C     C_R   0.262395 0.495094 0.497998 0.814300
C13   C     C_R   0.783528 0.300140 0.903247 -0.115111
C14   C     C_R   0.827517 0.333826 0.774877 -0.117152
C15   C     C_R   0.891106 0.445970 0.762207 0.067543
C16   C     C_R   0.473908 0.067065 0.613098 0.125990
C17   C     C_R   0.485947 0.130604 0.492557 -0.075000
C18   C     C_R   0.496540 0.060828 0.368649 -0.183213
C19   C     C_R   0.501091 0.932695 0.372891 -0.185771
C20   C     C_R   0.504472 0.872202 0.501526 -0.119527
C21   C     C_R   0.500323 0.947448 0.621559 0.074529
C22   C     C_3   0.506309 0.960619 0.778832 -0.189709
C23   C     C_R   0.503409 0.737978 0.501727 0.810817
C24   C     C_3   0.467869 0.092068 0.763459 -0.489344
C25   C     C_R   0.522364 0.605070 0.077543 0.255399
C26   C     C_R   0.468600 0.398205 0.070033 -0.058241
C27   C     C_R   0.466842 0.399082 0.922091 -0.075662
C28   C     C_R   0.524048 0.603738 0.930598 0.211536
C29   C     C_3   0.640152 0.673547 0.930431 -0.437151
C30   C     C_3   0.637483 0.680488 0.087740 -0.462326
C31   C     C_R   0.737446 0.493044 0.501577 0.792149
C32   C     C_R   0.189526 0.493127 0.015195 -0.154709
C33   C     C_R   0.149450 0.524073 0.147664 -0.125265
C34   C     C_R   0.109629 0.432692 0.236246 0.000740
C35   C     C_R   0.113425 0.309030 0.192461 0.257491
C36   C     C_R   0.153749 0.279113 0.058450 0.274148
Cu1   Cu    Cu3+1 0.499990 0.499980 0.640670 0.955742
Cu2   Cu    Cu3+1 0.500010 0.500020 0.359330 0.956373
H1    H     H_    0.216527 0.348212 0.865443 0.171211
H2    H     H_    0.769274 0.349440 0.118595 0.155551
H3    H     H_    0.732034 0.215661 0.912101 0.153606
H4    H     H_    0.811364 0.273085 0.685142 0.135281
H5    H     H_    0.501327 0.104473 0.269479 0.157505
H6    H     H_    0.502618 0.881907 0.275290 0.157571
H7    H     H_    0.437790 0.901298 0.830237 0.180287
H8    H     H_    0.372964 0.107948 0.795891 0.231504
H9    H     H_    0.537691 0.162177 0.799281 0.196313
H10   H     H_    0.442427 0.315325 0.120961 0.154810
H11   H     H_    0.221134 0.563652 0.947321 0.188369
H12   H     H_    0.434606 0.318961 0.864941 0.145890
H13   H     H_    0.712375 0.619598 0.885023 0.239708
H14   H     H_    0.625599 0.756713 0.877105 0.214255
H15   H     H_    0.712242 0.633618 0.141114 0.215406
H16   H     H_    0.622211 0.773181 0.130125 0.192052
H17   H     H_    0.147746 0.619123 0.180627 0.173265
H18   H     H_    0.876303 0.452862 0.285364 0.149592
H19   H     H_    0.122098 0.488201 0.717968 0.172420
H20   H     H_    0.889208 0.546808 0.096604 0.156004
N1    N     N_R   0.500790 0.500930 0.147930 -0.192774
N2    N     N_R   0.500790 0.500890 0.852020 -0.188050
O1    O     O_R   0.500000 0.319640 0.618810 -0.598734
O2    O     O_R   0.500010 0.319680 0.381230 -0.595500
O3    O     O_R   0.319640 0.499990 0.618790 -0.589681
O4    O     O_R   0.319650 0.500030 0.381210 -0.571656
O5    O     O_R   0.499990 0.680320 0.618770 -0.579523
O6    O     O_R   0.500000 0.680360 0.381190 -0.584528
O7    O     O_R   0.680350 0.499970 0.618790 -0.573775
O8    O     O_R   0.680360 0.500010 0.381210 -0.595095
C37   C     C_R   0.631998 0.967772 0.849026 0.122313
C38   C     C_R   0.741207 0.957599 0.775525 -0.164926
C39   C     C_R   0.853929 0.965073 0.847136 -0.063947
C40   C     C_R   0.858628 0.981347 0.991803 -0.007166
C41   C     C_R   0.751140 0.994274 0.064967 -0.175350
C42   C     C_R   0.638458 0.988390 0.993905 -0.213626
H21   H     H_    0.739794 0.943522 0.663799 0.143977
H22   H     H_    0.937715 0.956875 0.790583 0.195829
H23   H     H_    0.945339 0.983629 0.047708 0.213228
H24   H     H_    0.754975 0.008122 0.176808 0.161898
H25   H     H_    0.555536 0.998096 0.051707 0.145434
Br1   Br    Br    0.063298 0.182049 0.314639 -0.524002
Br2   Br    Br    0.169327 0.113947 0.994233 -0.574509
Br3   Br    Br    0.986997 0.682586 0.868308 -0.608760

loop_
_geom_bond_atom_site_label_1
_geom_bond_atom_site_label_2
_ccdc_geom_bond_type
C33   H17   S    
C16   C21   A    
C41   C42   A    
C35   C36   A    
C1    O2    A    
C13   H3    S    
C7    C8    A    
C25   C28   A    
C31   O7    A    
C30   H16   S    
C26   C27   A    
Cu1   Cu2   S    
C23   O6    A    
C28   C29   S    
C10   H20   S    
C18   C19   A    
C27   N2    A    
C5    C6    A    
C12   O4    A    
C35   Br1   S    
C2    C32   A    
C34   C35   A    
C40   H23   S    
C2    H1    S    
C19   C20   A    
C16   C17   A    
Cu1   O5    S    
C41   H24   S    
C38   C39   A    
C9    C10   A    
C22   C37   S    
C27   H12   S    
C26   H10   S    
C9    Br3   S    
C14   H4    S    
C16   C24   S    
C13   C14   A    
C6    H19   S    
C37   C38   A    
Cu1   O3    S    
C33   C34   A    
Cu2   O4    S    
C28   N2    A    
C31   O8    A    
C30   H15   S    
Cu1   N2    S    
Cu2   O6    S    
C3    C8    A    
C12   O3    A    
C40   C41   A    
C29   C30   S    
C3    H18   S    
C20   C23   S    
C36   Br2   S    
C17   C18   A    
C37   C42   A    
C8    C34   S    
Cu2   O8    S    
C42   H25   S    
C22   C24   S    
C7    C12   S    
C3    C4    A    
C19   H6    S    
C29   H13   S    
C2    C36   A    
C25   C30   S    
C24   H9    S    
C4    C5    A    
C1    O1    A    
Cu1   O1    S    
C6    C7    A    
C1    C17   S    
C24   H8    S    
C32   C33   A    
C23   O5    A    
C9    C15   A    
C39   C40   A    
C18   H5    S    
C11   C13   A    
C39   H22   S    
Cu1   O7    S    
C11   H2    S    
C32   H11   S    
C5    C15   S    
C4    C31   S    
C10   C11   A    
Cu2   N1    S    
C22   H7    S    
C20   C21   A    
C38   H21   S    
C14   C15   A    
C26   N1    A    
C25   N1    A    
C21   C22   S    
Cu2   O2    S    
C29   H14   S    
