data_mof_unit_18.cif
_audit_creation_date              2013-03-05T15:50:12-0500
_audit_creation_method            fapswitch 2.2
_symmetry_space_group_name_H-M    P1
_symmetry_Int_Tables_number       1
_space_group_crystal_system       triclinic
_cell_length_a                    14.540453
_cell_length_b                    16.096069
_cell_length_c                    9.635963
_cell_angle_alpha                 89.929347
_cell_angle_beta                  87.413037
_cell_angle_gamma                 90.005439
_cell_volume                      2252.94049165

loop_
_atom_site_label
_atom_site_type_symbol
_atom_site_description
_atom_site_fract_x
_atom_site_fract_y
_atom_site_fract_z
_atom_type_partial_charge
O1    O     O_R   0.409820 0.909830 0.618810 -0.606666
O2    O     O_R   0.409820 0.090170 0.618810 -0.597109
O3    O     O_R   0.909820 0.409830 0.618810 -0.597297
O4    O     O_R   0.909820 0.590170 0.618810 -0.606892
O5    O     O_R   0.409840 0.909830 0.381240 -0.570559
O6    O     O_R   0.409840 0.090170 0.381240 -0.578488
O7    O     O_R   0.909840 0.409830 0.381240 -0.578882
O8    O     O_R   0.909840 0.590170 0.381240 -0.569991
C1    C     C_R   0.381141 0.880432 0.503092 0.785265
C2    C     C_R   0.383508 0.121166 0.502245 0.787230
C3    C     C_R   0.883457 0.378862 0.502342 0.787521
C4    C     C_R   0.881391 0.619743 0.502944 0.784952
Cu1   Cu    Cu3+1 0.499990 0.000000 0.640660 0.915964
Cu2   Cu    Cu3+1 0.999990 0.500000 0.640660 0.915841
Cu3   Cu    Cu3+1 0.500010 0.000000 0.359340 0.947920
Cu4   Cu    Cu3+1 0.000010 0.500000 0.359340 0.947643
O9    O     O_R   0.590170 0.090170 0.618760 -0.602370
O10   O     O_R   0.590170 0.909830 0.618760 -0.598902
O11   O     O_R   0.090170 0.590170 0.618760 -0.598209
O12   O     O_R   0.090170 0.409830 0.618760 -0.602840
O13   O     O_R   0.590190 0.090180 0.381190 -0.582539
O14   O     O_R   0.590190 0.909820 0.381190 -0.577856
O15   O     O_R   0.090190 0.590180 0.381190 -0.579432
O16   O     O_R   0.090190 0.409820 0.381190 -0.582669
C5    C     C_R   0.611225 0.124331 0.499399 0.782385
C6    C     C_R   0.610965 0.875788 0.499344 0.778778
C7    C     C_R   0.110929 0.624217 0.499181 0.777845
C8    C     C_R   0.111269 0.375696 0.499503 0.782449
H1    H     H_    0.306475 0.188711 0.282142 0.222162
H2    H     H_    0.319007 0.799394 0.285521 0.214746
H3    H     H_    0.817950 0.700052 0.285023 0.216954
H4    H     H_    0.806910 0.311263 0.282181 0.222272
C9    C     C_R   0.316524 0.214496 0.764187 -0.308290
C10   C     C_R   0.287176 0.810944 0.771976 -0.334506
C11   C     C_R   0.790011 0.690567 0.771692 -0.331314
C12   C     C_R   0.815628 0.285815 0.764551 -0.308436
H5    H     H_    0.387410 0.196580 0.774202 0.192224
H6    H     H_    0.354831 0.832563 0.794392 0.207680
H7    H     H_    0.858104 0.669595 0.793135 0.204265
H8    H     H_    0.886475 0.303749 0.774928 0.192574
C13   C     C_R   0.264925 0.232607 0.886664 0.607508
C14   C     C_R   0.226966 0.798863 0.887552 0.597140
C15   C     C_R   0.730509 0.702156 0.888065 0.596121
C16   C     C_R   0.763714 0.267723 0.886826 0.607368
C17   C     C_R   0.642267 0.734012 0.872563 0.135274
C18   C     C_R   0.670876 0.245930 0.880073 0.105765
C19   C     C_R   0.172025 0.254290 0.880351 0.106350
C20   C     C_R   0.139210 0.766499 0.871027 0.124493
C21   C     C_R   0.618314 0.761821 0.741879 -0.246165
C22   C     C_R   0.635950 0.228802 0.750858 -0.237565
C23   C     C_R   0.136739 0.271349 0.751301 -0.238453
C24   C     C_R   0.116084 0.738796 0.739973 -0.239356
H9    H     H_    0.549399 0.785809 0.731436 0.183988
H10   H     H_    0.564342 0.211088 0.746322 0.178290
H11   H     H_    0.065080 0.288973 0.747117 0.178662
H12   H     H_    0.047450 0.714585 0.728024 0.177903
C25   C     C_R   0.681494 0.757600 0.625975 0.064738
C26   C     C_R   0.692476 0.235144 0.628492 0.062152
C27   C     C_R   0.192958 0.265011 0.628671 0.061806
C28   C     C_R   0.180106 0.743067 0.625122 0.064997
C29   C     C_R   0.276774 0.221845 0.633368 0.020808
C30   C     C_R   0.260863 0.790756 0.635937 0.024352
C31   C     C_R   0.762474 0.710188 0.636004 0.024856
C32   C     C_R   0.776262 0.278346 0.633493 0.020592
C33   C     C_R   0.315902 0.189020 0.506862 -0.098957
C34   C     C_R   0.310441 0.814735 0.510133 -0.097689
C35   C     C_R   0.811032 0.685683 0.509840 -0.095450
C36   C     C_R   0.815755 0.311068 0.507025 -0.099406
C37   C     C_R   0.279507 0.213096 0.380412 -0.164998
C38   C     C_R   0.283948 0.782033 0.382823 -0.167250
C39   C     C_R   0.783602 0.717851 0.382550 -0.171508
C40   C     C_R   0.779669 0.286947 0.380449 -0.164703
H13   H     H_    0.696857 0.801956 0.279373 0.194432
H14   H     H_    0.685214 0.210963 0.278661 0.176262
H15   H     H_    0.184837 0.289130 0.278885 0.175736
H16   H     H_    0.198144 0.697369 0.279566 0.190545
C41   C     C_R   0.713462 0.775495 0.378298 -0.215342
C42   C     C_R   0.708705 0.230053 0.377685 -0.197780
C43   C     C_R   0.208566 0.270025 0.377817 -0.198308
C44   C     C_R   0.213951 0.724293 0.378277 -0.205671
C45   C     C_R   0.666223 0.799848 0.500268 -0.097034
C46   C     C_R   0.668070 0.199715 0.501193 -0.099901
C47   C     C_R   0.168214 0.300381 0.501394 -0.099461
C48   C     C_R   0.165914 0.700314 0.499793 -0.099394
H17   H     H_    0.358430 0.018272 0.142182 0.159880
H18   H     H_    0.858414 0.481741 0.142235 0.159522
C49   C     C_R   0.671432 0.964742 0.123303 0.185857
C50   C     C_R   0.171453 0.535518 0.123079 0.178112
C51   C     C_R   0.737165 0.921059 0.038187 0.188752
C52   C     C_R   0.237157 0.579136 0.037572 0.180199
C53   C     C_R   0.736396 0.933376 0.896194 -0.234960
C54   C     C_R   0.236336 0.566736 0.895673 -0.230535
H19   H     H_    0.794651 0.914752 0.829194 0.164327
H20   H     H_    0.294532 0.585389 0.828487 0.162978
C55   C     C_R   0.664838 0.976686 0.840912 -0.148981
C56   C     C_R   0.164817 0.523285 0.840784 -0.148276
H21   H     H_    0.675932 0.996646 0.735890 0.210808
H22   H     H_    0.175901 0.503168 0.735923 0.209647
C57   C     C_R   0.581778 0.988595 0.918396 0.132999
C58   C     C_R   0.081755 0.511512 0.918350 0.140977
C59   C     C_R   0.583015 0.985464 0.067434 0.095538
C60   C     C_R   0.082995 0.514723 0.067371 0.103732
N1    N     N_R   0.501200 1.000000 0.147910 -0.212799
N2    N     N_R   0.001200 0.500000 0.147910 -0.212993
C61   C     C_R   0.422131 0.010496 0.080911 0.018340
C62   C     C_R   0.922122 0.489515 0.080943 0.019867
C63   C     C_R   0.420840 0.007939 0.933971 0.256774
C64   C     C_R   0.920830 0.492100 0.933989 0.256543
N3    N     N_R   0.501270 1.000000 0.852040 -0.199819
N4    N     N_R   0.001270 0.500000 0.852040 -0.201064
C65   C     C_3   0.326919 0.011048 0.875586 -0.795330
H23   H     H_    0.325839 0.000864 0.763508 0.276211
H24   H     H_    0.282861 0.962648 0.925631 0.242604
H25   H     H_    0.293847 0.070953 0.901535 0.230413
C66   C     C_3   0.826903 0.489088 0.875591 -0.793157
H26   H     H_    0.825869 0.498926 0.763393 0.276245
H27   H     H_    0.793610 0.429330 0.902246 0.230049
H28   H     H_    0.783012 0.537752 0.924975 0.243184
F1    F     F_    0.304000 0.223810 0.011084 -0.713345
F2    F     F_    0.253732 0.820394 0.015795 -0.719867
F3    F     F_    0.758772 0.680468 0.015478 -0.728497
F4    F     F_    0.802447 0.276576 0.011460 -0.713775
C67   C     C_3   0.574009 0.741714 0.993788 -0.800458
H29   H     H_    0.602131 0.718508 0.091741 0.270428
H30   H     H_    0.554404 0.807830 0.008696 0.226168
H31   H     H_    0.511293 0.705293 0.972899 0.219804
C68   C     C_3   0.609901 0.237849 0.009061 -0.779312
H32   H     H_    0.618783 0.292404 0.077606 0.244627
H33   H     H_    0.536103 0.234098 0.984342 0.237673
H34   H     H_    0.627576 0.180199 0.063868 0.224354
C69   C     C_3   0.111356 0.262384 0.009592 -0.781961
H35   H     H_    0.120770 0.208073 0.078693 0.244697
H36   H     H_    0.128815 0.320322 0.063516 0.224207
H37   H     H_    0.037453 0.265627 0.985298 0.236869
C70   C     C_3   0.072072 0.758682 0.993627 -0.771532
H38   H     H_    0.057768 0.821033 0.038773 0.241891
H39   H     H_    0.005807 0.730964 0.963865 0.215071
H40   H     H_    0.101513 0.718344 0.073820 0.243498
C71   C     C_3   0.719101 0.023951 0.217059 -0.721235
H41   H     H_    0.716170 0.002821 0.326355 0.238028
H42   H     H_    0.793634 0.031956 0.189193 0.208435
H43   H     H_    0.693111 0.086562 0.198550 0.222501
C72   C     C_3   0.219190 0.476546 0.217430 -0.718402
H44   H     H_    0.215879 0.497623 0.326656 0.237872
H45   H     H_    0.193661 0.413770 0.199015 0.221996
H46   H     H_    0.293867 0.468960 0.190150 0.209145
C73   C     C_3   0.823064 0.883048 0.094245 -0.874577
H47   H     H_    0.821708 0.883451 0.209341 0.235627
H48   H     H_    0.830582 0.818018 0.058364 0.279123
H49   H     H_    0.884701 0.918498 0.055969 0.231145
C74   C     C_3   0.322860 0.617646 0.093217 -0.881688
H50   H     H_    0.322028 0.616754 0.208296 0.236513
H51   H     H_    0.384742 0.582863 0.054166 0.233111
H52   H     H_    0.329418 0.682927 0.057774 0.277047

loop_
_geom_bond_atom_site_label_1
_geom_bond_atom_site_label_2
_geom_bond_distance
_ccdc_geom_bond_type
C72   H46   1.112378 S    
C58   N4    1.371102 A    
C70   H40   1.109332 S    
C28   C48   1.413905 A    
C20   C70   1.503331 S    
C73   H47   1.108372 S    
O10   C6    1.298434 A    
O3    C3    1.301954 A    
C54   C56   1.378672 A    
C44   C48   1.390284 A    
C69   H37   1.111284 S    
N2    C62   1.354324 A    
C70   H38   1.110250 S    
H4    C40   1.082549 S    
C17   C67   1.503553 S    
O7    C3    1.309765 A    
C61   C63   1.417534 A    
C22   H10   1.082325 S    
Cu1   O10   1.961270 S    
C32   C36   1.423880 A    
C64   C66   1.501221 S    
C7    C48   1.462801 S    
C73   H48   1.106631 S    
C27   C47   1.412746 A    
C26   C46   1.413077 A    
Cu2   N4    2.037776 S    
C33   C37   1.404269 A    
C71   H43   1.093617 S    
C55   C57   1.404210 A    
C67   H30   1.109587 S    
C72   H44   1.105210 S    
C57   N3    1.371215 A    
C72   H45   1.093887 S    
C10   C30   1.420096 A    
C21   C25   1.415444 A    
C28   C30   1.410670 A    
C74   H52   1.107246 S    
O2    Cu1   1.973420 S    
C1    C34   1.474092 S    
Cu1   N3    2.037776 S    
C24   C28   1.415245 A    
O6    Cu3   1.961172 S    
C49   C59   1.454651 A    
C24   H12   1.082353 S    
Cu4   N2    2.036625 S    
Cu3   O14   1.973637 S    
C65   H23   1.093364 S    
C66   H27   1.101629 S    
C10   C14   1.398575 A    
C40   C42   1.380732 A    
C74   H50   1.108498 S    
O15   C7    1.310041 A    
O4    C4    1.297837 A    
C11   C15   1.397774 A    
C15   F3    1.357428 S    
C50   C72   1.504783 S    
C23   H11   1.082392 S    
C36   C40   1.404484 A    
H3    C39   1.083057 S    
Cu4   O16   1.973637 S    
C8    C47   1.468683 S    
C63   N3    1.387168 A    
H18   C62   1.083050 S    
H17   C61   1.083059 S    
C58   C60   1.437876 A    
H2    C38   1.083148 S    
C16   C18   1.399086 A    
C25   C31   1.410129 A    
C51   C73   1.512081 S    
H1    C37   1.082558 S    
C26   C32   1.405462 A    
C4    C35   1.473707 S    
C31   C35   1.433800 A    
C27   C29   1.405408 A    
C30   C34   1.434599 A    
C38   C44   1.380419 A    
C22   C26   1.410128 A    
Cu2   O12   1.961270 S    
C18   C68   1.499319 S    
C67   H29   1.109789 S    
C73   H49   1.111033 S    
O1    C1    1.297844 A    
C65   H24   1.104956 S    
C67   H31   1.110193 S    
C19   C23   1.393473 A    
O12   C8    1.298578 A    
C9    H5    1.078797 S    
C56   H22   1.066730 S    
O1    Cu1   1.973620 S    
C11   H7    1.074855 S    
C68   H33   1.111274 S    
O5    C1    1.315699 A    
C53   H19   1.084133 S    
C42   C46   1.392479 A    
C52   C54   1.382653 A    
C12   H8    1.078817 S    
O8    C4    1.315531 A    
C66   H28   1.104944 S    
C54   H20   1.084140 S    
C17   C21   1.394873 A    
C13   C19   1.399146 A    
N1    C61   1.354223 A    
C14   C20   1.394037 A    
C13   F1    1.356957 S    
C60   N2    1.410372 A    
C15   C17   1.395976 A    
O3    Cu2   1.973620 S    
C9    C29   1.415103 A    
O7    Cu4   1.960604 S    
C57   C59   1.437869 A    
C50   C52   1.418411 A    
C6    C45   1.463072 S    
Cu1   Cu3   2.710775 S    
O14   C6    1.310378 A    
C5    C46   1.468648 S    
Cu2   Cu4   2.710775 S    
C12   C16   1.400595 A    
C51   C53   1.382834 A    
C69   H35   1.110462 S    
O2    C2    1.301670 A    
C39   C41   1.380777 A    
O11   C7    1.298523 A    
C3    C36   1.468862 S    
C71   H41   1.105318 S    
C59   N1    1.410147 A    
C2    C33   1.468870 S    
C70   H39   1.111234 S    
O13   C5    1.313828 A    
C10   H6    1.074606 S    
C63   C65   1.501109 S    
Cu2   O11   1.960699 S    
O16   C8    1.313546 A    
C49   C71   1.504460 S    
C52   C74   1.511841 S    
C69   H36   1.103273 S    
O6    C2    1.310050 A    
C50   C60   1.455070 A    
H16   C44   1.079859 S    
C55   H21   1.066684 S    
Cu4   O15   1.973835 S    
C18   C22   1.393591 A    
Cu1   O9    1.960699 S    
C9    C13   1.400605 A    
C49   C51   1.418238 A    
C68   H34   1.103237 S    
O9    C5    1.298291 A    
C43   C47   1.392624 A    
C71   H42   1.112129 S    
C14   F2    1.357603 S    
C66   H26   1.093256 S    
C34   C38   1.405206 A    
Cu3   O13   1.973835 S    
C62   C64   1.417577 A    
C21   H9    1.082774 S    
C56   C58   1.404055 A    
C16   F4    1.356943 S    
C64   N4    1.387130 A    
C65   H25   1.101520 S    
C35   C39   1.405091 A    
C74   H51   1.111175 S    
O4    Cu2   1.973420 S    
C25   C45   1.414666 A    
O5    Cu3   1.960604 S    
C37   C43   1.380856 A    
C53   C55   1.378988 A    
C29   C33   1.424022 A    
C20   C24   1.395112 A    
C23   C27   1.409985 A    
O8    Cu4   1.961172 S    
C41   C45   1.391081 A    
H14   C42   1.073167 S    
C19   C69   1.499120 S    
H13   C41   1.080808 S    
C11   C31   1.419807 A    
Cu3   N1    2.036625 S    
C12   C32   1.415112 A    
H15   C43   1.073031 S    
C68   H32   1.110469 S    
