data_mof_unit_2243.cif
_audit_creation_date              2012-10-26T18:43:30-0400
_audit_creation_method            fapswitch 2.2
_symmetry_space_group_name_H-M    P1
_symmetry_Int_Tables_number       1
_space_group_crystal_system       triclinic
_cell_length_a                    10.739992
_cell_length_b                    10.796245
_cell_length_c                    9.589488
_cell_angle_alpha                 90.292785
_cell_angle_beta                  88.959325
_cell_angle_gamma                 91.028752
_cell_volume                      1111.54099886

loop_
_atom_site_label
_atom_site_type_symbol
_atom_type_description
_atom_site_fract_x
_atom_site_fract_y
_atom_site_fract_z
_atom_type_partial_charge
C1    C     C_R   0.498646 0.262696 0.499750 0.535308
C2    C     C_R   0.548742 0.938612 0.610349 0.003139
C3    C     C_3   0.681044 0.938306 0.657427 -0.259147
C4    C     C_R   0.259904 0.498963 0.500596 0.543771
C5    C     C_3   0.678299 0.078773 0.657361 -0.129176
C6    C     C_R   0.590028 0.563866 0.072055 0.170046
C7    C     C_R   0.418125 0.429093 0.077761 0.003402
C8    C     C_R   0.415485 0.429770 0.929682 0.095933
C9    C     C_R   0.590827 0.562415 0.924693 0.132146
C10   C     C_3   0.618015 0.697639 0.916740 -0.260052
C11   C     C_3   0.613199 0.700962 0.075059 -0.141547
C12   C     C_3   0.877737 0.498475 0.498113 0.042457
C13   C     C_R   0.500776 0.737568 0.500212 0.543438
C14   C     C_R   0.739937 0.500029 0.499013 0.538777
C15   C     C_3   0.066438 0.375732 0.569583 -0.108120
C16   C     C_3   0.922060 0.376951 0.565107 -0.209209
C17   C     C_3   0.072562 0.609740 0.583288 -0.248267
C18   C     C_3   0.073751 0.506568 0.348211 -0.223274
C19   C     C_3   0.121542 0.496343 0.500233 0.067921
C20   C     C_3   0.688497 0.138060 0.802173 -0.407641
C21   C     C_3   0.117436 0.254927 0.506249 -0.428623
C22   C     C_3   0.306853 0.362412 0.865851 -0.351602
C23   C     C_3   0.929021 0.610864 0.582202 -0.243214
C24   C     C_3   0.736925 0.739081 0.140094 -0.416235
C25   C     C_3   0.931349 0.505261 0.347183 -0.235167
C26   C     C_R   0.546833 0.066598 0.610044 0.042406
C27   C     C_R   0.492783 0.129497 0.500905 -0.003377
C28   C     C_R   0.430754 0.062719 0.396402 -0.171290
C29   C     C_R   0.432125 0.933508 0.396684 -0.165746
C30   C     C_R   0.495655 0.871062 0.501323 0.002299
Cu1   Cu    Cu3+1 0.499990 0.499980 0.640670 0.905603
Cu2   Cu    Cu3+1 0.500010 0.500020 0.359330 0.909956
H1    H     H_    0.110516 0.697156 0.536761 0.110302
H2    H     H_    0.892487 0.608082 0.691547 0.124056
H3    H     H_    0.109256 0.594370 0.300188 0.119716
H4    H     H_    0.108862 0.429694 0.281602 0.120883
H5    H     H_    0.092476 0.376104 0.681023 0.123618
H6    H     H_    0.900083 0.590868 0.296101 0.115383
H7    H     H_    0.897545 0.698765 0.535210 0.100453
H8    H     H_    0.745884 0.899529 0.577365 0.106400
H9    H     H_    0.672574 0.239123 0.795216 0.169229
H10   H     H_    0.619241 0.096782 0.876833 0.142849
H11   H     H_    0.783504 0.124192 0.842358 0.117265
H12   H     H_    0.383952 0.110184 0.313589 0.120751
H13   H     H_    0.349805 0.375544 0.137377 0.116458
H14   H     H_    0.078991 0.174308 0.565473 0.121404
H15   H     H_    0.090810 0.243686 0.395618 0.130037
H16   H     H_    0.220361 0.252911 0.513149 0.139113
H17   H     H_    0.234437 0.430714 0.843057 0.127239
H18   H     H_    0.332713 0.308503 0.772577 0.183702
H19   H     H_    0.263672 0.294464 0.939613 0.055768
H20   H     H_    0.541303 0.750079 0.869876 0.147584
H21   H     H_    0.730478 0.727455 0.254889 0.163879
H22   H     H_    0.814492 0.682898 0.097108 0.119397
H23   H     H_    0.385959 0.882710 0.314111 0.121262
H24   H     H_    0.757195 0.838264 0.117641 0.122628
H25   H     H_    0.104254 0.606714 0.693078 0.118795
H26   H     H_    0.897478 0.424722 0.284578 0.126425
H27   H     H_    0.690372 0.898945 0.762812 0.131200
H28   H     H_    0.741987 0.121637 0.577801 0.126123
H29   H     H_    0.712026 0.715030 0.869744 0.114162
H30   H     H_    0.532538 0.753139 0.117769 0.153788
H31   H     H_    0.884761 0.296503 0.504828 0.109111
H32   H     H_    0.883345 0.368185 0.673190 0.112049
N1    N     N_R   0.500800 0.500930 0.147930 -0.249217
N2    N     N_R   0.500800 0.500890 0.852020 -0.226186
O1    O     O_R   0.500000 0.319640 0.618810 -0.514288
O2    O     O_R   0.500010 0.319680 0.381230 -0.504108
O3    O     O_R   0.317690 0.499960 0.618790 -0.516687
O4    O     O_R   0.317700 0.500000 0.381210 -0.515199
O5    O     O_R   0.499990 0.680320 0.618770 -0.498867
O6    O     O_R   0.500000 0.680360 0.381190 -0.509821
O7    O     O_R   0.682300 0.500000 0.618790 -0.508092
O8    O     O_R   0.682310 0.500040 0.381210 -0.503480

loop_
_geom_bond_atom_site_label_1
_geom_bond_atom_site_label_2
_ccdc_geom_bond_type
Cu1   N2    S    
C8    N2    A    
C11   H30   S    
C10   H20   S    
C6    C9    A    
C4    O4    A    
C20   H9    S    
C7    C8    A    
Cu2   O6    S    
C5    C20   S    
Cu1   O1    S    
C12   C23   S    
C26   C27   A    
C17   C23   S    
C14   O8    A    
C28   C29   A    
Cu2   O8    S    
Cu1   O7    S    
C24   H22   S    
C15   C16   S    
C11   C24   S    
C1    O2    A    
C18   C19   S    
C9    N2    A    
C15   H5    S    
C1    O1    A    
C4    C19   S    
C6    N1    A    
C12   C16   S    
C8    C22   S    
C16   H31   S    
C9    C10   S    
Cu2   O2    S    
C21   H16   S    
Cu1   O5    S    
C18   C25   S    
C17   H1    S    
C4    O3    A    
C14   O7    A    
C13   C30   S    
C6    C11   S    
Cu2   O4    S    
C29   H23   S    
C24   H21   S    
C28   H12   S    
C15   C19   S    
C29   C30   A    
C25   H6    S    
C7    N1    A    
Cu1   Cu2   S    
C15   C21   S    
C23   H2    S    
C2    C26   A    
C22   H17   S    
C12   C14   S    
C3    H8    S    
C10   H29   S    
C25   H26   S    
C7    H13   S    
C20   H11   S    
C21   H14   S    
C18   H3    S    
C5    H28   S    
C3    C5    S    
C20   H10   S    
C13   O6    A    
C24   H24   S    
C13   O5    A    
C22   H18   S    
C12   C25   S    
C2    C30   A    
C2    C3    S    
C23   H7    S    
C17   C19   S    
C10   C11   S    
C5    C26   S    
Cu1   O3    S    
C27   C28   A    
C1    C27   S    
Cu2   N1    S    
C16   H32   S    
C18   H4    S    
C17   H25   S    
C22   H19   S    
C21   H15   S    
C3    H27   S    
