data_mof_unit_4456.cif
_audit_creation_date              2012-12-10T18:42:29-0500
_audit_creation_method            fapswitch 2.2
_symmetry_space_group_name_H-M    P1
_symmetry_Int_Tables_number       1
_space_group_crystal_system       triclinic
_cell_length_a                    8.591414
_cell_length_b                    10.644301
_cell_length_c                    9.854161
_cell_angle_alpha                 89.752969
_cell_angle_beta                  97.655675
_cell_angle_gamma                 90.482767
_cell_volume                      893.090291515

loop_
_atom_site_label
_atom_site_type_symbol
_atom_type_description
_atom_site_fract_x
_atom_site_fract_y
_atom_site_fract_z
_atom_type_partial_charge
C1    C     C_R   0.500865 0.260237 0.500246 0.888611
C2    C     C_R   0.498391 0.739844 0.499651 0.928581
C3    C     C_R   0.202218 0.494421 0.465495 0.859981
C4    C     C_R   0.797995 0.502344 0.534307 0.880055
C5    C     C_2   0.039174 0.471694 0.451756 0.147600
C6    C     C_2   0.960549 0.522388 0.546994 0.161473
C7    C     C_R   0.407170 0.065782 0.396579 -0.387519
C8    C     C_R   0.595266 0.934450 0.602840 -0.378252
C9    C     C_R   0.405568 0.936456 0.393943 0.484578
C10   C     C_R   0.601753 0.063570 0.602144 0.494410
C11   C     C_R   0.498350 0.872273 0.499117 -0.190892
C12   C     C_R   0.503805 0.127993 0.500233 -0.192061
C13   C     C_R   0.599217 0.577328 0.083043 -0.047861
C14   C     C_R   0.400661 0.422781 0.916940 -0.016791
C15   C     C_R   0.599080 0.577377 0.939221 -0.071877
C16   C     C_R   0.400774 0.422748 0.060748 -0.074568
H1    H     H_    0.330887 0.117364 0.319841 0.159874
H2    H     H_    0.668284 0.882922 0.682127 0.181015
H3    H     H_    0.678423 0.639294 0.146355 0.129108
H4    H     H_    0.321210 0.361013 0.853618 0.127106
H5    H     H_    0.678277 0.639339 0.893695 0.136834
H6    H     H_    0.321432 0.360905 0.106196 0.121922
N1    N     N_R   0.499960 0.499970 0.857200 -0.081235
N2    N     N_R   0.500040 0.500030 0.142800 -0.083934
O1    O     O_R   0.499990 0.316750 0.614620 -0.587025
O2    O     O_R   0.500010 0.683250 0.385380 -0.609220
O3    O     O_R   0.499990 0.316780 0.385290 -0.633762
O4    O     O_R   0.500010 0.683220 0.614710 -0.633030
O5    O     O_R   0.271750 0.499990 0.587840 -0.590181
O6    O     O_R   0.728250 0.500010 0.412160 -0.585759
O7    O     O_R   0.271750 0.500010 0.358510 -0.619123
O8    O     O_R   0.728250 0.499990 0.641490 -0.607723
Zn1   Zn    Zn3+2 0.500000 0.499980 0.653120 0.975929
Zn2   Zn    Zn3+2 0.500000 0.500020 0.346880 0.960845
O9    O     O_3   0.964774 0.398664 0.344388 -0.594612
C17   C     C_3   0.037609 0.280273 0.341024 0.088707
H7    H     H_    0.071032 0.240456 0.445682 0.100244
H8    H     H_    0.143749 0.288519 0.288361 0.158563
C18   C     C_3   0.924109 0.188725 0.260554 -0.812048
H9    H     H_    0.891934 0.223539 0.154160 0.267826
H10   H     H_    0.980244 0.095362 0.257250 0.210534
H11   H     H_    0.815873 0.178454 0.310133 0.248509
O10   O     O_3   0.029396 0.602892 0.648907 -0.599164
C19   C     C_3   0.016749 0.727411 0.598026 0.105601
H12   H     H_    0.891768 0.757465 0.582714 0.115289
H13   H     H_    0.066031 0.736835 0.499279 0.143558
C20   C     C_3   0.109172 0.815393 0.700399 -0.790095
H14   H     H_    0.233128 0.784397 0.721455 0.271612
H15   H     H_    0.107221 0.912218 0.658060 0.197862
H16   H     H_    0.056187 0.815771 0.797122 0.244992
O11   O     O_3   0.301405 0.872301 0.298897 -0.615387
C21   C     C_3   0.353381 0.881296 0.169147 0.113249
H17   H     H_    0.480445 0.857992 0.174472 0.138540
H18   H     H_    0.333231 0.977381 0.125852 0.133897
C22   C     C_3   0.260931 0.788128 0.072876 -0.778160
H19   H     H_    0.135033 0.814424 0.056165 0.240085
H20   H     H_    0.307868 0.788072 0.973319 0.204301
H21   H     H_    0.271560 0.692136 0.117354 0.279616
O12   O     O_3   0.699651 0.125697 0.703493 -0.590461
C23   C     C_3   0.842249 0.154317 0.653096 0.093113
H22   H     H_    0.822572 0.221203 0.565556 0.134001
H23   H     H_    0.898156 0.067740 0.619621 0.127690
C24   C     C_3   0.955298 0.215874 0.765734 -0.802694
H24   H     H_    0.980915 0.150355 0.853765 0.246976
H25   H     H_    0.066863 0.240318 0.726097 0.192755
H26   H     H_    0.903140 0.303088 0.800890 0.277991

loop_
_geom_bond_atom_site_label_1
_geom_bond_atom_site_label_2
_ccdc_geom_bond_type
C14   N1    A    
N1    Zn1   S    
C2    O4    A    
O10   C19   S    
C21   C22   S    
C14   C16   A    
C14   H4    S    
C20   H15   S    
O9    C17   S    
C9    O11   S    
C19   C20   S    
C22   H19   S    
C24   H25   S    
C15   N1    A    
C10   O12   S    
C1    O1    A    
C24   H26   S    
O12   C23   S    
C2    O2    A    
C22   H20   S    
C19   H12   S    
C23   H23   S    
C3    O7    A    
C9    C11   A    
C3    O5    A    
C4    O8    A    
C1    C12   S    
C10   C12   A    
C8    C11   A    
C5    C6    D    
C2    C11   S    
C5    O9    S    
C17   H8    S    
C17   H7    S    
C21   H18   S    
O4    Zn1   S    
C20   H16   S    
C7    C9    A    
C6    O10   S    
C13   C15   A    
O3    Zn2   S    
C7    C12   A    
C13   N2    A    
C23   C24   S    
O7    Zn2   S    
C4    C6    S    
C8    H2    S    
C13   H3    S    
O11   C21   S    
O5    Zn1   S    
C15   H5    S    
C21   H17   S    
C18   H10   S    
C16   N2    A    
C22   H21   S    
O1    Zn1   S    
C18   H9    S    
C1    O3    A    
C17   C18   S    
O6    Zn2   S    
C18   H11   S    
C23   H22   S    
C16   H6    S    
C7    H1    S    
O2    Zn2   S    
C8    C10   A    
C4    O6    A    
C20   H14   S    
O8    Zn1   S    
C19   H13   S    
C24   H24   S    
C3    C5    S    
N2    Zn2   S    
