data_mof_unit_4308.cif
_audit_creation_date              2012-12-10T18:18:15-0500
_audit_creation_method            fapswitch 2.2
_symmetry_space_group_name_H-M    P1
_symmetry_Int_Tables_number       1
_space_group_crystal_system       triclinic
_cell_length_a                    14.04749
_cell_length_b                    14.941516
_cell_length_c                    15.290186
_cell_angle_alpha                 89.787541
_cell_angle_beta                  66.572949
_cell_angle_gamma                 90.098692
_cell_volume                      2944.68156401

loop_
_atom_site_label
_atom_site_type_symbol
_atom_type_description
_atom_site_fract_x
_atom_site_fract_y
_atom_site_fract_z
_atom_type_partial_charge
C1    C     C_R   0.500286 0.672654 0.499528 0.907544
C2    C     C_R   0.500623 0.767650 0.499526 -0.180943
C3    C     C_R   0.542414 0.187351 0.412292 0.088236
C4    C     C_R   0.458456 0.812169 0.587112 0.109347
C5    C     C_R   0.543469 0.093986 0.412282 0.098536
C6    C     C_R   0.457846 0.905500 0.587247 0.092852
C7    C     C_R   0.500365 0.046750 0.499903 0.004433
C8    C     C_R   0.500810 0.952842 0.499737 -0.010918
C9    C     C_R   0.457308 0.093106 0.587656 0.070901
C10   C     C_R   0.544285 0.906520 0.412073 0.093255
C11   C     C_R   0.588128 0.046986 0.326347 -0.209528
C12   C     C_R   0.499835 0.327224 0.500261 0.959241
C13   C     C_R   0.414144 0.952329 0.673211 -0.189421
C14   C     C_R   0.588576 0.954448 0.326251 -0.210993
C15   C     C_R   0.414218 0.044786 0.673499 -0.234610
C16   C     C_R   0.434149 0.500512 0.677625 0.915687
C17   C     C_R   0.565700 0.498672 0.322405 0.885808
C18   C     C_R   0.188435 0.425847 0.530904 -0.060247
C19   C     C_R   0.811678 0.574095 0.469001 -0.066932
C20   C     C_R   0.214564 0.574284 0.470376 -0.064014
C21   C     C_R   0.784310 0.426588 0.532216 -0.042519
C22   C     C_R   0.113890 0.576369 0.471099 0.002526
C23   C     C_R   0.372668 0.447823 0.115973 0.174381
C24   C     C_R   0.884135 0.425134 0.533624 -0.006974
C25   C     C_R   0.049415 0.500556 0.502704 0.030111
C26   C     C_R   0.948673 0.500879 0.501895 0.034262
C27   C     C_R   0.086265 0.424193 0.534043 -0.016871
C28   C     C_R   0.912596 0.576666 0.468855 -0.015885
C29   C     C_R   0.077236 0.652146 0.439814 -0.291289
C30   C     C_R   0.920550 0.349565 0.565607 -0.290858
C31   C     C_R   0.977961 0.652693 0.437290 0.214829
C32   C     C_R   0.020743 0.348302 0.566200 0.222441
C33   C     C_R   0.389475 0.494124 0.782352 -0.133107
C34   C     C_R   0.609206 0.418079 0.894360 0.150090
C35   C     C_R   0.608654 0.483320 0.218836 -0.122221
C36   C     C_R   0.250780 0.461441 0.936920 -0.058896
C37   C     C_R   0.733015 0.415029 0.073512 -0.052234
C38   C     C_R   0.283668 0.476000 0.837672 0.160209
C39   C     C_R   0.706862 0.444590 0.168242 0.137236
C40   C     C_R   0.459174 0.495106 0.825901 -0.236571
C41   C     C_R   0.539916 0.492520 0.174867 -0.260506
C42   C     C_R   0.430533 0.467027 0.919676 0.063523
C43   C     C_R   0.559538 0.454853 0.086418 0.054964
C44   C     C_R   0.323928 0.464886 0.980217 -0.057387
C45   C     C_R   0.294590 0.464753 0.080754 0.165739
C46   C     C_R   0.661356 0.426317 0.029309 -0.002406
C47   C     C_R   0.507140 0.446727 0.954497 -0.032862
C48   C     C_R   0.479406 0.450695 0.052904 -0.057570
C49   C     C_3   0.161711 0.515250 0.240534 -0.786756
C50   C     C_3   0.854687 0.464752 0.825816 -0.782769
C51   C     C_3   0.962797 0.725482 0.302762 -0.832313
C52   C     C_3   0.046471 0.270418 0.693737 -0.814537
C53   C     C_3   0.844024 0.509564 0.204646 -0.722190
C54   C     C_3   0.160423 0.553586 0.791049 -0.737318
C55   C     C_1   0.145339 0.431663 0.990470 0.146673
C56   C     C_R   0.686317 0.409068 0.931372 0.137810
C57   C     C_1   0.827400 0.364101 0.027695 0.214670
C58   C     C_3   0.304711 0.317877 0.218849 -0.767231
C59   C     C_3   0.599720 0.298917 0.791326 -0.800014
C60   C     C_3   0.309541 0.254605 0.712190 -0.777249
C61   C     C_3   0.515550 0.746207 0.280280 -0.822918
C62   C     C_3   0.514289 0.254274 0.280325 -0.778483
C63   C     C_3   0.487417 0.744569 0.718514 -0.809042
C64   C     C_R   0.457573 0.186784 0.587221 0.102479
C65   C     C_R   0.543557 0.813129 0.412027 0.111562
C66   C     C_R   0.499883 0.232018 0.499799 -0.166275
H1    H     H_    0.219434 0.368079 0.553045 0.168742
H2    H     H_    0.379293 0.917905 0.741086 0.178408
H3    H     H_    0.624028 0.920845 0.258320 0.181561
H4    H     H_    0.379277 0.077379 0.741887 0.156187
H5    H     H_    0.160991 0.538505 0.109476 0.228802
H6    H     H_    0.084173 0.547353 0.267949 0.242671
H7    H     H_    0.217809 0.563878 0.248154 0.231112
H8    H     H_    0.152622 0.454494 0.284827 0.262336
H9    H     H_    0.796498 0.337338 0.820732 0.229050
H10   H     H_    0.935180 0.442480 0.783167 0.247568
H11   H     H_    0.856506 0.510908 0.881948 0.249786
H12   H     H_    0.781663 0.631199 0.444644 0.171750
H13   H     H_    0.825363 0.501136 0.778113 0.231363
H14   H     H_    0.971891 0.789170 0.418889 0.230399
H15   H     H_    0.047447 0.723604 0.258053 0.244403
H16   H     H_    0.929176 0.785473 0.282870 0.249819
H17   H     H_    0.925252 0.665148 0.288287 0.242173
H18   H     H_    0.026965 0.211022 0.580116 0.228532
H19   H     H_    0.963396 0.269037 0.743060 0.249569
H20   H     H_    0.084165 0.330818 0.707931 0.243443
H21   H     H_    0.084860 0.210396 0.707670 0.246677
H22   H     H_    0.817076 0.373369 0.199464 0.231123
H23   H     H_    0.265026 0.631970 0.445685 0.137903
H24   H     H_    0.895578 0.521269 0.128658 0.235445
H25   H     H_    0.892605 0.497014 0.245652 0.236160
H26   H     H_    0.797040 0.570563 0.233524 0.234227
H27   H     H_    0.160308 0.417278 0.816170 0.224709
H28   H     H_    0.109187 0.574188 0.864515 0.226194
H29   H     H_    0.112505 0.544693 0.748818 0.233111
H30   H     H_    0.218496 0.607082 0.756841 0.241108
H31   H     H_    0.317630 0.448176 0.266408 0.234845
H32   H     H_    0.291349 0.292199 0.291032 0.233556
H33   H     H_    0.360439 0.272905 0.165086 0.245958
H34   H     H_    0.733712 0.369002 0.557037 0.142576
H35   H     H_    0.229785 0.317170 0.210407 0.253737
H36   H     H_    0.703823 0.405834 0.748897 0.232474
H37   H     H_    0.614253 0.284844 0.715840 0.236578
H38   H     H_    0.515531 0.289962 0.835164 0.255505
H39   H     H_    0.644603 0.250647 0.815225 0.228368
H40   H     H_    0.445634 0.214640 0.724271 0.220898
H41   H     H_    0.264427 0.191201 0.726586 0.234424
H42   H     H_    0.289513 0.296141 0.661741 0.265855
H43   H     H_    0.287369 0.291490 0.780203 0.234543
H44   H     H_    0.631079 0.710246 0.325841 0.226308
H45   H     H_    0.126743 0.710564 0.415074 0.145309
H46   H     H_    0.557782 0.714474 0.209856 0.239150
H47   H     H_    0.479473 0.808959 0.269137 0.251185
H48   H     H_    0.453838 0.699553 0.325490 0.246618
H49   H     H_    0.629425 0.291300 0.325937 0.233513
H50   H     H_    0.454880 0.303106 0.323537 0.264718
H51   H     H_    0.475417 0.191728 0.272748 0.245485
H52   H     H_    0.557082 0.283020 0.208164 0.249759
H53   H     H_    0.371778 0.708074 0.673386 0.223904
H54   H     H_    0.549261 0.698657 0.673110 0.256439
H55   H     H_    0.445537 0.712088 0.788962 0.237051
H56   H     H_    0.871091 0.291094 0.590198 0.143741
H57   H     H_    0.523309 0.807490 0.729570 0.250970
H58   H     H_    0.468212 0.528360 0.211629 0.163774
H59   H     H_    0.538083 0.516827 0.785261 0.188715
H60   H     H_    0.623302 0.081328 0.258452 0.182368
N1    N     N_R   0.249980 0.499930 0.499960 -0.104835
N2    N     N_1   0.901890 0.322263 0.990883 -0.192905
N3    N     N_2   0.346780 0.407654 0.207449 -0.296186
N4    N     N_2   0.631434 0.389558 0.799199 -0.308146
N5    N     N_2   0.419728 0.236761 0.673722 -0.312921
N6    N     N_2   0.587437 0.765189 0.324285 -0.312371
N7    N     N_2   0.586140 0.235972 0.324504 -0.322924
N8    N     N_2   0.415161 0.763318 0.674831 -0.316712
N9    N     N_R   0.750020 0.500070 0.500040 -0.102647
N10   N     N_2   0.190747 0.491833 0.141605 -0.292089
N11   N     N_2   0.789855 0.387774 0.868536 -0.304561
N12   N     N_2   0.944833 0.729974 0.402601 -0.312522
N13   N     N_2   0.056232 0.269276 0.595934 -0.319091
N14   N     N_2   0.777356 0.433137 0.213560 -0.287993
N15   N     N_2   0.211560 0.470265 0.793404 -0.292237
N16   N     N_1   0.061335 0.407732 0.034040 -0.196906
O1    O     O_R   0.419720 0.632140 0.499980 -0.632908
O2    O     O_R   0.580280 0.367860 0.500020 -0.629434
O3    O     O_R   0.580270 0.632160 0.499970 -0.634064
O4    O     O_R   0.419730 0.367840 0.500030 -0.626660
O5    O     O_R   0.373870 0.499980 0.632250 -0.578301
O6    O     O_R   0.626130 0.500020 0.367750 -0.584309
O7    O     O_R   0.534420 0.500000 0.632240 -0.612172
O8    O     O_R   0.465580 0.500000 0.367760 -0.622381
Zn1   Zn    Zn3+2 0.392800 0.499980 0.500010 0.928199
Zn2   Zn    Zn3+2 0.607200 0.500020 0.499990 0.937934

loop_
_geom_bond_atom_site_label_1
_geom_bond_atom_site_label_2
_ccdc_geom_bond_type
C59   N4    S    
C34   C56   A    
C23   C45   A    
C22   C29   A    
C53   N14   S    
C1    O3    A    
C17   O8    A    
C58   H32   S    
C2    C65   A    
C50   H13   S    
C57   N2    T    
C50   N11   S    
O1    Zn1   S    
C7    C8    A    
C59   H39   S    
C16   O5    A    
C59   H38   S    
C41   H58   S    
C52   H19   S    
C24   C26   A    
C5    C11   A    
C16   C33   S    
C11   C14   A    
C40   H59   S    
C58   N3    S    
C19   N9    A    
N9    Zn2   S    
C9    C64   A    
C52   N13   S    
C23   N3    S    
C1    C2    S    
C12   O4    A    
H22   N14   S    
C62   H51   S    
C63   H54   S    
C60   H43   S    
C61   N6    S    
N1    Zn1   S    
C30   H56   S    
H18   N13   S    
C22   C25   A    
C53   H25   S    
H44   N6    S    
C16   O7    A    
C43   C48   A    
C51   H15   S    
C54   H30   S    
C60   H42   S    
C40   C42   A    
C55   N16   T    
C41   C43   A    
C42   C44   A    
C60   N5    S    
C63   H55   S    
C28   C31   A    
H40   N5    S    
H53   N8    S    
C62   H52   S    
C58   H33   S    
C33   C40   A    
C63   N8    S    
O6    Zn2   S    
C11   H60   S    
C32   N13   S    
C4    C6    A    
H9    N11   S    
O7    Zn2   S    
H5    N10   S    
C5    C7    A    
C21   H34   S    
C6    C8    A    
H49   N7    S    
C18   H1    S    
C12   C66   S    
C49   H6    S    
C12   O2    A    
C3    N7    S    
C64   C66   A    
C19   H12   S    
C35   C39   A    
C62   H50   S    
C1    O1    A    
C50   H10   S    
C18   N1    A    
C47   C48   A    
C64   N5    S    
C29   C31   A    
C17   O6    A    
C53   H26   S    
C58   H35   S    
C31   N12   S    
C19   C28   A    
C51   H16   S    
C54   H29   S    
C60   H41   S    
C20   N1    A    
C49   N10   S    
C20   C22   A    
C13   C15   A    
C61   H47   S    
C14   H3    S    
C49   H7    S    
C36   C44   A    
C3    C66   A    
C46   C56   A    
C50   H11   S    
C51   H17   S    
C61   H48   S    
C65   N6    S    
H27   N15   S    
C44   C45   A    
C62   N7    S    
C4    N8    S    
C10   C65   A    
C7    C9    A    
C15   H4    S    
C39   N14   S    
C45   N10   S    
C23   C48   A    
C27   C32   A    
C49   H8    S    
C29   H45   S    
C52   H21   S    
C18   C27   A    
H36   N4    S    
C3    C5    A    
C63   H57   S    
C25   C27   A    
C20   H23   S    
C26   C28   A    
C33   C38   A    
C59   H37   S    
C36   C38   A    
C25   C26   A    
H31   N3    S    
C37   C39   A    
C36   C55   S    
C6    C13   A    
C30   C32   A    
C56   N11   S    
H14   N12   S    
C2    C4    A    
C52   H20   S    
C38   N15   S    
C42   C47   A    
C9    C15   A    
C35   C41   A    
C43   C46   A    
C24   C30   A    
C54   H28   S    
O3    Zn2   S    
O4    Zn1   S    
C51   N12   S    
C54   N15   S    
C34   N4    S    
C8    C10   A    
C21   C24   A    
O5    Zn1   S    
C53   H24   S    
O8    Zn1   S    
C34   C47   A    
C17   C35   S    
C37   C46   A    
C61   H46   S    
C21   N9    A    
C37   C57   S    
O2    Zn2   S    
C10   C14   A    
C13   H2    S    
