data_mof_unit_3086.cif
_audit_creation_date              2012-12-11T17:09:38-0500
_audit_creation_method            fapswitch 2.2
_symmetry_space_group_name_H-M    P1
_symmetry_Int_Tables_number       1
_space_group_crystal_system       triclinic
_cell_length_a                    14.792478
_cell_length_b                    6.9453
_cell_length_c                    13.600648
_cell_angle_alpha                 89.999919
_cell_angle_beta                  100.195694
_cell_angle_gamma                 90.000342
_cell_volume                      1375.24107925

loop_
_atom_site_label
_atom_site_type_symbol
_atom_type_description
_atom_site_fract_x
_atom_site_fract_y
_atom_site_fract_z
_atom_type_partial_charge
O1    O     O_R   0.586930 0.505770 0.416350 -0.529523
O2    O     O_R   0.413070 0.005770 0.583650 -0.529564
O3    O     O_R   0.397900 0.173100 0.389630 -0.540152
O4    O     O_R   0.602100 0.673100 0.610370 -0.540108
C1    C     C_R   0.365560 0.345652 0.361407 0.731666
C2    C     C_R   0.634433 0.845653 0.638601 0.731710
O5    O     O_R   0.585280 0.175870 0.404330 -0.540333
O6    O     O_R   0.414720 0.675870 0.595670 -0.540326
O7    O     O_R   0.601790 0.008380 0.598460 -0.530051
O8    O     O_R   0.398210 0.508380 0.401540 -0.530044
C3    C     C_R   0.612695 0.346283 0.380070 0.684923
C4    C     C_R   0.387301 0.846282 0.619926 0.684908
O9    O     O_3   0.505200 0.340120 0.563670 -0.373510
O10   O     O_3   0.494800 0.840120 0.436330 -0.373498
V1    V     V_3+5 0.499040 0.064180 0.488190 1.413206
V2    V     V_3+5 0.500960 0.564180 0.511810 1.413266
C5    C     C_R   0.253119 0.006817 0.680150 0.048229
C6    C     C_R   0.746875 0.506824 0.319838 0.048285
C7    C     C_R   0.320087 0.861449 0.690383 -0.137698
C8    C     C_R   0.679907 0.361453 0.309607 -0.137758
C9    C     C_R   0.316933 0.724783 0.765627 -0.200961
C10   C     C_R   0.683059 0.224788 0.234361 -0.200989
H1    H     H_    0.371013 0.620557 0.781811 0.170223
H2    H     H_    0.628978 0.120562 0.218176 0.170213
C11   C     C_R   0.246919 0.727683 0.823915 -0.165381
C12   C     C_R   0.753075 0.227687 0.176075 -0.165374
H3    H     H_    0.249194 0.622434 0.883057 0.132942
H4    H     H_    0.750799 0.122436 0.116934 0.132941
C13   C     C_R   0.178732 0.872458 0.810731 -0.144508
C14   C     C_R   0.821264 0.372460 0.189261 -0.144508
C15   C     C_R   0.179449 0.004805 0.732988 0.001986
C16   C     C_R   0.820544 0.504813 0.266999 0.002083
C17   C     C_3   0.173758 0.218880 0.740699 0.035257
C18   C     C_3   0.826228 0.718888 0.259283 0.035130
C19   C     C_3   0.264539 0.220254 0.700985 0.502541
C20   C     C_3   0.735450 0.720258 0.299001 0.502585
C21   C     C_1   0.782710 0.877282 0.783868 -0.195650
C22   C     C_1   0.217285 0.377282 0.216138 -0.195662
C23   C     C_1   0.714935 0.860345 0.718340 -0.210134
C24   C     C_1   0.285058 0.360343 0.281669 -0.210114
O11   O     O_R   0.101720 0.231700 0.098560 -0.533911
O12   O     O_R   0.898280 0.731700 0.901440 -0.533907
O13   O     O_R   0.914700 0.558980 0.095690 -0.546612
O14   O     O_R   0.085300 0.058980 0.904310 -0.546569
C25   C     C_R   0.886837 0.388871 0.118614 0.705160
C26   C     C_R   0.113161 0.888872 0.881383 0.705176
O15   O     O_R   0.102080 0.561590 0.110390 -0.541327
O16   O     O_R   0.897920 0.061590 0.889610 -0.541313
O17   O     O_R   0.086950 0.728940 0.916330 -0.537981
O18   O     O_R   0.913050 0.228940 0.083670 -0.537990
C27   C     C_R   0.136213 0.391962 0.137190 0.731321
C28   C     C_R   0.863785 0.891962 0.862813 0.731332
O19   O     O_3   0.994770 0.394510 0.936380 -0.375779
O20   O     O_3   0.005230 0.894510 0.063620 -0.375866
V3    V     V_3+5 0.000970 0.670520 0.011800 1.382358
V4    V     V_3+5 0.999030 0.170520 0.988200 1.382421
H5    H     H_    0.178594 0.276332 0.817812 0.114474
H6    H     H_    0.821394 0.776341 0.182172 0.114478
N1    N     N_2   0.096475 0.299719 0.671996 -0.519668
H7    H     H_    0.100881 0.447153 0.665012 0.264379
C29   C     C_3   0.005743 0.238584 0.684555 -0.500127
H8    H     H_    0.990670 0.290929 0.756773 0.221215
H9    H     H_    0.999600 0.079302 0.680858 0.189874
H10   H     H_    0.953978 0.299846 0.623483 0.177806
N2    N     N_2   0.903515 0.799721 0.327981 -0.519738
H11   H     H_    0.899096 0.947110 0.335003 0.264409
C30   C     C_3   0.994252 0.738714 0.315287 -0.499851
H12   H     H_    0.009184 0.791042 0.242984 0.221331
H13   H     H_    0.000452 0.579425 0.319057 0.189870
H14   H     H_    0.046108 0.800154 0.376281 0.177624
N3    N     N_2   0.339514 0.263235 0.784148 -0.574011
H15   H     H_    0.334488 0.196418 0.850826 0.234894
C31   C     C_3   0.433151 0.269719 0.767871 -0.490015
H16   H     H_    0.459566 0.123331 0.757966 0.187399
H17   H     H_    0.477124 0.333736 0.834477 0.157402
H18   H     H_    0.437799 0.363758 0.704164 0.253611
N4    N     N_2   0.660472 0.763231 0.215841 -0.574024
H19   H     H_    0.665493 0.696401 0.149164 0.234889
C32   C     C_3   0.566839 0.769737 0.232125 -0.489938
H20   H     H_    0.522865 0.833718 0.165503 0.157392
H21   H     H_    0.562191 0.863830 0.295819 0.253578
H22   H     H_    0.540421 0.623350 0.242058 0.187407
N5    N     N_2   0.265315 0.341379 0.613068 -0.478520
H23   H     H_    0.251790 0.484003 0.624443 0.261377
C33   C     C_3   0.220727 0.272602 0.515603 -0.522805
H24   H     H_    0.218343 0.390515 0.460245 0.172454
H25   H     H_    0.149157 0.226066 0.515667 0.212330
H26   H     H_    0.259220 0.149498 0.491714 0.201525
N6    N     N_2   0.734670 0.841379 0.386919 -0.478509
H27   H     H_    0.748164 0.984020 0.375537 0.261379
C34   C     C_3   0.779288 0.772652 0.484381 -0.522978
H28   H     H_    0.781519 0.890431 0.539749 0.172493
H29   H     H_    0.850897 0.726539 0.484359 0.212361
H30   H     H_    0.740936 0.649335 0.508227 0.201473

loop_
_geom_bond_atom_site_label_1
_geom_bond_atom_site_label_2
_ccdc_geom_bond_type
C20   N6    S    
C22   C24   T    
C31   H16   S    
C14   C25   S    
O1    C3    A    
O2    C4    A    
C2    O7    A    
N4    H19   S    
O5    C3    A    
C26   O17   A    
C10   H2    S    
O15   V3    S    
C7    C9    A    
C20   N4    S    
C33   H24   S    
O19   V4    S    
C29   H9    S    
C17   C19   S    
N2    C30   S    
C15   C17   S    
N6    C34   S    
C18   C20   S    
O5    V1    S    
C19   N3    S    
N1    H7    S    
C17   N1    S    
C31   H17   S    
C18   N2    S    
C1    O8    A    
O14   C26   A    
N4    C32   S    
C11   C13   A    
C21   C23   T    
O20   V4    S    
C3    C8    S    
N1    C29   S    
C33   H25   S    
C30   H12   S    
O4    C2    A    
C34   H28   S    
C32   H21   S    
C21   C28   S    
C19   N5    S    
O15   C27   A    
C22   C27   S    
O17   V3    S    
O18   V4    S    
C30   H13   S    
C16   C18   S    
O4    V2    S    
C29   H10   S    
O11   V4    S    
O12   V3    S    
C34   H29   S    
O14   V4    S    
N5    H23   S    
O6    C4    A    
O1    V2    S    
O2    V1    S    
O13   C25   A    
O13   V3    S    
N5    C33   S    
C8    C10   A    
C12   C14   A    
O9    V1    S    
C5    C15   A    
C31   H18   S    
O10   V2    S    
C1    C24   S    
C6    C16   A    
O19   V3    S    
O3    V1    S    
N3    C31   S    
C33   H26   S    
O16   V4    S    
C9    C11   A    
O20   V3    S    
C17   H5    S    
C2    C23   S    
O3    C1    A    
C32   H22   S    
C11   H3    S    
C12   H4    S    
C13   C26   S    
C30   H14   S    
C9    H1    S    
O7    V1    S    
N3    H15   S    
C13   C15   A    
O8    V2    S    
C34   H30   S    
C14   C16   A    
C25   O18   A    
C4    C7    S    
C5    C7    A    
C6    C8    A    
C29   H8    S    
C32   H20   S    
O16   C28   A    
O6    V2    S    
N2    H11   S    
C10   C12   A    
O9    V2    S    
C18   H6    S    
O10   V1    S    
C5    C19   S    
N6    H27   S    
C6    C20   S    
O11   C27   A    
O12   C28   A    
