data_mof_unit_2079.cif
_audit_creation_date              2012-12-10T17:08:42-0500
_audit_creation_method            fapswitch 2.2
_symmetry_space_group_name_H-M    P1
_symmetry_Int_Tables_number       1
_space_group_crystal_system       triclinic
_cell_length_a                    27.837392
_cell_length_b                    11.043231
_cell_length_c                    9.805256
_cell_angle_alpha                 111.268312
_cell_angle_beta                  98.197028
_cell_angle_gamma                 91.198638
_cell_volume                      2771.65160613

loop_
_atom_site_label
_atom_site_type_symbol
_atom_type_description
_atom_site_fract_x
_atom_site_fract_y
_atom_site_fract_z
_atom_type_partial_charge
C1    C     C_R   0.496322 0.253930 0.440280 0.738097
C2    C     C_R   0.503259 0.746049 0.559718 0.743009
C3    C     C_R   0.102631 0.513712 0.511622 -0.051060
C4    C     C_R   0.897746 0.500552 0.491031 -0.051148
C5    C     C_R   0.127736 0.403632 0.508835 -0.010868
C6    C     C_R   0.872479 0.610130 0.492736 -0.011182
C7    C     C_R   0.101539 0.288668 0.491293 -0.147587
C8    C     C_R   0.898542 0.724937 0.509103 -0.149354
C9    C     C_R   0.129020 0.625700 0.516756 -0.134192
C10   C     C_R   0.871518 0.388719 0.486985 -0.132722
C11   C     C_R   0.354748 0.509967 0.506313 -0.212658
C12   C     C_R   0.645438 0.493829 0.494828 -0.202831
C13   C     C_R   0.974168 0.393549 0.500151 -0.082648
C14   C     C_R   0.026267 0.621290 0.502985 -0.082598
C15   C     C_R   0.975078 0.619170 0.503843 0.082947
C16   C     C_R   0.025248 0.395371 0.498362 0.082740
C17   C     C_R   0.949190 0.503896 0.496784 0.011601
C18   C     C_R   0.051189 0.510680 0.505877 0.011464
C19   C     C_R   0.946895 0.287812 0.511282 0.583329
C20   C     C_R   0.053751 0.727442 0.493306 0.584200
C21   C     C_R   0.896547 0.284210 0.498862 -0.167268
C22   C     C_R   0.104123 0.730758 0.505996 -0.165757
C23   C     C_R   0.407477 0.502544 0.501724 0.851602
C24   C     C_R   0.592561 0.498058 0.498469 0.854378
C25   C     C_R   0.051309 0.283442 0.481580 -0.103155
C26   C     C_R   0.948804 0.730592 0.519124 -0.104541
C27   C     C_2   0.494099 0.114378 0.405699 0.442753
C28   C     C_2   0.504326 0.885516 0.594243 0.430075
C29   C     C_2   0.498785 0.069398 0.515598 -0.245194
C30   C     C_2   0.497761 0.930374 0.484265 -0.243305
C31   C     C_2   0.504165 0.510717 0.081512 -0.065701
C32   C     C_2   0.495688 0.489697 0.918595 -0.075037
C33   C     C_R   0.178486 0.408933 0.515724 0.593325
C34   C     C_R   0.821709 0.604480 0.485935 0.594899
C35   C     C_R   0.179796 0.627394 0.524343 0.657686
C36   C     C_R   0.820767 0.386684 0.479505 0.653981
C37   C     C_R   0.271834 0.515415 0.390387 0.592248
C38   C     C_R   0.728834 0.497776 0.613232 0.568229
C39   C     C_R   0.321704 0.513404 0.383801 0.305933
C40   C     C_R   0.678719 0.493305 0.618288 0.325811
C41   C     C_R   0.336951 0.515467 0.635600 -0.275627
C42   C     C_R   0.663092 0.489523 0.365716 -0.276753
C43   C     C_R   0.287310 0.520563 0.642005 -0.184911
C44   C     C_R   0.712822 0.488344 0.360109 -0.189408
C45   C     C_R   0.254645 0.519840 0.519332 0.177548
C46   C     C_R   0.745769 0.493042 0.483888 0.187802
Cu1   Cu    Cu3+1 0.508480 0.521810 0.644910 0.986336
Cu2   Cu    Cu3+1 0.491520 0.478190 0.355090 0.991343
H1    H     H_    0.361345 0.514553 0.731670 0.190808
H2    H     H_    0.638471 0.488054 0.268951 0.195217
H3    H     H_    0.467156 0.417571 0.845298 0.165548
H4    H     H_    0.532536 0.583294 0.154936 0.167556
H5    H     H_    0.548168 0.622160 0.934732 0.223051
H6    H     H_    0.452099 0.377068 0.065064 0.216878
H7    H     H_    0.274116 0.523807 0.741874 0.186162
H8    H     H_    0.725835 0.484870 0.259905 0.184474
H9    H     H_    0.119631 0.200472 0.480495 0.204798
H10   H     H_    0.880316 0.812759 0.518834 0.204306
H11   H     H_    0.877359 0.200549 0.505333 0.218605
H12   H     H_    0.123448 0.814720 0.500630 0.219056
H13   H     H_    0.033997 0.187834 0.453609 0.237684
H14   H     H_    0.965883 0.826214 0.546006 0.238999
H15   H     H_    0.491870 0.863492 0.369224 0.196943
H16   H     H_    0.503844 0.136255 0.630582 0.197804
N1    N     N_R   0.203374 0.519812 0.523412 -0.438879
N2    N     N_R   0.797016 0.493776 0.479480 -0.437691
N3    N     N_2   0.478780 0.445430 0.137360 -0.278499
N4    N     N_2   0.521220 0.554570 0.862640 -0.276208
O1    O     O_R   0.504520 0.332330 0.577400 -0.636048
O2    O     O_R   0.495480 0.667670 0.422600 -0.630480
O3    O     O_R   0.490210 0.295500 0.332650 -0.508652
O4    O     O_R   0.509790 0.704500 0.667350 -0.510344
O5    O     O_R   0.437420 0.518430 0.622370 -0.587411
O6    O     O_R   0.562580 0.481570 0.377630 -0.586529
O7    O     O_R   0.423110 0.481600 0.377610 -0.531935
O8    O     O_R   0.576890 0.518400 0.622390 -0.530102
O9    O     O_2   0.202692 0.303448 0.512140 -0.511560
O10   O     O_2   0.797310 0.709401 0.488386 -0.512401
O11   O     O_2   0.795325 0.278929 0.473440 -0.520068
O12   O     O_2   0.205413 0.735276 0.531517 -0.515044
F1    F     F_    0.511800 0.968129 0.738866 -0.641289
F2    F     F_    0.487417 0.031766 0.261116 -0.637731
O13   O     O_3   0.662665 0.499679 0.748070 -0.564012
C47   C     C_3   0.669884 0.382374 0.773528 0.128580
H17   H     H_    0.681963 0.408867 0.894439 0.178437
H18   H     H_    0.698662 0.324798 0.716896 0.166406
C48   C     C_3   0.621989 0.296667 0.727491 -0.401717
H19   H     H_    0.593673 0.352386 0.787403 0.256083
H20   H     H_    0.609665 0.268290 0.606395 0.213621
C49   C     C_3   0.627977 0.173600 0.762770 -0.826889
H21   H     H_    0.655593 0.115092 0.702190 0.264946
H22   H     H_    0.592811 0.113386 0.728013 0.292530
H23   H     H_    0.639395 0.199455 0.883819 0.263880
O14   O     O_3   0.337285 0.506432 0.253583 -0.553785
C50   C     C_3   0.344878 0.634258 0.256363 0.128037
H24   H     H_    0.373044 0.692542 0.352391 0.119539
H25   H     H_    0.310374 0.684011 0.263873 0.178465
C51   C     C_3   0.362552 0.627044 0.113181 -0.352387
H26   H     H_    0.396150 0.574277 0.101872 0.232502
H27   H     H_    0.334222 0.572084 0.016701 0.230612
C52   C     C_3   0.373466 0.762542 0.111845 -0.826315
H28   H     H_    0.340144 0.816673 0.120437 0.265365
H29   H     H_    0.386153 0.753388 0.006413 0.270806
H30   H     H_    0.402481 0.818220 0.205712 0.274811
F3    F     F_    0.761242 0.508146 0.735169 -0.636964
F4    F     F_    0.239914 0.511386 0.270091 -0.625859
F5    F     F_    0.967795 0.191779 0.547949 -0.659410
F6    F     F_    0.033120 0.824519 0.458231 -0.660134

loop_
_geom_bond_atom_site_label_1
_geom_bond_atom_site_label_2
_ccdc_geom_bond_type
C48   H19   S    
C52   H28   S    
C27   C29   D    
C8    C26   A    
C14   C18   A    
C50   H24   S    
Cu2   O7    S    
C47   C48   S    
C31   H4    S    
C24   O6    A    
C34   N2    A    
C50   C51   S    
C33   N1    A    
C32   H3    S    
C31   N3    D    
C1    O3    A    
O13   C47   S    
C19   C21   A    
C47   H18   S    
Cu1   O8    S    
C21   H11   S    
C22   H12   S    
C36   N2    A    
C9    C22   A    
C35   N1    A    
C35   O12   S    
C3    C18   A    
H5    N4    S    
Cu1   O1    S    
C12   C42   A    
C8    H10   S    
C31   C32   S    
C5    C33   A    
C32   N4    D    
C29   H16   S    
C52   H29   S    
C30   H15   S    
C41   C43   A    
C40   O13   S    
C42   C44   A    
C23   O5    A    
C2    O4    A    
C41   H1    S    
C44   C46   A    
C10   C21   A    
C13   C19   A    
C14   C20   A    
C47   H17   S    
Cu1   O5    S    
C4    C6    A    
Cu2   O2    S    
C5    C7    A    
C24   O8    A    
C15   C26   A    
C6    C8    A    
H6    N3    S    
C1    O1    A    
C6    C34   A    
C12   C40   A    
C39   O14   S    
C29   C30   S    
C3    C9    A    
Cu2   O6    S    
C44   H8    S    
C49   H22   S    
Cu1   Cu2   S    
C25   H13   S    
C11   C39   A    
C43   C45   A    
C42   H2    S    
C4    C17   A    
C43   H7    S    
C20   C22   A    
C52   H30   S    
C51   H27   S    
C48   H20   S    
C45   N1    S    
C13   C16   A    
Cu2   O3    S    
C4    C10   A    
Cu1   N4    S    
C49   H23   S    
C1    C27   S    
C16   C25   A    
C15   C17   A    
C28   F1    S    
C27   F2    S    
C23   O7    A    
C3    C5    A    
C36   O11   S    
C10   C36   A    
C50   H25   S    
C46   N2    S    
C51   C52   S    
C12   C24   S    
C7    C25   A    
C13   C17   A    
C38   F3    S    
C28   C30   D    
C26   H14   S    
C37   F4    S    
C37   C39   A    
C34   O10   S    
C38   C40   A    
C33   O9    S    
C49   H21   S    
C11   C23   S    
C11   C41   A    
Cu2   N3    S    
O14   C50   S    
Cu1   O4    S    
C38   C46   A    
C16   C18   A    
C51   H26   S    
C48   C49   S    
C9    C35   A    
C14   C15   A    
C2    C28   S    
C2    O2    A    
C37   C45   A    
C7    H9    S    
C20   F6    S    
C19   F5    S    
