data_mof_unit_1210.cif
_audit_creation_date              2012-12-10T22:11:06-0500
_audit_creation_method            fapswitch 2.2
_symmetry_space_group_name_H-M    P1
_symmetry_Int_Tables_number       1
_space_group_crystal_system       triclinic
_cell_length_a                    12.153004
_cell_length_b                    12.327367
_cell_length_c                    22.946497
_cell_angle_alpha                 90.576332
_cell_angle_beta                  90.561011
_cell_angle_gamma                 91.02475
_cell_volume                      3436.82425913

loop_
_atom_site_label
_atom_site_type_symbol
_atom_type_description
_atom_site_fract_x
_atom_site_fract_y
_atom_site_fract_z
_atom_type_partial_charge
C1    C     C_R   0.655551 0.998561 0.579960 0.889352
C2    C     C_R   0.342372 0.001595 0.421399 0.863745
C3    C     C_R   0.917373 0.825160 0.114336 -0.238790
C4    C     C_R   0.102333 0.234136 0.851831 -0.247602
C5    C     C_R   0.060211 0.823915 0.209133 -0.259646
C6    C     C_R   0.928015 0.089333 0.838925 -0.205849
C7    C     C_R   0.058650 0.735780 0.171149 0.162763
C8    C     C_R   0.928275 0.160771 0.885895 0.165016
C9    C     C_R   0.940579 0.198052 0.213215 -0.250804
C10   C     C_R   0.090432 0.865504 0.821710 -0.199070
C11   C     C_R   0.940090 0.277314 0.171575 -0.246930
C12   C     C_R   0.091619 0.786775 0.863203 -0.249337
C13   C     C_R   0.092351 0.913986 0.336677 0.195452
C14   C     C_R   0.841403 0.101254 0.700754 0.167796
C15   C     C_R   0.180138 0.914861 0.376174 -0.218153
C16   C     C_R   0.754400 0.092040 0.660356 -0.193551
C17   C     C_R   0.888483 0.090363 0.332151 -0.178001
C18   C     C_R   0.156355 0.899717 0.694930 -0.216740
C19   C     C_R   0.808437 0.086405 0.373963 -0.261346
C20   C     C_R   0.235726 0.903374 0.652284 -0.224735
C21   C     C_3   0.992299 0.007103 0.248098 -0.055159
C22   C     C_3   0.003679 0.993344 0.752981 -0.057706
C23   C     C_R   0.649684 0.002330 0.418672 0.882327
C24   C     C_R   0.342332 0.998375 0.577814 0.857928
C25   C     C_R   0.086234 0.999417 0.294255 0.070408
C26   C     C_R   0.906293 0.006032 0.710437 0.047325
C27   C     C_R   0.254500 0.001690 0.378946 -0.051099
C28   C     C_R   0.739332 0.999818 0.625156 -0.078524
C29   C     C_R   0.888420 0.014683 0.285669 0.108938
C30   C     C_R   0.098317 0.993605 0.709642 0.075831
C31   C     C_R   0.725428 0.006942 0.370791 -0.046276
C32   C     C_R   0.253846 0.998136 0.620299 -0.094062
C33   C     C_R   0.010358 0.107716 0.208658 0.025680
C34   C     C_R   0.994522 0.887706 0.789064 0.037016
C35   C     C_R   0.002602 0.265437 0.121974 -0.095385
C36   C     C_R   0.001867 0.716924 0.868489 -0.123410
C37   C     C_R   0.984381 0.909539 0.204708 -0.002983
C38   C     C_R   0.017734 0.081195 0.800764 0.013750
C39   C     C_R   0.989622 0.740302 0.121881 -0.116473
C40   C     C_R   0.010996 0.241995 0.887856 -0.117102
C41   C     C_R   0.992783 0.658995 0.076501 0.872634
C42   C     C_R   0.007127 0.334603 0.927075 0.853853
C43   C     C_R   0.999433 0.350741 0.079671 0.874519
C44   C     C_R   0.001277 0.641978 0.916549 0.895907
C45   C     C_R   0.159912 0.089280 0.301557 -0.216655
C46   C     C_R   0.888163 0.914340 0.673247 -0.178719
C47   C     C_R   0.242887 0.089773 0.342671 -0.226992
C48   C     C_R   0.806436 0.911325 0.631581 -0.224494
C49   C     C_R   0.799610 0.939466 0.281003 -0.208351
C50   C     C_R   0.116187 0.088025 0.676801 -0.151182
C51   C     C_R   0.716231 0.936447 0.322095 0.170240
C52   C     C_R   0.187968 0.090386 0.629915 0.143139
C53   C     C_R   0.090553 0.108047 0.162812 0.172602
C54   C     C_R   0.897079 0.820767 0.799337 0.135591
C55   C     C_R   0.074185 0.177625 0.115032 0.128553
C56   C     C_R   0.911748 0.722962 0.829799 0.153906
C57   C     C_R   0.908531 0.907336 0.155966 0.186377
C58   C     C_R   0.114744 0.145869 0.814281 0.183979
H1    H     H_    0.298708 0.159210 0.345706 0.160644
H2    H     H_    0.796380 0.839717 0.604138 0.162710
H3    H     H_    0.796834 0.877895 0.247499 0.149935
H4    H     H_    0.070374 0.159056 0.687335 0.156776
H5    H     H_    0.124629 0.824595 0.241478 0.163948
H6    H     H_    0.857257 0.037065 0.832819 0.170231
H7    H     H_    0.880412 0.207451 0.246747 0.170254
H8    H     H_    0.163957 0.914959 0.818079 0.170273
H9    H     H_    0.954288 0.150061 0.337630 0.153971
H10   H     H_    0.140650 0.822596 0.715434 0.152760
H11   H     H_    0.867455 0.827038 0.074979 0.169808
H12   H     H_    0.168391 0.294140 0.855601 0.173827
H13   H     H_    0.886350 0.345965 0.176784 0.162914
H14   H     H_    0.163645 0.780690 0.891121 0.176155
H15   H     H_    0.188673 0.848379 0.406394 0.160721
H16   H     H_    0.698267 0.158264 0.654945 0.172391
H17   H     H_    0.814524 0.142723 0.410494 0.167534
H18   H     H_    0.282511 0.830932 0.644007 0.168036
H19   H     H_    0.154296 0.162430 0.276372 0.172292
H20   H     H_    0.937818 0.842646 0.677112 0.147975
O1    O     O_R   0.621380 0.090460 0.561410 -0.628699
O2    O     O_R   0.378620 0.909540 0.438590 -0.627637
O3    O     O_R   0.617150 0.909540 0.438590 -0.629967
O4    O     O_R   0.382850 0.090460 0.561410 -0.644078
O5    O     O_R   0.619720 0.093230 0.440890 -0.625509
O6    O     O_R   0.380280 0.906770 0.559110 -0.623540
O7    O     O_R   0.618800 0.906770 0.559110 -0.624993
O8    O     O_R   0.381200 0.093230 0.440890 -0.632144
O9    O     O_R   0.087590 0.627480 0.058790 -0.634824
O10   O     O_R   0.912410 0.372520 0.941210 -0.638563
O11   O     O_R   0.905660 0.383870 0.059980 -0.632002
O12   O     O_R   0.094340 0.616130 0.940020 -0.627743
O13   O     O_R   0.092570 0.390420 0.063230 -0.623553
O14   O     O_R   0.907430 0.609580 0.936770 -0.616083
O15   O     O_R   0.900680 0.620930 0.055550 -0.618264
O16   O     O_R   0.099320 0.379070 0.944450 -0.625174
Zn1   Zn    Zn3+2 0.501730 0.123520 0.501540 0.927315
Zn2   Zn    Zn3+2 0.498270 0.876480 0.498460 0.931517
Zn3   Zn    Zn3+2 0.125690 0.504390 0.002180 0.919356
Zn4   Zn    Zn3+2 0.874310 0.495610 0.997820 0.923639
C59   C     C_3   0.193644 0.038804 0.163802 -0.378471
C60   C     C_3   0.299028 0.107682 0.172932 -0.884457
H21   H     H_    0.370178 0.064394 0.154352 0.244704
H22   H     H_    0.293559 0.188486 0.152551 0.271897
H23   H     H_    0.316336 0.121168 0.219965 0.256310
H24   H     H_    0.194389 0.979953 0.199180 0.216410
H25   H     H_    0.199141 0.989961 0.123139 0.203302
C61   C     C_3   0.776845 0.849869 0.786201 -0.389141
C62   C     C_3   0.706507 0.860143 0.841403 -0.894252
H26   H     H_    0.621153 0.831128 0.831829 0.248766
H27   H     H_    0.739466 0.813964 0.878655 0.276068
H28   H     H_    0.700971 0.946130 0.855634 0.242361
H29   H     H_    0.764015 0.926914 0.764417 0.215451
H30   H     H_    0.740210 0.787329 0.756400 0.208483
C63   C     C_3   0.821024 0.992039 0.144009 -0.408948
C64   C     C_3   0.706545 0.942497 0.131146 -0.898209
H31   H     H_    0.702539 0.905140 0.086982 0.253596
H32   H     H_    0.684258 0.880442 0.163890 0.264627
H33   H     H_    0.644249 0.007301 0.132583 0.251886
H34   H     H_    0.809638 0.047442 0.181079 0.235170
H35   H     H_    0.846935 0.041854 0.106282 0.212107
C65   C     C_3   0.233334 0.126452 0.795382 -0.428015
C66   C     C_3   0.311688 0.115643 0.847755 -0.891734
H36   H     H_    0.322806 0.193874 0.871590 0.256887
H37   H     H_    0.279760 0.053238 0.878165 0.264947
H38   H     H_    0.393925 0.090483 0.832434 0.248634
H39   H     H_    0.245769 0.051805 0.770366 0.226810
H40   H     H_    0.261816 0.195253 0.768108 0.205401
C67   C     C_3   0.011570 0.818952 0.342491 -0.433281
C68   C     C_3   0.949634 0.822999 0.400168 -0.840082
H41   H     H_    0.004731 0.801248 0.436950 0.245729
H42   H     H_    0.917776 0.905097 0.408615 0.276850
H43   H     H_    0.879400 0.764124 0.398709 0.246777
H44   H     H_    0.951646 0.812071 0.306545 0.226743
H45   H     H_    0.057630 0.742185 0.341257 0.200577
C69   C     C_3   0.858462 0.212029 0.730838 -0.426597
C70   C     C_3   0.834090 0.310232 0.692495 -0.912127
H46   H     H_    0.870081 0.299806 0.648567 0.272594
H47   H     H_    0.744183 0.323033 0.688532 0.255025
H48   H     H_    0.870667 0.384859 0.712883 0.248820
H49   H     H_    0.805304 0.216127 0.769847 0.212761
H50   H     H_    0.944364 0.226218 0.744385 0.217225
C71   C     C_3   0.618659 0.859808 0.311462 -0.431627
C72   C     C_3   0.515825 0.922240 0.294650 -0.833055
H51   H     H_    0.494849 0.981986 0.329015 0.247327
H52   H     H_    0.529538 0.965940 0.253157 0.256193
H53   H     H_    0.445105 0.864815 0.288556 0.247895
H54   H     H_    0.635578 0.802124 0.275216 0.193498
H55   H     H_    0.602712 0.808350 0.349840 0.230179
C73   C     C_3   0.191580 0.188635 0.589762 -0.365447
C74   C     C_3   0.090279 0.260779 0.590907 -0.933899
H56   H     H_    0.013799 0.210846 0.585332 0.276416
H57   H     H_    0.087594 0.308382 0.632194 0.257364
H58   H     H_    0.094778 0.319375 0.554523 0.255978
H59   H     H_    0.265394 0.239621 0.600625 0.219935
H60   H     H_    0.197796 0.159246 0.543968 0.225377
C75   C     C_3   0.111638 0.145409 0.053829 -0.388554
C76   C     C_3   0.228998 0.181297 0.038868 -0.796634
H61   H     H_    0.236923 0.186449 0.990774 0.246484
H62   H     H_    0.250351 0.261897 0.058088 0.269681
H63   H     H_    0.288934 0.120813 0.054059 0.247284
H64   H     H_    0.102491 0.056304 0.047368 0.183831
H65   H     H_    0.055226 0.179745 0.020738 0.192009
C77   C     C_3   0.850577 0.618730 0.810767 -0.383991
C78   C     C_3   0.736560 0.600349 0.837133 -0.801363
H66   H     H_    0.733809 0.625515 0.883522 0.273438
H67   H     H_    0.672946 0.643963 0.812227 0.245390
H68   H     H_    0.714446 0.512625 0.834323 0.233332
H69   H     H_    0.842664 0.616836 0.762462 0.179728
H70   H     H_    0.901582 0.547512 0.821584 0.189711
C79   C     C_3   0.134140 0.640784 0.183498 -0.382924
C80   C     C_3   0.123412 0.598228 0.245566 -0.922663
H71   H     H_    0.168061 0.652889 0.276715 0.250611
H72   H     H_    0.035454 0.590339 0.257879 0.267387
H73   H     H_    0.161312 0.517094 0.248493 0.257530
H74   H     H_    0.115620 0.570103 0.154736 0.227980
H75   H     H_    0.220872 0.666680 0.176055 0.205990
C81   C     C_3   0.841660 0.143726 0.932544 -0.409653
C82   C     C_3   0.853994 0.033604 0.961958 -0.906015
H76   H     H_    0.845682 0.965869 0.930033 0.276411
H77   H     H_    0.935704 0.028755 0.983624 0.256235
H78   H     H_    0.789322 0.023190 0.995386 0.252856
H79   H     H_    0.846777 0.204593 0.968125 0.236897
H80   H     H_    0.758406 0.148412 0.912357 0.199565

loop_
_geom_bond_atom_site_label_1
_geom_bond_atom_site_label_2
_ccdc_geom_bond_type
C16   C28   A    
C70   H48   S    
C5    C37   A    
C17   C29   A    
C79   C80   S    
C78   H66   S    
C19   C31   A    
C68   H41   S    
C4    H12   S    
C64   H31   S    
O14   Zn4   S    
C70   H46   S    
C39   C41   S    
C29   C49   A    
C53   C59   S    
C55   C75   S    
C5    H5    S    
C43   O11   A    
C23   O5    A    
C16   H16   S    
C76   H61   S    
C3    H11   S    
C77   C78   S    
C74   H57   S    
C69   H50   S    
O7    Zn2   S    
C11   H13   S    
C21   C33   S    
C61   C62   S    
C18   H10   S    
C22   C38   S    
C56   C77   S    
C41   O9    A    
C20   H18   S    
O6    Zn2   S    
C45   C47   A    
C6    H6    S    
C24   O4    A    
C67   H44   S    
C32   C52   A    
C66   H38   S    
C63   H35   S    
C51   C71   S    
C15   C27   A    
C76   H62   S    
C41   O15   A    
C4    C40   A    
C49   C51   A    
C1    C28   S    
C50   C52   A    
C62   H26   S    
C6    C38   A    
C2    C27   S    
C18   C30   A    
O2    Zn2   S    
C35   C43   S    
O12   Zn3   S    
C18   C20   A    
C44   O14   A    
C53   C55   A    
C59   H24   S    
C12   H14   S    
C3    C39   A    
C52   C73   S    
C38   C58   A    
C9    C33   A    
C62   H27   S    
C72   H53   S    
C13   C25   A    
C73   H60   S    
C22   C34   S    
C60   H22   S    
C48   H2    S    
C46   C48   A    
C61   H29   S    
C10   H8    S    
C33   C53   A    
C81   H79   S    
C59   H25   S    
C54   C56   A    
C17   H9    S    
C49   H3    S    
C54   C61   S    
C35   C55   A    
C78   H68   S    
C73   C74   S    
C74   H58   S    
C69   H49   S    
C5    C7    A    
O3    Zn2   S    
C71   H55   S    
C65   H39   S    
C61   H30   S    
C14   C69   S    
O16   Zn3   S    
C82   H77   S    
C21   C29   S    
C60   H23   S    
C75   H65   S    
C63   H34   S    
C23   C31   S    
C81   H80   S    
C24   C32   S    
O1    Zn1   S    
C36   C56   A    
C64   H32   S    
C59   C60   S    
C13   C15   A    
O10   Zn4   S    
C79   H74   S    
C82   H78   S    
O5    Zn1   S    
C14   C26   A    
C9    H7    S    
C58   C65   S    
C79   H75   S    
C10   C34   A    
C57   C63   S    
O13   Zn3   S    
C9    C11   A    
C66   H36   S    
C10   C12   A    
C71   H54   S    
C77   H70   S    
C3    C57   A    
C81   C82   S    
C15   H15   S    
C34   C54   A    
C42   O10   A    
C7    C79   S    
C22   C26   S    
C1    O1    A    
C62   H28   S    
C14   C16   A    
C36   C44   S    
C1    O7    A    
C12   C36   A    
C73   H59   S    
C67   C68   S    
C68   H43   S    
C25   C45   A    
C72   H52   S    
C44   O12   A    
C65   C66   S    
C46   H20   S    
C63   C64   S    
C20   C32   A    
C27   C47   A    
C70   H47   S    
C21   C25   S    
C28   C48   A    
O4    Zn1   S    
C23   O3    A    
C78   H67   S    
C75   H64   S    
C42   O16   A    
C76   H63   S    
C67   H45   S    
C31   C51   A    
C68   H42   S    
C6    C8    A    
C8    C81   S    
C69   C70   S    
O11   Zn4   S    
C11   C35   A    
C24   O6    A    
C22   C30   S    
C74   H56   S    
C80   H72   S    
C19   H17   S    
C50   H4    S    
C40   C42   S    
C60   H21   S    
C17   C19   A    
C2    O8    A    
C65   H40   S    
C30   C50   A    
C43   O13   A    
C66   H37   S    
C64   H33   S    
C2    O2    A    
O8    Zn1   S    
C26   C46   A    
C47   H1    S    
C77   H69   S    
C13   C67   S    
C21   C37   S    
C82   H76   S    
C80   H71   S    
C4    C58   A    
C75   C76   S    
C7    C39   A    
C72   H51   S    
C45   H19   S    
C8    C40   A    
C71   C72   S    
O15   Zn4   S    
C37   C57   A    
O9    Zn3   S    
C80   H73   S    
