data_mof_unit_1242.cif
_audit_creation_date              2012-12-11T15:41:11-0500
_audit_creation_method            fapswitch 2.2
_symmetry_space_group_name_H-M    P1
_symmetry_Int_Tables_number       1
_space_group_crystal_system       triclinic
_cell_length_a                    8.3676
_cell_length_b                    18.822597
_cell_length_c                    19.031927
_cell_angle_alpha                 95.514347
_cell_angle_beta                  94.257511
_cell_angle_gamma                 92.349764
_cell_volume                      2971.92195748

loop_
_atom_site_label
_atom_site_type_symbol
_atom_type_description
_atom_site_fract_x
_atom_site_fract_y
_atom_site_fract_z
_atom_type_partial_charge
Ba1   Ba    Ba6+2 0.154050 0.534420 0.467300 1.772811
Ba2   Ba    Ba6+2 0.656120 0.465570 0.532650 1.808152
C1    C     C_3   0.289300 0.754988 0.222467 0.651559
C2    C     C_3   0.347081 0.717160 0.286376 0.313004
C3    C     C_3   0.523704 0.682088 0.621167 0.291552
C4    C     C_3   0.545294 0.763048 0.634138 -0.322279
C5    C     C_3   0.806724 0.281775 0.720128 0.657381
C6    C     C_3   0.780616 0.234083 0.778794 -0.174833
C7    C     C_3   0.310080 0.252664 0.704487 0.609734
C8    C     C_3   0.237491 0.177314 0.708316 -0.188204
C9    C     C_2   0.718356 0.700890 0.471546 -0.235649
C10   C     C_3   0.620678 0.748162 0.427754 -0.029069
C11   C     C_2   0.659186 0.827423 0.446349 -0.071390
C12   C     C_3   0.859202 0.727522 0.284427 0.616279
C13   C     C_2   0.794055 0.851089 0.487280 -0.030072
C14   C     C_2   0.891406 0.796286 0.522102 -0.057229
C15   C     C_1   0.845897 0.726865 0.512723 0.089825
C16   C     C_R   0.965770 0.067765 0.492245 0.552117
C17   C     C_R   0.851541 0.928619 0.491331 0.491038
C18   C     C_R   0.923394 0.197595 0.471088 -0.133333
C19   C     C_R   0.967819 0.271217 0.484433 0.091417
C20   C     C_R   0.224684 0.242207 0.538733 -0.090355
C21   C     C_R   0.184723 0.168293 0.522495 0.251093
C22   C     C_R   0.026128 0.145011 0.494891 -0.063674
C23   C     C_3   0.812357 0.778287 0.229134 0.272941
C24   C     C_R   0.110560 0.292077 0.524775 0.078809
C25   C     C_R   0.605897 0.531326 0.300244 -0.291257
C26   C     C_R   0.459550 0.495557 0.277019 0.065373
C27   C     C_R   0.404666 0.491277 0.205096 -0.071863
C28   C     C_R   0.497681 0.521754 0.155605 0.035293
C29   C     C_R   0.648479 0.555214 0.180162 -0.001811
C30   C     C_R   0.703255 0.558553 0.251948 0.006398
C31   C     C_R   0.480032 0.571344 0.036642 -0.000645
C32   C     C_R   0.427609 0.566931 0.964748 -0.000890
C33   C     C_R   0.336000 0.506881 0.931853 0.048159
C34   C     C_3   0.814420 0.373433 0.308918 0.277018
C35   C     C_R   0.297543 0.451528 0.973364 -0.008814
C36   C     C_R   0.349610 0.456114 0.045560 -0.012477
C37   C     C_R   0.441454 0.516290 0.078458 0.051777
C38   C     C_R   0.131930 0.470316 0.827818 0.067485
C39   C     C_R   0.082620 0.467920 0.755245 0.059883
C40   C     C_R   0.334980 0.525167 0.734277 0.014316
C41   C     C_R   0.384426 0.529661 0.806480 -0.067035
C42   C     C_R   0.283174 0.502158 0.854586 0.063273
C43   C     C_R   0.184208 0.495579 0.709541 -0.287995
C44   C     C_3   0.809874 0.343563 0.230564 0.881156
C45   C     C_3   0.960858 0.637229 0.696927 0.165174
C46   C     C_3   0.872692 0.673320 0.757800 0.296919
C47   C     C_3   0.281325 0.319339 0.373511 0.317363
C48   C     C_3   0.289842 0.239139 0.355373 -0.248705
H1    H     H_    0.287959 0.662710 0.281706 0.044554
H2    H     H_    0.080148 0.622937 0.718487 0.055655
H3    H     H_    0.893978 0.588415 0.671762 0.035457
H4    H     H_    0.911044 0.730929 0.766992 0.090398
H5    H     H_    0.742457 0.669933 0.743545 0.041888
H6    H     H_    0.154456 0.332445 0.377418 -0.003877
H7    H     H_    0.351649 0.334744 0.424984 0.033488
H8    H     H_    0.161833 0.766350 0.225095 0.085144
H9    H     H_    0.236272 0.223236 0.300731 0.206933
H10   H     H_    0.222529 0.209658 0.392023 0.024055
H11   H     H_    0.416901 0.224008 0.359189 0.146961
H12   H     H_    0.478726 0.712421 0.285853 -0.058458
H13   H     H_    0.638999 0.659989 0.607136 -0.054155
H14   H     H_    0.431088 0.668235 0.576683 0.084234
H15   H     H_    0.643076 0.778273 0.676248 0.110687
H16   H     H_    0.576347 0.785795 0.585117 0.053933
H17   H     H_    0.432118 0.785945 0.650705 0.160261
H18   H     H_    0.725627 0.815943 0.250754 0.107180
H19   H     H_    0.694748 0.308708 0.707986 0.089986
H20   H     H_    0.680848 0.193949 0.761941 0.145952
H21   H     H_    0.890788 0.205562 0.791756 0.127535
H22   H     H_    0.751641 0.267211 0.827211 0.162256
H23   H     H_    0.218266 0.285977 0.680314 -0.007046
H24   H     H_    0.143860 0.178175 0.746652 0.129847
H25   H     H_    0.331850 0.141251 0.725066 0.152175
H26   H     H_    0.179374 0.155010 0.656598 0.107128
H27   H     H_    0.586959 0.864317 0.418862 0.136525
H28   H     H_    0.002003 0.813416 0.553739 0.111410
H29   H     H_    0.808024 0.181704 0.443268 0.141192
H30   H     H_    0.693930 0.643767 0.459859 0.052602
H31   H     H_    0.502053 0.553413 0.824507 0.122471
H32   H     H_    0.457334 0.611332 0.935144 0.126594
H33   H     H_    0.548646 0.618842 0.059631 0.173578
H34   H     H_    0.747498 0.704783 0.303168 -0.126712
H35   H     H_    0.290190 0.463796 0.188113 0.122938
H36   H     H_    0.229720 0.403870 0.949860 0.145380
H37   H     H_    0.320409 0.411650 0.075129 0.131494
H38   H     H_    0.052378 0.447517 0.862924 0.099585
H39   H     H_    0.727609 0.574986 0.143228 0.130484
H40   H     H_    0.143679 0.495674 0.654424 0.118366
H41   H     H_    0.649755 0.533324 0.355372 0.054321
H42   H     H_    0.918025 0.810492 0.216128 0.112811
H43   H     H_    0.701475 0.399692 0.319501 -0.064682
H44   H     H_    0.916763 0.412463 0.321870 0.030132
N1    N     N_R   0.829982 0.043062 0.452049 -0.199911
N2    N     N_R   0.774859 0.975246 0.451406 -0.193295
N3    N     N_R   0.985865 0.953507 0.532246 -0.211750
N4    N     N_R   0.040514 0.021357 0.533002 -0.159186
O1    O     O_2   0.126770 0.670950 0.539180 -0.430163
O2    O     O_3   0.344058 0.353482 0.318854 -0.572211
O3    O     O_3   0.959301 0.675507 0.256130 -0.584649
O4    O     O_2   0.683530 0.329010 0.460790 -0.455460
O5    O     O_3   0.935970 0.416420 0.461920 -0.444719
O6    O     O_3   0.450050 0.370950 0.587830 -0.426715
O7    O     O_3   0.829973 0.315444 0.348973 -0.624705
O8    O     O_3   0.375780 0.535040 0.584090 -0.446499
O9    O     O_3   0.866950 0.405950 0.623880 -0.415636
O10   O     O_2   0.747331 0.437848 0.750767 -0.449883
O11   O     O_3   0.936021 0.330028 0.742763 -0.604161
O12   O     O_3   0.874330 0.583580 0.538020 -0.501584
O13   O     O_3   0.434510 0.464950 0.415850 -0.487478
O14   O     O_2   0.630930 0.532620 0.670490 -0.482521
O15   O     O_3   0.476203 0.655844 0.683122 -0.632587
O16   O     O_2   0.560591 0.244955 0.542327 -0.383608
O17   O     O_3   0.451812 0.248929 0.668161 -0.617347
O18   O     O_3   0.360240 0.629040 0.412110 -0.501849
O19   O     O_2   0.318911 0.754954 0.485609 -0.447369
O20   O     O_3   0.987262 0.688846 0.650401 -0.662071
O21   O     O_3   0.305481 0.756404 0.348519 -0.529424
O22   O     O_2   0.179370 0.467330 0.329490 -0.467197
O23   O     O_3   0.943350 0.594040 0.376060 -0.469441
O24   O     O_2   0.031443 0.543018 0.249622 -0.427815
P1    P     P_3+3 0.954930 0.659850 0.559700 0.998622
P2    P     P_3+3 0.352180 0.446150 0.339620 1.054329
P3    P     P_3+3 0.908425 0.591876 0.283617 1.045985
P4    P     P_3+3 0.855360 0.340140 0.440240 1.064535
P5    P     P_3+3 0.902363 0.415309 0.716761 1.066400
P6    P     P_3+3 0.402072 0.721716 0.421186 1.008601
P7    P     P_3+3 0.457026 0.562635 0.670229 0.987526
P8    P     P_3+3 0.421874 0.276702 0.582634 1.084245
Cl1   Cl    Cl    0.623408 0.295445 0.204789 -0.506797
Cl2   Cl    Cl    0.832821 0.411833 0.173715 -0.654810
Cl3   Cl    Cl    0.969001 0.284747 0.216318 -0.517335
S1    S     S_3+6 0.909218 0.636708 0.840175 -0.089039
O25   O     O_2   0.837666 0.561864 0.835154 -0.339250
O26   O     O_2   0.086561 0.637329 0.859758 -0.303991
O27   O     O_3   0.822178 0.687290 0.902832 -0.454529
H45   H     H_    0.835378 0.661609 0.945813 0.386489
Cl4   Cl    Cl    0.308173 0.700004 0.142443 -0.587828
Cl5   Cl    Cl    0.397823 0.838118 0.220888 -0.514454
Cl6   Cl    Cl    0.855185 0.227356 0.643912 -0.712281
S2    S     S_3+6 0.359294 0.292638 0.793192 -0.069028
O28   O     O_2   0.208485 0.310944 0.827493 -0.298264
O29   O     O_2   0.446827 0.241199 0.835899 -0.256634
O30   O     O_3   0.475491 0.367261 0.792576 -0.498057
H46   H     H_    0.443521 0.385813 0.746929 0.307457
Cl7   Cl    Cl    0.968693 0.778944 0.356370 -0.690494
Cl8   Cl    Cl    0.336038 0.106584 0.534305 -0.601023
Cl9   Cl    Cl    0.144271 0.381091 0.560596 -0.690581
Cl10  Cl    Cl    0.724001 0.731210 0.149342 -0.590944

loop_
_geom_bond_atom_site_label_1
_geom_bond_atom_site_label_2
_ccdc_geom_bond_type
O8    P7    S    
C19   C24   A    
C46   H5    S    
C39   P5    S    
N1    N2    A    
C12   H34   S    
Ba1   O1    S    
S1    O27   S    
N3    N4    A    
C17   N3    A    
C5    C6    S    
C46   H4    S    
Ba2   O14   S    
C31   C37   A    
O15   P7    S    
O7    P4    S    
C16   C22   S    
C48   H9    S    
C46   S1    S    
C26   C27   A    
C33   C35   A    
C35   C36   A    
C32   C33   A    
C44   Cl2   S    
C28   C29   A    
O12   P1    S    
Ba2   O4    S    
C13   C14   S    
C2    H12   S    
Ba2   O9    S    
C47   H7    S    
C3    H13   S    
C47   O2    S    
Ba1   Ba2   S    
O5    P4    S    
C8    H26   S    
C34   H43   S    
C15   P1    S    
C4    H15   S    
Ba2   O12   S    
C18   C22   A    
C14   C15   D    
C29   H39   S    
O3    P3    S    
C21   C22   A    
C2    O21   S    
C25   H41   S    
Ba1   O18   S    
O14   P7    D    
C7    C8    S    
Ba1   O5    S    
C38   C42   A    
C27   H35   S    
Ba1   O8    S    
C45   H3    S    
O21   P6    S    
O13   P2    S    
C12   C23   S    
O6    P8    S    
C20   P8    S    
C16   N1    A    
O16   P8    D    
S2    O30   S    
C23   H18   S    
C7    H23   S    
O11   P5    S    
O30   H46   S    
C45   O20   S    
C36   C37   A    
C11   H27   S    
Ba2   O13   S    
C6    H22   S    
C2    H1    S    
C7    O17   S    
C45   C46   S    
C35   H36   S    
C44   Cl1   S    
C12   O3    S    
S1    O26   D    
C12   Cl7   S    
Ba2   O8    S    
C5    O11   S    
C3    H14   S    
C23   Cl10  S    
O2    P2    S    
Ba1   O22   S    
C30   P3    S    
C13   C17   S    
C41   C42   A    
Ba1   P1    S    
O23   P3    S    
C27   C28   A    
C33   C42   S    
Ba1   O12   S    
C8    H25   S    
C29   C30   A    
Ba2   O6    S    
C9    C10   S    
C31   C32   A    
C10   C11   S    
C34   C44   S    
C43   H40   S    
C31   H33   S    
S1    O25   D    
Ba2   P4    S    
C38   C39   A    
C11   C13   D    
O18   P6    S    
C41   H31   S    
S2    O29   D    
C1    Cl4   S    
C40   C41   A    
C1    C2    S    
C5    Cl6   S    
O1    P1    D    
C21   Cl8   S    
C9    C15   D    
C23   H42   S    
C18   H29   S    
C3    O15   S    
C34   O7    S    
S2    O28   D    
C24   Cl9   S    
O4    P4    D    
C5    H19   S    
C7    S2    S    
C26   P2    S    
C45   H2    S    
C10   P6    S    
C47   H6    S    
C16   N4    A    
O27   H45   S    
C6    H20   S    
C36   H37   S    
C48   H10   S    
C38   H38   S    
O24   P3    D    
Ba1   P2    S    
O9    P5    S    
C4    H17   S    
Ba1   O13   S    
C44   Cl3   S    
C8    H24   S    
C3    C4    S    
Ba2   O5    S    
C28   C37   S    
C40   P7    S    
C14   H28   S    
O20   P1    S    
O10   P5    D    
O19   P6    D    
Ba1   O23   S    
C9    H30   S    
C25   C30   A    
C1    H8    S    
C34   H44   S    
C4    H16   S    
C18   C19   A    
C47   C48   S    
C20   C24   A    
C25   C26   A    
C48   H11   S    
C39   C43   A    
C20   C21   A    
C1    Cl5   S    
C32   H32   S    
C19   P4    S    
C40   C43   A    
C17   N2    A    
O22   P2    D    
C6    H21   S    
O17   P8    S    
