data_mof_unit_1676.cif
_audit_creation_date              2013-03-05T16:33:42-0500
_audit_creation_method            fapswitch 2.2
_symmetry_space_group_name_H-M    P1
_symmetry_Int_Tables_number       1
_space_group_crystal_system       triclinic
_cell_length_a                    9.065742
_cell_length_b                    10.886951
_cell_length_c                    9.609594
_cell_angle_alpha                 91.249563
_cell_angle_beta                  89.678373
_cell_angle_gamma                 90.944125
_cell_volume                      948.083109538

loop_
_atom_site_label
_atom_site_type_symbol
_atom_site_description
_atom_site_fract_x
_atom_site_fract_y
_atom_site_fract_z
_atom_type_partial_charge
O1    O     O_R   0.500000 0.319640 0.618810 -0.532339
O2    O     O_R   0.500020 0.319680 0.381230 -0.540732
C1    C     C_R   0.509710 0.262986 0.498340 0.858995
O3    O     O_R   0.288380 0.499980 0.618770 -0.542319
O4    O     O_R   0.288400 0.500020 0.381190 -0.585558
C2    C     C_R   0.220891 0.499875 0.500210 0.853150
Cu1   Cu    Cu3+1 0.499990 0.499980 0.640670 1.068861
Cu2   Cu    Cu3+1 0.500010 0.500020 0.359330 1.056785
O5    O     O_R   0.499980 0.680320 0.618770 -0.590295
O6    O     O_R   0.500000 0.680360 0.381190 -0.605101
O7    O     O_R   0.711600 0.499980 0.618810 -0.573707
O8    O     O_R   0.711620 0.500020 0.381230 -0.544143
C3    C     C_R   0.504786 0.737405 0.501066 0.853667
C4    C     C_R   0.779098 0.500123 0.499807 0.870275
C5    C     C_1   0.065592 0.499914 0.500356 -0.050206
C6    C     C_1   0.934361 0.499992 0.499765 -0.029172
C7    C     C_R   0.503678 0.067917 0.620438 -0.028374
C8    C     C_R   0.522931 0.129602 0.495554 -0.201256
C9    C     C_R   0.549084 0.059677 0.371709 0.331272
C10   C     C_R   0.533583 0.931534 0.374937 -0.183232
H1    H     H_    0.548988 0.878548 0.279599 0.189721
C11   C     C_R   0.513219 0.870857 0.501016 -0.062496
C12   C     C_R   0.505266 0.940928 0.623784 -0.038672
C13   C     C_3   0.598079 0.941825 0.753687 0.051686
C14   C     C_3   0.592244 0.082184 0.751345 0.448505
H2    H     H_    0.539170 0.899607 0.842892 0.133793
C15   C     C_R   0.626097 0.525672 0.073537 0.255035
N1    N     N_R   0.500920 0.500930 0.147930 -0.253451
C16   C     C_R   0.379513 0.462942 0.075159 -0.034986
H3    H     H_    0.282234 0.432139 0.130748 0.201004
C17   C     C_R   0.378878 0.461137 0.927352 0.428659
N2    N     N_R   0.500930 0.500890 0.852020 -0.256323
C18   C     C_R   0.626532 0.524568 0.926456 0.194835
C19   C     C_3   0.717540 0.639040 0.921361 -0.441516
C20   C     C_3   0.714256 0.642692 0.079569 0.091684
H4    H     H_    0.828170 0.623100 0.874444 0.266452
H5    H     H_    0.654323 0.713600 0.875317 0.191910
H6    H     H_    0.652804 0.721773 0.124676 0.128111
N3    N     N_R   0.608508 0.113511 0.247618 0.169545
O9    O     O_R   0.710616 0.198661 0.257719 -0.281574
O10   O     O_R   0.594551 0.054188 0.129413 -0.292596
N4    N     N_R   0.859703 0.627831 0.141551 0.173134
O11   O     O_R   0.911190 0.711842 0.227341 -0.310333
O12   O     O_R   0.935573 0.529084 0.117444 -0.288680
N5    N     N_R   0.748766 0.895872 0.735472 0.134772
O13   O     O_R   0.838536 0.901472 0.840684 -0.263079
O14   O     O_R   0.795970 0.851186 0.616977 -0.336682
N6    N     N_R   0.503623 0.134596 0.865215 0.166828
O15   O     O_R   0.552025 0.230224 0.935500 -0.280009
O16   O     O_R   0.375228 0.087118 0.896777 -0.284567
Br1   Br    Br    0.782346 0.169610 0.725085 -0.266563
N7    N     N_R   0.249896 0.412479 0.860080 0.147831
O17   O     O_R   0.255772 0.308563 0.791221 -0.257590
O18   O     O_R   0.121649 0.457957 0.890606 -0.310959

loop_
_geom_bond_atom_site_label_1
_geom_bond_atom_site_label_2
_geom_bond_distance
_ccdc_geom_bond_type
O4    Cu2   1.928696 S    
C12   C13   1.509092 S    
C14   Br1   1.972639 S    
C16   H3    1.080908 S    
C19   H5    1.103167 S    
C17   N2    1.387285 A    
C17   N7    1.427925 S    
Cu2   O8    1.931085 S    
C7    C14   1.499991 S    
N2    C18   1.366063 A    
C9    C10   1.400846 A    
N6    O16   1.302729 A    
C7    C8    1.396644 A    
Cu1   Cu2   2.703571 S    
C16   C17   1.420117 A    
N5    O13   1.301218 A    
C10   H1    1.081564 S    
Cu1   O7    1.928697 S    
C14   N6    1.465081 S    
C7    C12   1.383910 A    
N4    O12   1.301615 A    
N7    O17   1.299817 A    
O3    Cu1   1.931084 S    
N6    O15   1.300084 A    
C13   N5    1.470760 S    
C9    N3    1.438247 S    
O3    C2    1.296198 A    
N1    C16   1.361070 A    
O8    C4    1.296296 A    
C3    C11   1.453650 S    
O2    C1    1.299369 A    
C19   H4    1.111991 S    
N5    O14   1.301407 A    
O4    C2    1.294169 A    
Cu2   N1    2.031679 S    
O7    C4    1.293978 A    
C4    C6    1.407599 S    
C15   C18   1.413161 A    
N4    O11   1.300546 A    
C10   C11   1.402402 A    
C5    C6    1.189771 T    
C15   N1    1.364059 A    
C20   H6    1.111895 S    
C18   C19   1.484779 S    
C13   C14   1.530525 S    
N3    O10   1.300128 A    
C1    C8    1.458703 S    
Cu2   O6    1.970000 S    
C19   C20   1.520102 S    
N3    O9    1.301725 A    
Cu1   O5    1.979160 S    
C20   N4    1.462765 S    
O5    C3    1.302578 A    
C11   C12   1.393032 A    
C8    C9    1.419628 A    
Cu1   N2    2.030862 S    
C15   C20   1.492953 S    
C2    C5    1.407900 S    
O1    Cu1   1.970000 S    
O2    Cu2   1.979158 S    
C13   H2    1.111422 S    
N7    O18   1.300674 A    
O1    C1    1.303025 A    
O6    C3    1.297331 A    
