data_mof_unit_4658.cif
_audit_creation_date              2012-12-11T14:01:33-0500
_audit_creation_method            fapswitch 2.2
_symmetry_space_group_name_H-M    P1
_symmetry_Int_Tables_number       1
_space_group_crystal_system       triclinic
_cell_length_a                    18.993769
_cell_length_b                    10.992667
_cell_length_c                    18.768775
_cell_angle_alpha                 90.0
_cell_angle_beta                  90.767858
_cell_angle_gamma                 89.999985
_cell_volume                      3918.42149599

loop_
_atom_site_label
_atom_site_type_symbol
_atom_type_description
_atom_site_fract_x
_atom_site_fract_y
_atom_site_fract_z
_atom_type_partial_charge
C1    C     C_R   0.272656 0.042278 0.853447 0.567210
C2    C     C_R   0.012340 0.662397 0.965359 -0.028524
C3    C     C_R   0.487664 0.162398 0.034640 -0.028518
C4    C     C_R   0.512457 0.162383 0.965303 -0.028582
C5    C     C_2   0.248638 0.576564 0.919271 -0.035795
C6    C     C_2   0.751368 0.576555 0.080733 -0.036296
C7    C     C_2   0.748634 0.076559 0.919269 -0.036297
C8    C     C_2   0.251360 0.076567 0.080727 -0.035792
C9    C     C_2   0.249998 0.586674 0.077531 0.307295
C10   C     C_2   0.750004 0.586664 0.922472 0.306640
C11   C     C_2   0.749997 0.086668 0.077529 0.306636
C12   C     C_R   0.727344 0.042277 0.146553 0.567261
C13   C     C_2   0.250002 0.086678 0.922468 0.307293
C14   C     C_2   0.290927 0.515441 0.036956 -0.056914
C15   C     C_2   0.709084 0.515417 0.963049 -0.057037
C16   C     C_2   0.790920 0.015426 0.036953 -0.057031
C17   C     C_2   0.209069 0.015451 0.963042 -0.056916
C18   C     C_2   0.302319 0.540526 0.961591 0.403910
C19   C     C_2   0.697690 0.540498 0.038415 0.403868
C20   C     C_2   0.802312 0.040505 0.961586 0.403865
C21   C     C_2   0.197677 0.040539 0.038407 0.403901
C22   C     C_2   0.517184 0.839690 0.588623 0.236388
C23   C     C_R   0.772656 0.542276 0.853448 0.567260
C24   C     C_2   0.506250 0.828530 0.424732 0.267724
C25   C     C_2   0.993750 0.328529 0.575268 0.267731
C26   C     C_2   0.982815 0.339691 0.411376 0.236385
C27   C     C_2   0.541356 0.755079 0.471244 -0.160744
C28   C     C_2   0.525071 0.743193 0.545806 -0.185534
C29   C     C_2   0.974928 0.243195 0.454194 -0.185535
C30   C     C_2   0.958642 0.255083 0.528756 -0.160742
C31   C     C_2   0.254586 0.616055 0.568471 -0.052402
C32   C     C_2   0.745345 0.616136 0.431559 -0.072004
C33   C     C_2   0.754655 0.116136 0.568440 -0.072004
C34   C     C_R   0.227344 0.542277 0.146552 0.567211
C35   C     C_2   0.245414 0.116056 0.431529 -0.052404
C36   C     C_2   0.258086 0.604720 0.413542 -0.129209
C37   C     C_2   0.741798 0.604834 0.586509 -0.137581
C38   C     C_2   0.758202 0.104834 0.413491 -0.137581
C39   C     C_2   0.241914 0.104721 0.586459 -0.129206
C40   C     C_R   0.472209 0.821776 0.853216 0.549865
C41   C     C_R   0.527802 0.821778 0.146774 0.554326
C42   C     C_R   0.972198 0.321778 0.853226 0.554324
C43   C     C_R   0.027790 0.321777 0.146784 0.549868
C44   C     C_2   0.219628 0.684301 0.449259 -0.112617
C45   C     C_R   0.476873 0.053358 0.070939 0.270155
C46   C     C_2   0.780182 0.684487 0.550772 -0.124608
C47   C     C_2   0.719818 0.184487 0.449228 -0.124607
C48   C     C_2   0.280372 0.184301 0.550741 -0.112615
C49   C     C_2   0.232795 0.705980 0.524213 0.348448
C50   C     C_2   0.766923 0.706178 0.475829 0.340154
C51   C     C_2   0.733077 0.206178 0.524171 0.340154
C52   C     C_2   0.267207 0.205980 0.475787 0.348450
C53   C     C_R   0.261007 0.635424 0.851097 0.560211
C54   C     C_R   0.738995 0.635420 0.148905 0.560089
C55   C     C_R   0.761005 0.135420 0.851096 0.560087
C56   C     C_R   0.523217 0.053329 0.929010 0.270292
C57   C     C_R   0.238993 0.135424 0.148902 0.560209
C58   C     C_R   0.270667 0.048300 0.649745 0.580948
C59   C     C_R   0.729347 0.048309 0.350257 0.577927
C60   C     C_R   0.770653 0.548309 0.649743 0.577928
C61   C     C_R   0.229333 0.548300 0.350255 0.580945
C62   C     C_R   0.473062 0.824614 0.650332 0.585890
C63   C     C_R   0.530183 0.823433 0.352280 0.597669
C64   C     C_R   0.969817 0.323433 0.647720 0.597672
C65   C     C_R   0.026937 0.324614 0.349668 0.585888
C66   C     C_R   0.261693 0.643423 0.643419 0.577218
C67   C     C_R   0.976785 0.553332 0.070990 0.270293
C68   C     C_R   0.738290 0.643451 0.356597 0.572651
C69   C     C_R   0.761710 0.143452 0.643403 0.572652
C70   C     C_R   0.238307 0.143423 0.356581 0.577216
C71   C     C_R   0.496621 0.828515 0.074561 -0.087993
C72   C     C_R   0.503427 0.828506 0.925411 -0.087355
C73   C     C_R   0.996571 0.328507 0.074590 -0.087356
C74   C     C_R   0.003377 0.328514 0.925440 -0.087995
C75   C     C_R   0.493066 0.940783 0.037103 -0.098375
C76   C     C_R   0.507008 0.940773 0.962860 -0.097977
C77   C     C_R   0.992992 0.440775 0.037140 -0.097980
C78   C     C_R   0.023129 0.553356 0.929061 0.270153
C79   C     C_R   0.006934 0.440783 0.962898 -0.098375
C80   C     C_R   0.504227 0.718931 0.963803 0.441300
C81   C     C_R   0.495827 0.718935 0.036172 0.441119
C82   C     C_R   0.004168 0.218935 0.963830 0.441125
C83   C     C_R   0.995767 0.218932 0.036199 0.441305
C84   C     C_R   0.987548 0.662384 0.034696 -0.028583
Cr1   Cr    Cr6+3 0.230530 0.836340 0.748870 1.110280
Cr2   Cr    Cr6+3 0.614360 0.677860 0.250770 1.118916
Cr3   Cr    Cr6+3 0.885640 0.177860 0.749230 1.118915
Cr4   Cr    Cr6+3 0.114360 0.177860 0.250770 1.119174
Cr5   Cr    Cr6+3 0.769470 0.836340 0.251130 1.106793
Cr6   Cr    Cr6+3 0.730530 0.336340 0.748870 1.106792
Cr7   Cr    Cr6+3 0.269470 0.336340 0.251130 1.110284
Cr8   Cr    Cr6+3 0.387420 0.989430 0.750820 1.120756
Cr9   Cr    Cr6+3 0.612580 0.989430 0.249180 1.111848
Cr10  Cr    Cr6+3 0.887420 0.489430 0.750820 1.111845
Cr11  Cr    Cr6+3 0.112580 0.489430 0.249180 1.120752
Cr12  Cr    Cr6+3 0.385640 0.677860 0.749230 1.119176
F1    F     F_    0.510065 0.609157 0.930976 -0.511620
F2    F     F_    0.631374 0.526829 0.063606 -0.533237
F3    F     F_    0.868627 0.026834 0.936394 -0.533233
F4    F     F_    0.131357 0.026908 0.063594 -0.533119
F5    F     F_    0.221491 0.691714 0.051640 -0.649793
F6    F     F_    0.778504 0.691711 0.948362 -0.649938
F7    F     F_    0.721495 0.191713 0.051639 -0.649943
F8    F     F_    0.278512 0.191716 0.948358 -0.649787
F9    F     F_    0.489979 0.609164 0.069001 -0.511160
F10   F     F_    0.010013 0.109163 0.931002 -0.511153
F11   F     F_    0.989925 0.109160 0.069027 -0.511628
F12   F     F_    0.215655 0.818295 0.549022 -0.628917
F13   F     F_    0.783846 0.818586 0.451020 -0.630885
F14   F     F_    0.716153 0.318585 0.548979 -0.630886
F15   F     F_    0.284350 0.318292 0.450978 -0.628915
F16   F     F_    0.368638 0.526884 0.936402 -0.533108
H1    H     H_    0.173405 0.726963 0.425369 0.182640
H2    H     H_    0.730951 0.526344 0.450557 0.085716
H3    H     H_    0.769049 0.026344 0.549443 0.085717
H4    H     H_    0.230885 0.026327 0.450524 0.088818
H5    H     H_    0.976558 0.748211 0.060616 0.197813
H6    H     H_    0.023318 0.748234 0.939447 0.197923
H7    H     H_    0.476688 0.248236 0.060552 0.197928
H8    H     H_    0.523448 0.248208 0.939384 0.197813
H9    H     H_    0.315931 0.434445 0.058770 0.158525
H10   H     H_    0.684087 0.434414 0.941235 0.158537
H11   H     H_    0.815920 0.934427 0.058767 0.158542
H12   H     H_    0.826439 0.727118 0.574609 0.181536
H13   H     H_    0.184063 0.934457 0.941228 0.158521
H14   H     H_    0.195437 0.579910 0.939860 0.122082
H15   H     H_    0.804568 0.579916 0.060143 0.122148
H16   H     H_    0.695433 0.079919 0.939859 0.122151
H17   H     H_    0.304561 0.079906 0.060139 0.122079
H18   H     H_    0.582498 0.694261 0.452863 0.129980
H19   H     H_    0.511796 0.651846 0.563189 0.148358
H20   H     H_    0.988204 0.151847 0.436812 0.148358
H21   H     H_    0.917497 0.194272 0.547135 0.129975
H22   H     H_    0.422381 0.982554 0.147183 0.320213
H23   H     H_    0.673561 0.227117 0.425391 0.181537
H24   H     H_    0.577657 0.982468 0.852742 0.319003
H25   H     H_    0.922344 0.482475 0.147259 0.319003
H26   H     H_    0.077621 0.482548 0.852818 0.320213
H27   H     H_    0.428677 0.875914 0.485642 0.343398
H28   H     H_    0.577211 0.950399 0.535318 0.341947
H29   H     H_    0.922789 0.450402 0.464681 0.341945
H30   H     H_    0.071324 0.375910 0.514357 0.343399
H31   H     H_    0.326595 0.226963 0.574632 0.182642
H32   H     H_    0.306649 0.568218 0.436216 0.146284
H33   H     H_    0.693191 0.568399 0.563877 0.142301
H34   H     H_    0.806809 0.068399 0.436123 0.142302
H35   H     H_    0.193351 0.068219 0.563784 0.146282
H36   H     H_    0.269112 0.526324 0.549477 0.088817
O1    O     O_R   0.215090 0.709860 0.828130 -0.503964
O2    O     O_R   0.543740 0.718170 0.330000 -0.546293
O3    O     O_R   0.956260 0.218170 0.670000 -0.546290
O4    O     O_R   0.043740 0.218170 0.330000 -0.552696
O5    O     O_R   0.320940 0.626760 0.674370 -0.516446
O6    O     O_R   0.679060 0.626760 0.325630 -0.523020
O7    O     O_R   0.820940 0.126760 0.674370 -0.523019
O8    O     O_R   0.179060 0.126760 0.325630 -0.516448
O9    O     O_3   0.334530 0.834540 0.749640 -0.300913
O10   O     O_3   0.665470 0.834540 0.250360 -0.301371
O11   O     O_3   0.834530 0.334540 0.749640 -0.301372
O12   O     O_R   0.784910 0.709860 0.171870 -0.503591
O13   O     O_3   0.165470 0.334540 0.250360 -0.300914
O14   O     O_R   0.236990 0.958390 0.823710 -0.545316
O15   O     O_R   0.763010 0.958390 0.176290 -0.545178
O16   O     O_R   0.736990 0.458390 0.823710 -0.545179
O17   O     O_R   0.263010 0.458390 0.176290 -0.545313
O18   O     O_R   0.332380 0.074750 0.830850 -0.456108
O19   O     O_R   0.667620 0.074750 0.169150 -0.455178
O20   O     O_R   0.832380 0.574750 0.830850 -0.455179
O21   O     O_R   0.167620 0.574750 0.169150 -0.456112
O22   O     O_R   0.445800 0.917770 0.825070 -0.480600
O23   O     O_R   0.715090 0.209860 0.828130 -0.503592
O24   O     O_R   0.554200 0.917770 0.174930 -0.478062
O25   O     O_R   0.945800 0.417770 0.825070 -0.478061
O26   O     O_R   0.054200 0.417770 0.174930 -0.480603
O27   O     O_R   0.456410 0.716580 0.829970 -0.412105
O28   O     O_R   0.543590 0.716580 0.170030 -0.409653
O29   O     O_R   0.956410 0.216580 0.829970 -0.409654
O30   O     O_R   0.043590 0.216580 0.170030 -0.412100
O31   O     O_R   0.321080 0.625290 0.822650 -0.427449
O32   O     O_R   0.678920 0.625290 0.177350 -0.427095
O33   O     O_R   0.821080 0.125290 0.822650 -0.427093
O34   O     O_R   0.284910 0.209860 0.171870 -0.503964
O35   O     O_R   0.178920 0.125290 0.177350 -0.427450
O36   O     O_R   0.214930 0.711450 0.668160 -0.428382
O37   O     O_R   0.785070 0.711450 0.331840 -0.426440
O38   O     O_R   0.714930 0.211450 0.668160 -0.426439
O39   O     O_R   0.285070 0.211450 0.331840 -0.428380
O40   O     O_R   0.236850 0.959870 0.675420 -0.445542
O41   O     O_R   0.763150 0.959870 0.324580 -0.445703
O42   O     O_R   0.736850 0.459870 0.675420 -0.445703
O43   O     O_R   0.263150 0.459870 0.324580 -0.445542
O44   O     O_R   0.332230 0.076350 0.670880 -0.508675
O45   O     O_R   0.445660 0.919250 0.676780 -0.448140
O46   O     O_R   0.667770 0.076350 0.329120 -0.514308
O47   O     O_R   0.832230 0.576350 0.670880 -0.514309
O48   O     O_R   0.167770 0.576350 0.329120 -0.508674
O49   O     O_3   0.446064 0.060815 0.136995 -0.666392
O50   O     O_3   0.554004 0.060752 0.862941 -0.666668
O51   O     O_3   0.945999 0.560758 0.137059 -0.666667
O52   O     O_3   0.053938 0.560810 0.863005 -0.666395
O53   O     O_3   0.451068 0.905033 0.441526 -0.667484
O54   O     O_3   0.539529 0.955894 0.571226 -0.651744
O55   O     O_3   0.960470 0.455896 0.428773 -0.651749
O56   O     O_R   0.554340 0.919250 0.323220 -0.470813
O57   O     O_3   0.048936 0.405024 0.558476 -0.667495
O58   O     O_R   0.945660 0.419250 0.676780 -0.470817
O59   O     O_R   0.054340 0.419250 0.323220 -0.448141
O60   O     O_R   0.456260 0.718170 0.670000 -0.552696

loop_
_geom_bond_atom_site_label_1
_geom_bond_atom_site_label_2
_ccdc_geom_bond_type
C44   C49   S    
C43   C73   S    
C31   C66   S    
Cr9   O24   S    
Cr11  O48   S    
C56   C76   A    
Cr12  O27   S    
C80   F1    S    
H22   O49   S    
C7    C20   D    
C14   C18   S    
C2    C84   A    
Cr9   O46   S    
C67   C77   A    
C24   C27   D    
C7    C55   S    
C75   C76   A    
C12   O19   A    
C40   O22   A    
C2    H6    S    
Cr5   O10   S    
C43   O30   A    
C32   C68   S    
C15   C19   S    
C6    C19   D    
Cr10  O11   S    
Cr1   O9    S    
C70   O8    A    
Cr4   O8    S    
C5    C53   S    
C15   H10   S    
C16   H11   S    
C18   F16   S    
C6    H15   S    
C67   O51   S    
C10   C15   D    
Cr2   O2    S    
C43   O26   A    
Cr12  O60   S    
C29   H20   S    
C22   C62   S    
C42   O29   A    
C45   O49   S    
Cr4   O13   S    
C3    C4    A    
H30   O57   S    
C62   O60   A    
Cr6   O11   S    
Cr9   O56   S    
C38   H34   S    
C66   O36   A    
H25   O51   S    
C35   C70   S    
Cr8   O22   S    
C84   H5    S    
Cr10  O58   S    
C5    H14   S    
C7    H16   S    
C34   O17   A    
H24   O50   S    
C33   C69   S    
C41   C71   S    
C27   C28   S    
Cr1   O40   S    
Cr12  O9    S    
C67   C84   A    
C83   F11   S    
C14   H9    S    
Cr3   O3    S    
C4    C56   A    
C53   O1    A    
Cr1   O14   S    
Cr4   O4    S    
C46   H12   S    
C78   O52   S    
C31   C49   D    
C25   O57   S    
C53   O31   A    
C55   O23   A    
C57   O34   A    
C22   C28   D    
C19   F2    S    
C68   O37   A    
C49   F12   S    
C56   O50   S    
C77   C79   A    
C59   O46   A    
Cr11  O59   S    
C41   O24   A    
C81   F9    S    
C24   O53   S    
C33   H3    S    
C42   C74   S    
C63   O56   A    
C22   O54   S    
C64   O3    A    
C58   O40   A    
Cr10  O47   S    
C10   F6    S    
Cr8   O45   S    
H27   O53   S    
Cr10  O20   S    
C21   F4    S    
C78   C79   A    
Cr4   O35   S    
C47   C51   S    
C5    C18   D    
Cr6   O38   S    
C52   F15   S    
C39   C58   S    
C64   O58   A    
C3    C45   A    
C50   F13   S    
C17   C21   S    
C33   C51   D    
C23   O20   A    
C48   H31   S    
Cr6   O16   S    
Cr8   O9    S    
C25   C64   S    
Cr6   O23   S    
C9    C14   D    
C63   O2    A    
C29   C30   S    
C2    C78   A    
H28   O54   S    
C8    C57   S    
Cr3   O29   S    
Cr11  O21   S    
C11   C16   D    
Cr12  O5    S    
C16   C20   S    
C30   H21   S    
Cr2   O32   S    
C8    C21   D    
C55   O33   A    
C35   H4    S    
C69   O7    A    
C13   F8    S    
Cr2   O10   S    
C61   O48   A    
C32   C50   D    
C38   C47   D    
C34   O21   A    
C3    H7    S    
C70   O39   A    
C31   H36   S    
C9    F5    S    
C41   O28   A    
C44   H1    S    
C6    C54   S    
C24   C63   S    
C74   C79   A    
C58   O44   A    
C9    C34   S    
Cr3   O7    S    
C36   C44   D    
C1    C13   S    
C36   C61   S    
C57   O35   A    
Cr5   O12   S    
C23   O16   A    
Cr6   O42   S    
C25   C30   D    
Cr7   O39   S    
Cr5   O41   S    
C40   C72   S    
C47   H23   S    
C26   C65   S    
Cr5   O37   S    
Cr7   O17   S    
C4    H8    S    
H29   O55   S    
C80   C81   A    
C42   O25   A    
C51   F14   S    
Cr3   O33   S    
C40   O27   A    
C11   C12   S    
Cr4   O30   S    
C65   O59   A    
C10   C23   S    
Cr1   O36   S    
C66   O5    A    
C46   C50   S    
C68   O6    A    
C13   C17   D    
C45   C75   A    
C28   H19   S    
C37   H33   S    
C65   O4    A    
Cr11  O13   S    
C26   O55   S    
Cr2   O6    S    
C72   C80   A    
C12   O15   A    
C71   C75   A    
C35   C52   D    
C17   H13   S    
C20   F3    S    
Cr7   O43   S    
C1    O18   A    
Cr3   O11   S    
C72   C76   A    
Cr11  O26   S    
C54   O32   A    
Cr5   O15   S    
Cr2   O28   S    
C82   F10   S    
Cr12  O31   S    
C36   H32   S    
Cr9   O10   S    
Cr1   O1    S    
C37   C60   S    
C59   O41   A    
C1    O14   A    
Cr10  O25   S    
C54   O12   A    
C38   C59   S    
Cr8   O18   S    
C48   C52   S    
Cr9   O19   S    
C26   C29   D    
C60   O42   A    
C82   C83   A    
Cr7   O34   S    
C39   H35   S    
C8    H17   S    
C61   O43   A    
C27   H18   S    
C73   C77   A    
Cr7   O13   S    
C11   F7    S    
C62   O45   A    
C32   H2    S    
C37   C46   D    
C69   O38   A    
C73   C83   A    
C74   C82   A    
Cr8   O44   S    
C60   O47   A    
C39   C48   D    
C71   C81   A    
H26   O52   S    
