data_mof_unit_1596.cif
_audit_creation_date              2012-12-11T14:17:34-0500
_audit_creation_method            fapswitch 2.2
_symmetry_space_group_name_H-M    P1
_symmetry_Int_Tables_number       1
_space_group_crystal_system       triclinic
_cell_length_a                    6.939202
_cell_length_b                    13.650626
_cell_length_c                    20.477126
_cell_angle_alpha                 102.128689
_cell_angle_beta                  90.051494
_cell_angle_gamma                 90.752188
_cell_volume                      1896.21050008

loop_
_atom_site_label
_atom_site_type_symbol
_atom_type_description
_atom_site_fract_x
_atom_site_fract_y
_atom_site_fract_z
_atom_type_partial_charge
O1    O     O_R   0.506860 0.599390 0.449240 -0.539663
O2    O     O_R   0.180220 0.594600 0.586780 -0.511478
O3    O     O_R   0.004500 0.400610 0.550760 -0.538754
C1    C     C_R   0.349485 0.617811 0.612671 0.767867
O4    O     O_R   0.177490 0.611290 0.451970 -0.544392
O5    O     O_R   0.001750 0.417420 0.414990 -0.545147
C2    C     C_R   0.347159 0.637386 0.434740 0.688382
O6    O     O_R   0.509610 0.582580 0.585010 -0.547232
O7    O     O_3   0.337420 0.436370 0.488020 -0.380459
V1    V     V_3+5 0.064680 0.511800 0.502220 1.443409
O8    O     O_R   0.671710 0.405400 0.413220 -0.544207
C3    C     C_R   0.840423 0.383619 0.386548 0.750708
O9    O     O_R   0.674440 0.388710 0.548030 -0.544020
C4    C     C_R   0.842922 0.362046 0.564482 0.700621
V2    V     V_3+5 0.564010 0.488200 0.497780 1.419186
O10   O     O_3   0.841140 0.563630 0.511980 -0.364610
C5    C     C_R   0.896353 0.109847 0.606046 -0.153049
H1    H     H_    0.886857 0.164501 0.515267 0.100825
H2    H     H_    0.883131 0.981468 0.683788 0.117139
H3    H     H_    0.907805 0.032544 0.579609 0.111923
C6    C     C_R   0.853562 0.283230 0.602322 -0.032894
C7    C     C_R   0.881410 0.307530 0.922594 -0.236571
C8    C     C_R   0.922055 0.381772 0.887909 -0.090348
C9    C     C_R   0.941616 0.359266 0.818793 0.213733
C10   C     C_R   0.898043 0.259993 0.781796 -0.002216
C11   C     C_R   0.872073 0.180900 0.817830 0.019862
C12   C     C_R   0.883951 0.235994 0.710523 0.070878
C13   C     C_R   0.892368 0.134776 0.676179 0.109949
C14   C     C_R   0.884439 0.058598 0.711426 -0.194889
C15   C     C_R   0.857301 0.079359 0.780501 0.101266
C16   C     C_R   0.849655 0.308494 0.672031 -0.221927
C17   C     C_R   0.881423 0.184267 0.569318 -0.171508
C18   C     C_R   0.865973 0.207490 0.889389 -0.067736
H4    H     H_    0.813865 0.384418 0.694948 0.111758
H5    H     H_    0.876980 0.327510 0.976704 0.115494
H6    H     H_    0.951672 0.457196 0.915710 0.133090
C19   C     C_2   0.008941 0.285092 0.284674 0.218350
C20   C     C_2   0.847571 0.308857 0.322181 -0.394778
H7    H     H_    0.714673 0.267627 0.306464 0.122047
C21   C     C_2   0.010353 0.200560 0.225159 0.190586
C22   C     C_2   0.865733 0.186622 0.179230 -0.369522
H8    H     H_    0.738632 0.233022 0.188604 0.115345
C23   C     C_2   0.239996 0.811443 0.775459 -0.208118
C24   C     C_2   0.355968 0.801946 0.826703 0.007650
H9    H     H_    0.150889 0.877313 0.780944 0.114650
C25   C     C_2   0.211846 0.733986 0.713045 0.237224
C26   C     C_2   0.364152 0.692501 0.676503 -0.301634
H10   H     H_    0.508655 0.717612 0.692761 0.109854
C27   C     C_R   0.450858 0.882073 0.385169 -0.161569
H11   H     H_    0.445204 0.832136 0.477703 0.104844
H12   H     H_    0.506922 0.003165 0.301243 0.122052
H13   H     H_    0.496677 0.957206 0.409273 0.112316
C28   C     C_R   0.361552 0.714076 0.394592 -0.030486
C29   C     C_R   0.294931 0.688619 0.072695 -0.165786
C30   C     C_R   0.265553 0.614169 0.108732 -0.116988
C31   C     C_R   0.289252 0.635128 0.177880 -0.158036
C32   C     C_R   0.345209 0.732141 0.213042 0.077457
C33   C     C_R   0.379955 0.807575 0.175427 0.069545
C34   C     C_R   0.366909 0.756952 0.284146 0.072246
C35   C     C_R   0.425784 0.855859 0.315605 0.144376
C36   C     C_R   0.461275 0.927807 0.277538 -0.205534
C37   C     C_R   0.438965 0.904211 0.208649 -0.212331
C38   C     C_R   0.333595 0.687097 0.325368 -0.215080
C39   C     C_R   0.420661 0.811339 0.424284 -0.172678
C40   C     C_R   0.352211 0.785060 0.105194 -0.077678
H14   H     H_    0.290266 0.610582 0.305382 0.092429
H15   H     H_    0.271613 0.671165 0.019131 0.107757
H16   H     H_    0.262162 0.573618 0.202155 0.111742
H17   H     H_    0.221721 0.539637 0.082926 0.120475
H18   H     H_    0.468752 0.962772 0.181568 0.128204
O11   O     O_R   0.203230 0.917310 0.915020 -0.549252
O12   O     O_R   0.535500 0.888690 0.048040 -0.541779
O13   O     O_R   0.711080 0.082610 0.085000 -0.545185
C41   C     C_R   0.365976 0.862667 0.065373 0.687307
O14   O     O_R   0.532630 0.905370 0.913230 -0.542333
O15   O     O_R   0.708190 0.099410 0.949230 -0.542085
C42   C     C_R   0.363545 0.881684 0.887818 0.728775
O16   O     O_R   0.206120 0.900510 0.050790 -0.538311
O17   O     O_3   0.375360 0.063570 0.011990 -0.371880
V3    V     V_3+5 0.648170 0.988200 0.997780 1.408832
O18   O     O_R   0.038240 0.111390 0.951940 -0.542827
C43   C     C_R   0.870426 0.134427 0.932455 0.717267
O19   O     O_R   0.041120 0.094710 0.086750 -0.536250
C44   C     C_R   0.873436 0.114599 0.113934 0.765031
V4    V     V_3+5 0.148810 0.011930 0.002180 1.415155
O20   O     O_3   0.871750 0.936430 0.988010 -0.371162
C45   C     C_3   0.184522 0.133572 0.217105 -0.680585
H19   H     H_    0.268798 0.144256 0.264266 0.191982
H20   H     H_    0.138041 0.053650 0.204321 0.187898
H21   H     H_    0.281394 0.151018 0.177846 0.213737
C46   C     C_3   0.473875 0.709335 0.826049 -0.758659
H22   H     H_    0.518678 0.705352 0.877523 0.196608
H23   H     H_    0.388077 0.640375 0.805767 0.225484
H24   H     H_    0.606824 0.711290 0.796349 0.199577
N1    N     N_3   0.018014 0.709251 0.690436 -0.634289
H25   H     H_    0.944550 0.683464 0.728222 0.217406
H26   H     H_    0.951767 0.775030 0.684188 0.208076
N2    N     N_3   0.038157 0.434355 0.790603 -0.692626
H27   H     H_    0.119203 0.402753 0.748666 0.241934
H28   H     H_    0.938488 0.485902 0.780381 0.222572
C47   C     C_3   0.797761 0.990902 0.809641 -0.733883
H29   H     H_    0.779859 0.920776 0.771053 0.179152
H30   H     H_    0.906958 0.974904 0.845211 0.208338
H31   H     H_    0.654764 0.006126 0.833070 0.218181
N3    N     N_3   0.189231 0.337792 0.301227 -0.661331
H32   H     H_    0.242876 0.323062 0.345835 0.247448
H33   H     H_    0.168885 0.414656 0.305548 0.227750

loop_
_geom_bond_atom_site_label_1
_geom_bond_atom_site_label_2
_ccdc_geom_bond_type
C33   C37   A    
C45   H19   S    
C47   H29   S    
H11   C39   S    
C22   H8    S    
C29   C30   A    
N1    H25   S    
H12   C36   S    
O11   C42   A    
C1    O6    A    
O18   C43   A    
C29   C40   A    
V4    O20   S    
C7    H5    S    
C6    C16   A    
C19   C20   D    
C27   C35   A    
C9    N2    S    
C21   C45   S    
C24   C42   S    
C19   C21   S    
O5    C3    A    
C20   H7    S    
C28   C39   A    
C32   C34   A    
V2    O10   S    
C8    H6    S    
C5    H3    S    
C31   C32   A    
C37   H18   S    
V3    O20   S    
C33   C40   A    
O11   V4    S    
O8    V2    S    
C25   N1    S    
O19   C44   A    
C8    C9    A    
O1    V2    S    
C18   C43   S    
O13   C44   A    
C38   H14   S    
C34   C35   A    
C47   H30   S    
C27   C39   A    
O9    C4    A    
O7    V1    S    
C6    C17   A    
C12   C16   A    
C9    C10   A    
O12   C41   A    
O15   C43   A    
C46   H22   S    
O4    C2    A    
C29   H15   S    
C10   C11   A    
C31   H16   S    
C22   C44   S    
C40   C41   S    
C35   C36   A    
O2    C1    A    
C23   C24   D    
C19   N3    S    
C14   C15   A    
C46   H23   S    
N3    H33   S    
C11   C18   A    
C26   H10   S    
C27   H13   S    
C30   C31   A    
C16   H4    S    
O14   C42   A    
C30   H17   S    
O3    C4    A    
O16   V4    S    
C21   C22   D    
O19   V4    S    
C11   C15   A    
C47   H31   S    
N2    H28   S    
C45   H20   S    
C10   C12   A    
H1    C17   S    
C2    C28   S    
O2    V1    S    
O17   V4    S    
C4    C6    S    
O14   V3    S    
C7    C18   A    
C25   C26   D    
C13   C14   A    
O1    C2    A    
C5    C13   A    
O15   V3    S    
O5    V1    S    
O8    C3    A    
N1    H26   S    
O6    V2    S    
N3    H32   S    
C34   C38   A    
O9    V2    S    
O7    V2    S    
O4    V1    S    
C23   H9    S    
O3    V1    S    
V1    O10   S    
C46   H24   S    
C28   C38   A    
C32   C33   A    
C15   C47   S    
O13   V3    S    
C3    C20   S    
C36   C37   A    
C23   C25   S    
C24   C46   S    
O17   V3    S    
O12   V3    S    
N2    H27   S    
C41   O16   A    
C45   H21   S    
C12   C13   A    
C5    C17   A    
C7    C8    A    
O18   V4    S    
C1    C26   S    
H2    C14   S    
