data_mof_unit_2675.cif
_audit_creation_date              2013-03-05T15:45:55-0500
_audit_creation_method            fapswitch 2.2
_symmetry_space_group_name_H-M    P1
_symmetry_Int_Tables_number       1
_space_group_crystal_system       triclinic
_cell_length_a                    8.569331
_cell_length_b                    14.987665
_cell_length_c                    19.078688
_cell_angle_alpha                 98.003908
_cell_angle_beta                  94.923912
_cell_angle_gamma                 98.489471
_cell_volume                      2385.69947776

loop_
_atom_site_label
_atom_site_type_symbol
_atom_site_description
_atom_site_fract_x
_atom_site_fract_y
_atom_site_fract_z
_atom_type_partial_charge
P1    P     P_3+3 0.990670 0.707470 0.561860 0.502706
O1    O     O_2   0.164990 0.721870 0.541490 -0.380369
O2    O     O_3   0.893010 0.608480 0.539150 -0.351862
O3    O     O_3   0.389100 0.667490 0.413860 -0.406620
O4    O     O_2   0.325025 0.824517 0.475556 -0.398942
O5    O     O_3   0.991915 0.746000 0.654366 -0.600429
O6    O     O_3   0.369118 0.826608 0.344044 -0.640045
H1    H     H_    0.380924 0.701415 0.283211 0.074412
C1    C     C_3   0.306653 0.799275 0.217959 -0.129977
H2    H     H_    0.182403 0.795316 0.228040 0.156182
P2    P     P_3+3 0.340140 0.430100 0.338890 0.459529
P3    P     P_3+3 0.928399 0.618856 0.285910 0.514447
O7    O     O_2   0.172070 0.457600 0.329050 -0.401011
O8    O     O_3   0.964370 0.622050 0.377340 -0.407671
O9    O     O_2   0.062220 0.575975 0.251870 -0.356712
O10   O     O_3   0.334230 0.313715 0.302423 -0.652139
O11   O     O_3   0.955676 0.731978 0.269577 -0.508282
C2    C     C_3   0.975219 0.791990 0.334686 0.450165
H3    H     H_    0.083570 0.783481 0.367487 0.137112
H4    H     H_    0.872043 0.776737 0.364858 0.038087
C3    C     C_3   0.983614 0.891476 0.320960 -0.648877
H5    H     H_    0.969239 0.894210 0.262852 0.261533
C4    C     C_3   0.725551 0.336669 0.315928 0.221232
H6    H     H_    0.626115 0.357954 0.343694 0.126534
H7    H     H_    0.821589 0.396579 0.321064 0.084268
C5    C     C_3   0.667426 0.302518 0.236735 0.033399
H8    H     H_    0.601378 0.353043 0.216565 0.059263
Ba1   Ba    Ba6+2 0.161750 0.544670 0.467760 1.600163
C6    C     C_3   0.082986 0.705921 0.702452 0.515873
C7    C     C_3   0.139893 0.775800 0.771507 -0.076015
H9    H     H_    0.240338 0.753819 0.801848 0.161742
H10   H     H_    0.045039 0.775933 0.807191 0.113779
C8    C     C_3   0.224877 0.245676 0.323477 0.709385
C9    C     C_3   0.191380 0.163701 0.261725 -0.608527
H11   H     H_    0.188805 0.190226 0.210093 0.222445
H12   H     H_    0.287751 0.121506 0.262649 0.212026
P4    P     P_3+3 0.819620 0.292520 0.438080 0.479245
O12   O     O_2   0.645300 0.278070 0.458480 -0.290428
O13   O     O_3   0.917280 0.391520 0.460790 -0.397033
O14   O     O_3   0.421200 0.332510 0.586090 -0.353995
O15   O     O_3   0.781402 0.265558 0.345395 -0.588191
P5    P     P_3+3 0.883217 0.373048 0.713863 0.511128
O16   O     O_3   0.383620 0.545480 0.584560 -0.400809
O17   O     O_3   0.845920 0.377940 0.622610 -0.355268
O18   O     O_2   0.763515 0.425654 0.751766 -0.327446
O19   O     O_3   0.833578 0.260103 0.729630 -0.576319
Ba2   Ba    Ba6+2 0.648430 0.455320 0.532180 1.600931
P6    P     P_3+3 0.433810 0.786815 0.422228 0.403803
C10   C     C_3   0.407458 0.776132 0.281801 0.590988
H13   H     H_    0.346042 0.871194 0.210633 0.144949
O20   O     O_3   0.426680 0.454510 0.415380 -0.357871
C11   C     C_3   0.636357 0.738282 0.710783 0.278781
H14   H     H_    0.725696 0.699737 0.688855 0.132246
C12   C     C_3   0.708346 0.789261 0.785775 -0.014263
H15   H     H_    0.764372 0.738987 0.812897 0.146025
P7    P     P_3+3 0.468767 0.566838 0.675308 0.451773
O21   O     O_2   0.638220 0.542340 0.670930 -0.302244
O22   O     O_3   0.495524 0.681147 0.718863 -0.589648
H16   H     H_    0.884479 0.920606 0.343653 0.250243
C13   C     C_3   0.810483 0.199803 0.664754 0.367704
H17   H     H_    0.694888 0.202925 0.636121 0.173575
H18   H     H_    0.902369 0.217432 0.629495 0.031699
C14   C     C_3   0.817953 0.101637 0.677933 -0.640921
H19   H     H_    0.803066 0.055956 0.625956 0.197096
H20   H     H_    0.936014 0.097875 0.705110 0.244325
P8    P     P_3+3 0.369286 0.214325 0.580827 0.496712
C15   C     C_3   0.369326 0.240960 0.719010 0.510645
O23   O     O_2   0.483825 0.171364 0.532799 -0.345575
O24   O     O_3   0.418303 0.182142 0.663963 -0.560129
H21   H     H_    0.403392 0.313873 0.713214 0.089113
H22   H     H_    0.416255 0.272871 0.834664 0.210633
C16   C     C_3   0.454225 0.228361 0.789918 -0.904469
H23   H     H_    0.583964 0.248017 0.790434 0.281883
H24   H     H_    0.427301 0.156098 0.798437 0.280760
C17   C     C_R   0.640531 0.830453 0.463631 0.188890
H25   H     H_    0.513918 0.966781 0.410725 0.197562
C18   C     C_R   0.884194 0.790603 0.518220 0.290011
C19   C     C_R   0.070167 0.233773 0.516586 -0.435631
C20   C     C_R   0.162447 0.172301 0.540928 0.329767
C21   C     C_R   0.101473 0.079259 0.532457 -0.278197
C22   C     C_R   0.946964 0.044527 0.498530 0.058824
C23   C     C_R   0.857084 0.108051 0.470176 -0.047789
C24   C     C_R   0.877666 0.949192 0.493213 0.020681
C25   C     C_R   0.717205 0.921047 0.462876 -0.032774
C26   C     C_R   0.635499 0.984573 0.433889 -0.089517
C27   C     C_R   0.705543 0.074475 0.435162 -0.104261
C28   C     C_R   0.960838 0.880855 0.517326 -0.332504
C29   C     C_R   0.718603 0.770596 0.499770 -0.330715
C30   C     C_R   0.919853 0.203803 0.478960 0.179464
H26   H     H_    0.084394 0.896346 0.537734 0.198421
H27   H     H_    0.119051 0.305690 0.524546 0.178456
H28   H     H_    0.177382 0.035964 0.553632 0.163427
H29   H     H_    0.635787 0.117930 0.410139 0.209188
C31   C     C_R   0.614036 0.544395 0.300613 -0.332296
C32   C     C_R   0.460221 0.493769 0.276979 0.222381
C33   C     C_R   0.414590 0.473419 0.201603 -0.091067
C34   C     C_R   0.523197 0.499001 0.152532 0.017546
C35   C     C_R   0.680958 0.535744 0.179044 -0.230429
C36   C     C_R   0.725908 0.558475 0.251934 0.321520
C37   C     C_R   0.515924 0.560785 0.034204 0.041916
C38   C     C_R   0.457735 0.551666 0.961797 -0.128253
C39   C     C_R   0.361462 0.471377 0.926265 0.132593
C40   C     C_R   0.325651 0.398714 0.964360 -0.168084
C41   C     C_R   0.382981 0.406652 0.036469 -0.129783
C42   C     C_R   0.474240 0.488413 0.073442 0.167219
C43   C     C_R   0.145206 0.425192 0.822514 -0.255693
C44   C     C_R   0.091359 0.421639 0.750173 0.340499
C45   C     C_R   0.352666 0.495919 0.730199 0.281527
C46   C     C_R   0.405838 0.499173 0.802014 -0.232473
C47   C     C_R   0.303671 0.463499 0.849082 0.017566
C48   C     C_R   0.197367 0.454681 0.704193 -0.460851
H30   H     H_    0.525956 0.531976 0.821405 0.167539
H31   H     H_    0.486839 0.608304 0.933135 0.164233
H32   H     H_    0.255398 0.334963 0.937992 0.134186
H33   H     H_    0.356749 0.347884 0.063102 0.135814
H34   H     H_    0.063355 0.399508 0.857978 0.157179
H35   H     H_    0.769102 0.549407 0.142870 0.181392
H36   H     H_    0.156337 0.452714 0.648673 0.172675
N1    N     N_3   0.558013 0.215796 0.228037 -0.184996
H37   H     H_    0.511923 0.198488 0.174474 0.134900
H38   H     H_    0.618865 0.163675 0.240899 0.198398
N2    N     N_R   0.801359 0.294738 0.194579 0.243622
O25   O     O_R   0.887286 0.368484 0.181725 -0.445453
O26   O     O_R   0.828966 0.215682 0.165194 -0.384476
N3    N     N_3   0.221466 0.680694 0.673070 -0.187295
H39   H     H_    0.285507 0.736547 0.655509 0.183644
H40   H     H_    0.189880 0.625526 0.632168 0.167029
N4    N     N_R   0.987004 0.623877 0.718721 0.186400
O27   O     O_R   0.935572 0.557502 0.667107 -0.349830
O28   O     O_R   0.964607 0.611961 0.783668 -0.451882
N5    N     N_R   0.188782 0.869947 0.759115 0.278921
O29   O     O_R   0.211186 0.935693 0.812973 -0.333225
O30   O     O_R   0.216378 0.889519 0.696496 -0.392132
N6    N     N_3   0.076629 0.276675 0.335429 -0.193794
H41   H     H_    0.038505 0.304860 0.291248 0.176424
H42   H     H_    0.094527 0.325529 0.380965 0.148914
N7    N     N_R   0.293946 0.219882 0.388732 0.211361
O31   O     O_R   0.343498 0.283672 0.442454 -0.347338
O32   O     O_R   0.314944 0.136552 0.393300 -0.464706
N8    N     N_R   0.314260 0.738079 0.152373 0.252022
O33   O     O_R   0.349580 0.771985 0.095474 -0.351400
O34   O     O_R   0.260523 0.651324 0.147165 -0.385162
N9    N     N_3   0.037817 0.106798 0.263150 -0.156771
H43   H     H_    0.032380 0.046743 0.227223 0.173977
H44   H     H_    0.030411 0.088842 0.313834 0.179866
N10   N     N_R   0.573518 0.803791 0.272771 0.201358
O35   O     O_R   0.627104 0.890069 0.274791 -0.436616
O36   O     O_R   0.648943 0.743980 0.240741 -0.449080
N11   N     N_3   0.598519 0.801771 0.662399 -0.237624
H45   H     H_    0.703471 0.838165 0.649782 0.083996
H46   H     H_    0.532281 0.848308 0.686367 0.183213
N12   N     N_3   0.831872 0.866683 0.781886 -0.215956
H47   H     H_    0.883197 0.893072 0.833759 0.170774
H48   H     H_    0.781369 0.919159 0.762968 0.162115
N13   N     N_R   0.586210 0.819393 0.828641 0.277467
O37   O     O_R   0.547209 0.778189 0.881784 -0.373820
O38   O     O_R   0.527969 0.892657 0.818900 -0.355340
N14   N     N_3   0.695449 0.067822 0.720741 -0.173608
H49   H     H_    0.583897 0.066547 0.693583 0.217326
H50   H     H_    0.705740 0.111333 0.769290 0.209175
N15   N     N_3   0.198046 0.218194 0.719931 -0.184674
H51   H     H_    0.145786 0.251395 0.681962 0.021790
H52   H     H_    0.165354 0.246234 0.768709 0.113438
N16   N     N_3   0.626696 0.691322 0.520063 -0.154831
H53   H     H_    0.676727 0.677983 0.568167 0.141431
H54   H     H_    0.519566 0.708356 0.535507 0.178960
N17   N     N_3   0.619212 0.643054 0.067302 -0.189103
H55   H     H_    0.635833 0.689716 0.031598 0.173110
H56   H     H_    0.564164 0.673796 0.108615 0.226636
N18   N     N_3   0.261336 0.423291 0.173637 -0.179528
H57   H     H_    0.250319 0.357880 0.187359 0.142558
H58   H     H_    0.174341 0.456555 0.194827 0.243612
N19   N     N_3   0.662380 0.586594 0.372762 -0.157811
H59   H     H_    0.678440 0.656801 0.372055 0.106043
H60   H     H_    0.578601 0.577432 0.406903 0.205806
N20   N     N_3   0.130033 0.950651 0.353745 -0.191641
H61   H     H_    0.219192 0.944499 0.320305 0.191703
H62   H     H_    0.165446 0.934573 0.403625 0.195488

loop_
_geom_bond_atom_site_label_1
_geom_bond_atom_site_label_2
_geom_bond_distance
_ccdc_geom_bond_type
O14   Ba2   2.837292 S    
C24   C28   1.434948 A    
C14   H20   1.109284 S    
Ba1   Ba2   4.682366 S    
C38   C39   1.404250 A    
C6    N3    1.432841 S    
N13   O38   1.300785 A    
C2    C3    1.541851 S    
P1    C18   1.890059 S    
P8    O23   1.547345 D    
C32   C33   1.435303 A    
N4    O27   1.294938 A    
N15   H51   1.040874 S    
N17   H56   1.040653 S    
N19   H59   1.043000 S    
C45   C46   1.398190 A    
P8    C20   1.850152 S    
N7    O32   1.301440 A    
C37   C42   1.422039 A    
C6    C7    1.557272 S    
C23   C30   1.437550 A    
C48   H36   1.082041 S    
C31   C36   1.404925 A    
O2    Ba1   2.983149 S    
N8    O34   1.300748 A    
C3    H16   1.104424 S    
N11   H46   1.044210 S    
O3    P6    1.754521 S    
C7    H9    1.111666 S    
C9    H11   1.112118 S    
C1    N8    1.457136 S    
C17   C25   1.420978 A    
P8    O24   1.755964 S    
C43   C44   1.408399 A    
C7    N5    1.468946 S    
C38   H31   1.082571 S    
P7    O21   1.555661 D    
C13   H18   1.105134 S    
P1    O1    1.567449 D    
P5    O19   1.757301 S    
C4    C5    1.540482 S    
P7    C45   1.842004 S    
P3    C36   1.852032 S    
N15   H52   1.044864 S    
C28   H26   1.076120 S    
C8    N6    1.440910 S    
Ba2   O20   2.799206 S    
C18   C29   1.409472 A    
C8    N7    1.457691 S    
C11   N11   1.465283 S    
P3    O11   1.751812 S    
P1    Ba1   3.407937 S    
C4    H6    1.104150 S    
O7    Ba1   2.797635 S    
P7    O22   1.770050 S    
P4    Ba2   3.408487 S    
P5    C44   1.858897 S    
C2    H4    1.108903 S    
O17   Ba2   2.796637 S    
C34   C42   1.510980 S    
N1    H38   1.045963 S    
C33   N18   1.431988 S    
C3    H5    1.112014 S    
N14   H50   1.044873 S    
P6    C17   1.861081 S    
C39   C40   1.403043 A    
P5    O17   1.756569 S    
C41   C42   1.411539 A    
O3    Ba1   2.837924 S    
C11   C12   1.554429 S    
C34   C35   1.404275 A    
N10   O36   1.296563 A    
N19   H60   1.017179 S    
C19   C30   1.398892 A    
O4    P6    1.543284 D    
C9    N9    1.463219 S    
N13   O37   1.301028 A    
C17   C29   1.413544 A    
P1    O5    1.777517 S    
C7    H10   1.104215 S    
C15   C16   1.528995 S    
C40   H32   1.082944 S    
C1    C10   1.541295 S    
C25   C26   1.406970 A    
O6    C10   1.407350 S    
C16   H24   1.111004 S    
C46   H30   1.082893 S    
N17   H55   1.045614 S    
C19   C20   1.400376 A    
C2    H3    1.107892 S    
C12   N12   1.465359 S    
Ba1   O13   2.850008 S    
C26   C27   1.387801 A    
O14   P8    1.748059 S    
C22   C23   1.442462 A    
C20   C21   1.396901 A    
C43   H34   1.082689 S    
C13   H17   1.099892 S    
P1    O2    1.575246 S    
P5    O18   1.550520 D    
C21   H28   1.076998 S    
C5    N1    1.466091 S    
P4    O12   1.567674 D    
C27   H29   1.077949 S    
O10   C8    1.405659 S    
Ba2   O21   2.797885 S    
C41   H33   1.081803 S    
P2    O10   1.777425 S    
C15   N15   1.459200 S    
C24   C25   1.424015 A    
P3    O9    1.542428 D    
C3    N20   1.460947 S    
C33   C34   1.426129 A    
O11   C2    1.410236 S    
C5    H8    1.100987 S    
N8    O33   1.301109 A    
O12   Ba2   2.822660 S    
C11   O22   1.406090 S    
N20   H61   1.042767 S    
P3    O8    1.737875 S    
C37   N17   1.437875 S    
N14   H49   1.043775 S    
C13   C14   1.536242 S    
C21   C22   1.413709 A    
C39   C47   1.495557 S    
N2    O26   1.301821 A    
N5    O29   1.300762 A    
C12   N13   1.466922 S    
C11   H14   1.101415 S    
C35   H35   1.082559 S    
O13   Ba2   2.983903 S    
N10   O35   1.300857 A    
C1    H2    1.092638 S    
P2    C32   1.896653 S    
N9    H44   1.043766 S    
C12   H15   1.112984 S    
N16   H53   1.036787 S    
O19   C13   1.407684 S    
C44   C48   1.401776 A    
C1    H13   1.112647 S    
N12   H48   1.043498 S    
C16   H23   1.106135 S    
N5    O30   1.301875 A    
N4    O28   1.302482 A    
C22   C24   1.450289 A    
N6    H42   1.039812 S    
N1    H37   1.046059 S    
N6    H41   1.043225 S    
C19   H27   1.081911 S    
N7    O31   1.295149 A    
Ba1   O16   2.799833 S    
C4    O15   1.397248 S    
C45   C48   1.399149 A    
P4    C30   1.903957 S    
C15   H21   1.112057 S    
O8    Ba1   2.795940 S    
O6    P6    1.758249 S    
N16   H54   1.043777 S    
H22   C16   1.110343 S    
P4    O13   1.575370 S    
C29   N16   1.444307 S    
N11   H45   1.045577 S    
C23   C27   1.396562 A    
P2    O7    1.558791 D    
N3    H39   1.043179 S    
N18   H58   1.035898 S    
P2    Ba1   3.402208 S    
H1    C10   1.113867 S    
O2    Ba2   2.850689 S    
C37   C38   1.408805 A    
Ba1   O20   2.982951 S    
C8    C9    1.553916 S    
C10   N10   1.454074 S    
C9    H12   1.112232 S    
C4    H7    1.112039 S    
P4    O15   1.749271 S    
C31   C32   1.422612 A    
P2    O20   1.548831 S    
C31   N19   1.431318 S    
C14   H19   1.109876 S    
O16   P7    1.786693 S    
O5    C6    1.407315 S    
N12   H47   1.046043 S    
C18   C28   1.416830 A    
C43   C47   1.414624 A    
C35   C36   1.391299 A    
N18   H57   1.042562 S    
C6    N4    1.461630 S    
C40   C41   1.403309 A    
N3    H40   1.041087 S    
O1    Ba1   2.822055 S    
C5    N2    1.466145 S    
C14   N14   1.459891 S    
C15   O24   1.408315 S    
N2    O25   1.300061 A    
C46   C47   1.410408 A    
O16   Ba2   2.982070 S    
H25   C26   1.076104 S    
N9    H43   1.045217 S    
N20   H62   1.044829 S    
