data_mof_unit_1901.cif
_audit_creation_date              2012-12-11T15:41:07-0500
_audit_creation_method            fapswitch 2.2
_symmetry_space_group_name_H-M    P1
_symmetry_Int_Tables_number       1
_space_group_crystal_system       triclinic
_cell_length_a                    19.169803
_cell_length_b                    11.027595
_cell_length_c                    18.812352
_cell_angle_alpha                 90.23022
_cell_angle_beta                  90.32916
_cell_angle_gamma                 90.115546
_cell_volume                      3976.76545678

loop_
_atom_site_label
_atom_site_type_symbol
_atom_type_description
_atom_site_fract_x
_atom_site_fract_y
_atom_site_fract_z
_atom_type_partial_charge
C1    C     C_R   0.724311 0.962681 0.856204 0.550426
C2    C     C_R   0.275712 0.962483 0.143819 0.549071
C3    C     C_R   0.224310 0.462682 0.856204 0.550422
C4    C     C_R   0.775711 0.462482 0.143820 0.549056
C5    C     C_R   0.704080 0.482152 0.034389 0.030465
C6    C     C_R   0.296239 0.481775 0.965803 0.029616
C7    C     C_R   0.204076 0.982140 0.034390 0.030463
C8    C     C_R   0.796223 0.981837 0.965812 0.029636
C9    C     C_R   0.696422 0.469245 0.961465 0.017462
C10   C     C_R   0.303928 0.468355 0.038663 0.017988
C11   C     C_R   0.196417 0.969232 0.961466 0.017468
C12   C     C_R   0.803909 0.968419 0.038673 0.017974
C13   C     C_R   0.816897 0.409474 0.952244 -0.152435
C14   C     C_R   0.183312 0.408729 0.047671 -0.152659
C15   C     C_R   0.316898 0.909492 0.952241 -0.152440
C16   C     C_R   0.683312 0.908672 0.047664 -0.152652
C17   C     C_R   0.823165 0.415196 0.025726 -0.148846
C18   C     C_R   0.176912 0.415311 0.974227 -0.148688
C19   C     C_R   0.323169 0.915220 0.025723 -0.148848
C20   C     C_R   0.676919 0.915245 0.974219 -0.148698
C21   C     C_3   0.631092 0.442414 0.048213 -0.287366
C22   C     C_3   0.369051 0.441655 0.951666 -0.287397
C23   C     C_3   0.131094 0.942380 0.048217 -0.287370
C24   C     C_3   0.869055 0.941819 0.951684 -0.287375
C25   C     C_3   0.622750 0.426270 0.968523 -0.259712
C26   C     C_3   0.377419 0.425091 0.031256 -0.259775
C27   C     C_3   0.122750 0.926234 0.968528 -0.259703
C28   C     C_3   0.877420 0.925255 0.031274 -0.259789
C29   C     C_R   0.751248 0.424289 0.920007 0.015889
C30   C     C_R   0.249007 0.423393 0.079955 0.016255
C31   C     C_R   0.251246 0.924290 0.920007 0.015881
C32   C     C_R   0.748999 0.923395 0.079956 0.016250
C33   C     C_R   0.484630 0.172028 0.429987 0.029568
C34   C     C_R   0.498303 0.162714 0.576624 0.016763
C35   C     C_R   0.984585 0.672010 0.430013 0.029509
C36   C     C_R   0.998212 0.662744 0.576660 0.016619
C37   C     C_R   0.459683 0.265755 0.472468 0.051441
C38   C     C_R   0.464781 0.261116 0.545235 0.019024
C39   C     C_R   0.959754 0.765867 0.472467 0.051392
C40   C     C_R   0.964812 0.761250 0.545235 0.019070
C41   C     C_R   0.519076 0.063989 0.534137 -0.167630
C42   C     C_R   0.510359 0.067623 0.461088 -0.169831
C43   C     C_R   0.018788 0.563845 0.534213 -0.167647
C44   C     C_R   0.010081 0.567460 0.461161 -0.169581
C45   C     C_R   0.530061 0.177783 0.850676 0.545349
C46   C     C_R   0.469971 0.177631 0.149337 0.545480
C47   C     C_R   0.030058 0.677784 0.850675 0.545324
C48   C     C_R   0.969969 0.677631 0.149336 0.545497
C49   C     C_3   0.482903 0.394102 0.469697 -0.270718
C50   C     C_3   0.483561 0.393057 0.549299 -0.272317
C51   C     C_3   0.983081 0.894154 0.469665 -0.270645
C52   C     C_3   0.983699 0.893153 0.549269 -0.272169
C53   C     C_R   0.762512 0.435172 0.428862 0.017286
C54   C     C_R   0.238376 0.431918 0.571298 0.019408
C55   C     C_R   0.262551 0.935292 0.428887 0.017302
C56   C     C_R   0.738399 0.931844 0.571322 0.019447
C57   C     C_R   0.821258 0.416490 0.471824 0.033539
C58   C     C_R   0.182142 0.388270 0.531181 0.014864
C59   C     C_R   0.321304 0.916700 0.471855 0.033495
C60   C     C_R   0.682157 0.888253 0.531196 0.014710
C61   C     C_R   0.815385 0.404282 0.544380 0.016325
C62   C     C_R   0.186039 0.379828 0.458587 0.013896
C63   C     C_R   0.315407 0.904445 0.544410 0.016157
C64   C     C_R   0.686058 0.879821 0.458603 0.013796
C65   C     C_R   0.693521 0.453550 0.535775 -0.165638
C66   C     C_R   0.296973 0.480486 0.460277 -0.156872
C67   C     C_R   0.193546 0.953651 0.535790 -0.165617
C68   C     C_R   0.797046 0.980307 0.460318 -0.156841
C69   C     C_R   0.698780 0.458904 0.461738 -0.180468
C70   C     C_R   0.294581 0.483998 0.534819 -0.159480
C71   C     C_R   0.198813 0.958984 0.461755 -0.180469
C72   C     C_R   0.794638 0.983834 0.534857 -0.159472
C73   C     C_3   0.873623 0.317246 0.466638 -0.254568
C74   C     C_3   0.143491 0.270790 0.536967 -0.265899
C75   C     C_3   0.373700 0.817500 0.466675 -0.254474
C76   C     C_3   0.643458 0.770818 0.536980 -0.265894
C77   C     C_3   0.865193 0.300011 0.546179 -0.123744
C78   C     C_3   0.148199 0.261187 0.456420 -0.117211
C79   C     C_3   0.365186 0.800155 0.546190 -0.123794
C80   C     C_3   0.648192 0.761208 0.456437 -0.117245
C81   C     C_R   0.750858 0.416259 0.577297 0.006197
C82   C     C_R   0.245521 0.417066 0.422130 0.009401
C83   C     C_R   0.250873 0.916359 0.577318 0.006101
C84   C     C_R   0.745556 0.917003 0.422155 0.009394
C85   C     C_R   0.738281 0.364542 0.852263 0.546713
C86   C     C_R   0.261804 0.364219 0.147667 0.547101
C87   C     C_R   0.238281 0.864542 0.852263 0.546672
C88   C     C_R   0.761803 0.864220 0.147668 0.547095
C89   C     C_R   0.726346 0.958154 0.646098 0.549664
C90   C     C_R   0.273861 0.958932 0.353952 0.546630
C91   C     C_R   0.226338 0.458177 0.646087 0.549656
C92   C     C_R   0.773847 0.458897 0.353939 0.546595
C93   C     C_R   0.530005 0.175680 0.645193 0.551950
C94   C     C_R   0.468141 0.177054 0.356114 0.545884
C95   C     C_R   0.029990 0.675685 0.645201 0.551926
C96   C     C_R   0.968124 0.677052 0.356128 0.545890
C97   C     C_R   0.739154 0.361934 0.646488 0.548853
C98   C     C_R   0.260191 0.363198 0.353081 0.544010
C99   C     C_R   0.239157 0.861955 0.646493 0.548697
C100  C     C_R   0.760199 0.863179 0.353090 0.543979
C101  C     C_2   0.498551 0.169833 0.921199 -0.124237
C102  C     C_2   0.501521 0.169500 0.078832 -0.123528
C103  C     C_2   0.998542 0.669836 0.921194 -0.124216
C104  C     C_2   0.001513 0.669499 0.078828 -0.123529
C105  C     C_2   0.493887 0.069623 0.038415 -0.165122
C106  C     C_2   0.505911 0.069794 0.961093 -0.164987
C107  C     C_2   0.993869 0.569625 0.038410 -0.165115
C108  C     C_2   0.005889 0.569793 0.961087 -0.164994
C109  C     C_R   0.765178 0.443690 0.068089 0.022075
C110  C     C_R   0.234921 0.443963 0.931913 0.022299
C111  C     C_R   0.265179 0.943695 0.068089 0.022072
C112  C     C_R   0.734922 0.943958 0.931913 0.022297
Cr1   Cr    Cr6+3 0.769260 0.163750 0.750730 0.996233
Cr2   Cr    Cr6+3 0.230740 0.163750 0.249270 0.995298
Cr3   Cr    Cr6+3 0.269260 0.663750 0.750730 0.996487
Cr4   Cr    Cr6+3 0.730740 0.663750 0.249270 0.995421
Cr5   Cr    Cr6+3 0.612640 0.009910 0.748780 0.987772
Cr6   Cr    Cr6+3 0.387360 0.009910 0.251220 1.001521
Cr7   Cr    Cr6+3 0.112640 0.509910 0.748780 0.987635
Cr8   Cr    Cr6+3 0.887360 0.509910 0.251220 1.001487
Cr9   Cr    Cr6+3 0.614190 0.322400 0.747710 1.002158
Cr10  Cr    Cr6+3 0.385810 0.322400 0.252290 1.001201
Cr11  Cr    Cr6+3 0.114190 0.822400 0.747710 1.002221
Cr12  Cr    Cr6+3 0.885810 0.822400 0.252290 1.001238
H1    H     H_    0.478074 0.984777 0.062338 0.138302
H2    H     H_    0.521609 0.984998 0.936742 0.138574
H3    H     H_    0.978051 0.484782 0.062332 0.138306
H4    H     H_    0.021574 0.484992 0.936733 0.138551
H5    H     H_    0.944821 0.956491 0.445972 0.143555
H6    H     H_    0.036009 0.913920 0.570534 0.161360
H7    H     H_    0.444585 0.456351 0.446033 0.143625
H8    H     H_    0.535871 0.413949 0.570535 0.161302
H9    H     H_    0.536060 0.399161 0.446855 0.125695
H10   H     H_    0.441487 0.446667 0.573845 0.121527
H11   H     H_    0.036253 0.899080 0.446852 0.125661
H12   H     H_    0.941660 0.946901 0.573770 0.121401
H13   H     H_    0.643516 0.469100 0.559747 0.126643
H14   H     H_    0.340613 0.519637 0.432815 0.113119
H15   H     H_    0.143547 0.969221 0.559759 0.126617
H16   H     H_    0.840727 0.019349 0.432872 0.113183
H17   H     H_    0.653244 0.479035 0.430174 0.107507
H18   H     H_    0.336826 0.524483 0.564254 0.106167
H19   H     H_    0.153282 0.979079 0.430179 0.107529
H20   H     H_    0.836893 0.024266 0.564304 0.106264
H21   H     H_    0.924472 0.353827 0.449315 0.138935
H22   H     H_    0.090136 0.282662 0.557713 0.124327
H23   H     H_    0.424557 0.854157 0.449431 0.138974
H24   H     H_    0.590091 0.782754 0.557703 0.124465
H25   H     H_    0.854083 0.239076 0.434820 0.119509
H26   H     H_    0.174557 0.201033 0.565388 0.133437
H27   H     H_    0.354213 0.739354 0.434806 0.119525
H28   H     H_    0.674486 0.701020 0.565412 0.133474
H29   H     H_    0.837293 0.215517 0.558419 0.162855
H30   H     H_    0.183286 0.187362 0.439230 0.178981
H31   H     H_    0.337216 0.715699 0.558353 0.162836
H32   H     H_    0.683270 0.687357 0.439258 0.178959
H33   H     H_    0.521009 0.252842 0.055860 0.102081
H34   H     H_    0.479223 0.253164 0.944550 0.101987
H35   H     H_    0.021005 0.752838 0.055856 0.102077
H36   H     H_    0.979221 0.753172 0.944547 0.101971
H37   H     H_    0.861645 0.379702 0.921915 0.136290
H38   H     H_    0.138529 0.378828 0.077865 0.136900
H39   H     H_    0.361646 0.879732 0.921910 0.136285
H40   H     H_    0.638535 0.878727 0.077850 0.136905
H41   H     H_    0.872997 0.392998 0.049279 0.133370
H42   H     H_    0.126916 0.393642 0.950630 0.133647
H43   H     H_    0.373003 0.893039 0.049275 0.133378
H44   H     H_    0.626932 0.893525 0.950617 0.133639
H45   H     H_    0.098657 0.016969 0.070149 0.140181
H46   H     H_    0.901760 0.016367 0.930200 0.139935
H47   H     H_    0.598663 0.517014 0.070143 0.140181
H48   H     H_    0.401787 0.516154 0.930174 0.139949
H49   H     H_    0.628897 0.355993 0.078347 0.132434
H50   H     H_    0.370880 0.355339 0.921000 0.132880
H51   H     H_    0.128908 0.855956 0.078351 0.132435
H52   H     H_    0.870928 0.855511 0.921014 0.132870
H53   H     H_    0.616165 0.329791 0.952596 0.158369
H54   H     H_    0.383665 0.328520 0.046608 0.157804
H55   H     H_    0.116175 0.829753 0.952600 0.158364
H56   H     H_    0.883709 0.828692 0.046623 0.157822
H57   H     H_    0.584695 0.490305 0.944526 0.139528
H58   H     H_    0.415736 0.488863 0.055614 0.139817
H59   H     H_    0.084688 0.990258 0.944532 0.139532
H60   H     H_    0.915705 0.989077 0.055640 0.139789
H61   H     H_    0.549202 0.990552 0.556195 0.141186
H62   H     H_    0.527753 0.994115 0.428333 0.110194
H63   H     H_    0.048791 0.490276 0.556295 0.141127
H64   H     H_    0.027298 0.493778 0.428444 0.110184
O1    O     O_R   0.784290 0.290360 0.830540 -0.524499
O2    O     O_R   0.215710 0.290360 0.169460 -0.523818
O3    O     O_R   0.284290 0.790360 0.830540 -0.524471
O4    O     O_R   0.715710 0.790360 0.169460 -0.523818
O5    O     O_R   0.554690 0.080440 0.673480 -0.517503
O6    O     O_R   0.445310 0.080440 0.326520 -0.507823
O7    O     O_R   0.054690 0.580440 0.673480 -0.517513
O8    O     O_R   0.945310 0.580440 0.326520 -0.507864
O9    O     O_R   0.543980 0.282110 0.666770 -0.526440
O10   O     O_R   0.456020 0.282110 0.333230 -0.523535
O11   O     O_R   0.043980 0.782110 0.666770 -0.526429
O12   O     O_R   0.956020 0.782110 0.333230 -0.523478
O13   O     O_R   0.679070 0.374030 0.674430 -0.508386
O14   O     O_R   0.320930 0.374030 0.325570 -0.503673
O15   O     O_R   0.179070 0.874030 0.674430 -0.508372
O16   O     O_R   0.820930 0.874030 0.325570 -0.503680
O17   O     O_3   0.665360 0.165350 0.749070 -0.245937
O18   O     O_3   0.334640 0.165350 0.250930 -0.248156
O19   O     O_3   0.165360 0.665350 0.749070 -0.245926
O20   O     O_3   0.834640 0.665350 0.250930 -0.248160
O21   O     O_R   0.762610 0.041070 0.825230 -0.495086
O22   O     O_R   0.237390 0.041070 0.174770 -0.495514
O23   O     O_R   0.262610 0.541070 0.825230 -0.495045
O24   O     O_R   0.737390 0.541070 0.174770 -0.495497
O25   O     O_R   0.667390 0.924160 0.829970 -0.528907
O26   O     O_R   0.332610 0.924160 0.170030 -0.528121
O27   O     O_R   0.167390 0.424160 0.829970 -0.528910
O28   O     O_R   0.832610 0.424160 0.170030 -0.528140
O29   O     O_R   0.553980 0.081420 0.821780 -0.501441
O30   O     O_R   0.446020 0.081420 0.178220 -0.499713
O31   O     O_R   0.053980 0.581420 0.821780 -0.501533
O32   O     O_R   0.946020 0.581420 0.178220 -0.499714
O33   O     O_R   0.543210 0.283170 0.826740 -0.524637
O34   O     O_R   0.456790 0.283170 0.173260 -0.526404
O35   O     O_R   0.043210 0.783170 0.826740 -0.524626
O36   O     O_R   0.956790 0.783170 0.173260 -0.526406
O37   O     O_R   0.678350 0.375000 0.822720 -0.500919
O38   O     O_R   0.321650 0.375000 0.177280 -0.501839
O39   O     O_R   0.178350 0.875000 0.822720 -0.500920
O40   O     O_R   0.821650 0.875000 0.177280 -0.501843
O41   O     O_R   0.785060 0.289300 0.670580 -0.532530
O42   O     O_R   0.214940 0.289300 0.329420 -0.534080
O43   O     O_R   0.285060 0.789300 0.670580 -0.532242
O44   O     O_R   0.714940 0.789300 0.329420 -0.533993
O45   O     O_R   0.763330 0.040090 0.676940 -0.514487
O46   O     O_R   0.236670 0.040090 0.323060 -0.521668
O47   O     O_R   0.263330 0.540090 0.676940 -0.514435
O48   O     O_R   0.736670 0.540090 0.323060 -0.521587
O49   O     O_R   0.668160 0.923110 0.670000 -0.527498
O50   O     O_R   0.331840 0.923110 0.330000 -0.517602
O51   O     O_R   0.168160 0.423110 0.670000 -0.527467
O52   O     O_R   0.831840 0.423110 0.330000 -0.517578
C113  C     C_3   0.930337 0.324004 0.592585 -0.237217
C114  C     C_3   0.948224 0.215700 0.640337 -0.316462
C115  C     C_3   0.999954 0.251274 0.698844 -0.424768
H65   H     H_    0.976348 0.319626 0.734921 0.153843
H66   H     H_    0.013930 0.169948 0.730448 0.128936
H67   H     H_    0.048216 0.289554 0.675679 0.175073
H68   H     H_    0.900735 0.178645 0.665861 0.197245
H69   H     H_    0.971672 0.143156 0.607238 0.139405
H70   H     H_    0.975548 0.339119 0.558054 0.126748
H71   H     H_    0.922544 0.406400 0.625965 0.174447
C116  C     C_3   0.079319 0.271093 0.413836 -0.245815
C117  C     C_3   0.061875 0.154171 0.373953 -0.309266
C118  C     C_3   0.997846 0.168150 0.326152 -0.439267
H72   H     H_    0.951477 0.191773 0.358186 0.147522
H73   H     H_    0.006839 0.239824 0.285888 0.149317
H74   H     H_    0.987254 0.081123 0.298163 0.148520
H75   H     H_    0.106592 0.125681 0.340618 0.196202
H76   H     H_    0.051132 0.084046 0.413687 0.146566
H77   H     H_    0.035713 0.292698 0.449832 0.126497
H78   H     H_    0.084063 0.344051 0.373488 0.169551
C119  C     C_3   0.430250 0.824005 0.592728 -0.237003
C120  C     C_3   0.448423 0.715045 0.639844 -0.316472
C121  C     C_3   0.500010 0.750059 0.698594 -0.425174
H79   H     H_    0.476040 0.817117 0.735245 0.153393
H80   H     H_    0.514457 0.668206 0.729509 0.129289
H81   H     H_    0.548039 0.789745 0.675726 0.175229
H82   H     H_    0.401004 0.677158 0.665110 0.196466
H83   H     H_    0.472106 0.643306 0.606320 0.139630
H84   H     H_    0.475428 0.840179 0.558324 0.127027
H85   H     H_    0.422179 0.905736 0.626595 0.174582
C122  C     C_3   0.579328 0.771147 0.413838 -0.245812
C123  C     C_3   0.561745 0.654051 0.374207 -0.309373
C124  C     C_3   0.497812 0.668017 0.326272 -0.439274
H86   H     H_    0.451466 0.692381 0.358145 0.147646
H87   H     H_    0.507053 0.739169 0.285750 0.149226
H88   H     H_    0.487026 0.580771 0.298596 0.148654
H89   H     H_    0.606460 0.625108 0.341000 0.195879
H90   H     H_    0.550842 0.584290 0.414117 0.146639
H91   H     H_    0.535753 0.793129 0.449800 0.126558
H92   H     H_    0.584162 0.843858 0.373347 0.169700

loop_
_geom_bond_atom_site_label_1
_geom_bond_atom_site_label_2
_ccdc_geom_bond_type
C58   C62   A    
C121  H81   S    
C39   C51   S    
C4    C109  S    
C67   C83   A    
C119  C120  S    
Cr2   O2    S    
Cr3   O19   S    
C6    C110  A    
C41   C42   A    
C14   C18   A    
C93   O9    A    
C34   C93   S    
Cr9   O17   S    
C53   C69   A    
C33   C94   S    
Cr3   O47   S    
C51   H5    S    
C9    C25   S    
C116  C117  S    
Cr2   O46   S    
C63   C79   S    
C35   C96   S    
C16   H40   S    
C21   H49   S    
Cr7   O27   S    
C49   H7    S    
C58   C74   S    
Cr12  O12   S    
Cr8   O8    S    
C89   O45   A    
C12   C28   S    
C77   C113  S    
C33   C42   A    
C13   C29   A    
C16   C20   A    
Cr6   O18   S    
C27   H55   S    
C15   C19   A    
C55   C90   S    
Cr5   O17   S    
C8    C112  A    
C1    C112  S    
C54   C58   A    
C118  H72   S    
C25   H53   S    
C103  H36   S    
C67   C71   A    
C23   H51   S    
C76   H28   S    
C3    C110  S    
C85   O1    A    
C115  H65   S    
C48   C104  S    
C91   O47   A    
C65   C69   A    
C124  H88   S    
Cr9   O37   S    
Cr8   O32   S    
C90   O46   A    
C102  C105  D    
C121  H80   S    
C113  C114  S    
C96   O8    A    
C57   C73   S    
C57   C61   A    
C49   C50   S    
Cr10  O18   S    
C64   C84   A    
Cr2   O42   S    
C49   H9    S    
C77   H29   S    
C20   C112  A    
C51   H11   S    
C97   O41   A    
Cr8   O28   S    
Cr12  O36   S    
Cr12  O40   S    
C61   C77   S    
C123  C124  S    
C56   C72   A    
C54   C70   A    
Cr6   O30   S    
C95   O7    A    
C107  C108  S    
Cr5   O29   S    
C103  C108  D    
C124  H87   S    
C40   C52   S    
C23   C27   S    
C30   C86   S    
C24   H46   S    
Cr3   O43   S    
C7    C23   S    
C1    O21   A    
C68   C72   A    
C8    C24   S    
Cr1   O45   S    
C19   C111  A    
Cr6   O50   S    
C122  H91   S    
C62   C82   A    
Cr5   O49   S    
Cr4   O44   S    
C73   H25   S    
C98   O42   A    
Cr12  O20   S    
Cr7   O31   S    
C78   C116  S    
C64   C80   S    
C47   C103  S    
C34   C41   A    
C19   H43   S    
C65   H13   S    
C14   C30   A    
Cr6   O6    S    
C100  O16   A    
C102  H33   S    
C7    C111  A    
C34   C38   A    
C22   H50   S    
C25   H57   S    
C117  H75   S    
C114  C115  S    
C3    O27   A    
C26   H54   S    
C18   H42   S    
C62   C78   S    
C20   H44   S    
C2    C111  S    
C2    O22   A    
C86   O2    A    
C90   O50   A    
C117  H76   S    
C51   C52   S    
C68   C84   A    
C89   O49   A    
C36   C40   A    
C31   C87   S    
Cr10  O38   S    
C50   H10   S    
C47   O35   A    
C120  H82   S    
C118  H73   S    
C53   C57   A    
Cr1   O21   S    
C78   H30   S    
C48   O36   A    
C3    O23   A    
C115  H66   S    
C21   H47   S    
C106  H2    S    
C47   O31   A    
C92   O48   A    
C10   C26   S    
C114  H69   S    
Cr2   O18   S    
C73   H21   S    
C94   O10   A    
C5    C21   S    
Cr1   O17   S    
C55   C71   A    
C14   H38   S    
C35   C39   A    
C43   C44   A    
C116  H77   S    
C5    C9    A    
C37   C38   A    
C116  H78   S    
C66   C82   A    
C37   C49   S    
Cr2   O22   S    
C10   C30   A    
C83   C99   S    
C65   C81   A    
C29   C85   S    
C23   H45   S    
C11   C27   S    
C8    C12   A    
C115  H67   S    
C63   C83   A    
Cr4   O48   S    
C53   C92   S    
C124  H86   S    
C85   O37   A    
C113  H70   S    
Cr6   O26   S    
C123  H89   S    
Cr10  O10   S    
C15   C31   A    
C35   C44   A    
C28   H56   S    
Cr9   O9    S    
C119  H85   S    
Cr4   O20   S    
C50   H8    S    
Cr8   O52   S    
C26   H58   S    
C56   C89   S    
C84   C100  S    
C44   H64   S    
C101  H34   S    
C2    O26   A    
C87   O39   A    
C45   C101  S    
Cr10  O34   S    
C79   C119  S    
C82   C98   S    
C75   H27   S    
Cr11  O11   S    
C68   H16   S    
C32   C88   S    
C12   C32   A    
C104  H35   S    
C13   H37   S    
C24   H52   S    
C59   C75   S    
C41   H61   S    
C80   H32   S    
C67   H15   S    
C55   C59   A    
C52   H12   S    
C24   C28   S    
C87   O3    A    
C48   O32   A    
C15   H39   S    
C101  C106  D    
C72   H20   S    
C21   C25   S    
C52   H6    S    
C92   O52   A    
C122  H92   S    
C123  H90   S    
C99   O15   A    
C94   O6    A    
C119  H84   S    
C74   H22   S    
C70   H18   S    
C93   O5    A    
C113  H71   S    
C18   C110  A    
C97   O13   A    
C36   C43   A    
C17   C109  A    
C43   H63   S    
C86   O38   A    
Cr8   O20   S    
C99   O43   A    
C76   C80   S    
Cr1   O41   S    
C120  C121  S    
C38   C50   S    
Cr11  O15   S    
C88   O4    A    
C16   C32   A    
C79   H31   S    
Cr1   O1    S    
C105  C106  S    
C66   H14   S    
C59   C63   A    
C114  H68   S    
C4    O24   A    
Cr3   O23   S    
C107  H3    S    
C60   C64   A    
C80   C122  S    
C75   H23   S    
C105  H1    S    
C118  H74   S    
C121  H79   S    
C28   H60   S    
Cr3   O3    S    
C54   C91   S    
Cr4   O24   S    
C96   O12   A    
C61   C81   A    
C120  H83   S    
C9    C29   A    
Cr9   O13   S    
C36   C95   S    
Cr7   O51   S    
C88   O40   A    
C71   H19   S    
Cr11  O35   S    
C98   O14   A    
C5    C109  A    
C74   C78   S    
C81   C97   S    
C60   C76   S    
C33   C37   A    
Cr7   O7    S    
Cr4   O4    S    
C46   O34   A    
Cr5   O25   S    
C27   H59   S    
C45   O33   A    
Cr12  O16   S    
Cr5   O5    S    
C6    C10   A    
C11   C31   A    
C13   C17   A    
C39   C40   A    
C56   C60   A    
Cr10  O14   S    
Cr11  O19   S    
Cr11  O39   S    
C66   C70   A    
C76   H24   S    
C73   C77   S    
C95   O11   A    
C42   H62   S    
C22   C26   S    
C69   H17   S    
C91   O51   A    
C4    O28   A    
Cr9   O33   S    
C74   H26   S    
C100  O44   A    
C17   H41   S    
Cr7   O19   S    
C108  H4    S    
C75   C79   S    
C46   O30   A    
C104  C107  D    
C22   H48   S    
C45   O29   A    
C122  C123  S    
C7    C11   A    
C117  C118  S    
C46   C102  S    
C1    O25   A    
C6    C22   S    
