data_mof_unit_2053.cif
_audit_creation_date              2012-12-11T15:50:23-0500
_audit_creation_method            fapswitch 2.2
_symmetry_space_group_name_H-M    P1
_symmetry_Int_Tables_number       1
_space_group_crystal_system       triclinic
_cell_length_a                    18.948191
_cell_length_b                    10.968844
_cell_length_c                    18.618591
_cell_angle_alpha                 89.541896
_cell_angle_beta                  90.874362
_cell_angle_gamma                 90.036672
_cell_volume                      3869.10854547

loop_
_atom_site_label
_atom_site_type_symbol
_atom_type_description
_atom_site_fract_x
_atom_site_fract_y
_atom_site_fract_z
_atom_type_partial_charge
C1    C     C_R   0.289346 0.998702 0.861150 0.543821
C2    C     C_R   0.708397 0.993988 0.139562 0.566909
C3    C     C_R   0.789346 0.498703 0.861150 0.543827
C4    C     C_R   0.208397 0.493988 0.139562 0.566904
C5    C     C_3   0.506058 0.722500 0.974821 -0.116473
C6    C     C_3   0.456722 0.730465 0.039488 -0.131255
C7    C     C_3   0.006056 0.222503 0.974821 -0.116477
C8    C     C_3   0.956721 0.230467 0.039488 -0.131258
C9    C     C_R   0.215150 0.502941 0.061051 0.002116
C10   C     C_R   0.778194 0.518020 0.937497 0.007363
C11   C     C_R   0.715150 0.002940 0.061051 0.002115
C12   C     C_R   0.278195 0.018017 0.937498 0.007359
C13   C     C_R   0.270873 0.449966 0.023432 0.020419
C14   C     C_R   0.722003 0.465199 0.974830 0.012361
C15   C     C_R   0.770875 0.949968 0.023433 0.020421
C16   C     C_R   0.222003 0.965197 0.974830 0.012362
C17   C     C_R   0.283254 0.481830 0.952231 0.023459
C18   C     C_R   0.711423 0.492041 0.046685 0.018189
C19   C     C_R   0.783255 0.981829 0.952231 0.023458
C20   C     C_R   0.211423 0.992038 0.046686 0.018191
C21   C     C_R   0.174184 0.592633 0.948255 -0.156338
C22   C     C_R   0.820910 0.602133 0.049716 -0.161137
C23   C     C_R   0.674183 0.092627 0.948253 -0.156338
C24   C     C_R   0.320911 0.102127 0.049718 -0.161137
C25   C     C_R   0.162883 0.563886 0.020356 -0.169727
C26   C     C_R   0.830131 0.580018 0.977252 -0.163887
C27   C     C_R   0.662882 0.063881 0.020355 -0.169729
C28   C     C_R   0.330133 0.080012 0.977253 -0.163888
C29   C     C_3   0.347758 0.444593 0.040724 -0.263232
C30   C     C_3   0.644706 0.467193 0.958389 -0.264157
C31   C     C_3   0.847760 0.944604 0.040725 -0.263231
C32   C     C_3   0.144705 0.967202 0.958388 -0.264152
C33   C     C_3   0.361197 0.479932 0.962901 -0.275973
C34   C     C_3   0.633271 0.495616 0.037214 -0.273250
C35   C     C_3   0.861198 0.979937 0.962900 -0.275975
C36   C     C_3   0.133269 0.995621 0.037213 -0.273246
C37   C     C_R   0.238954 0.564103 0.915661 0.021822
C38   C     C_R   0.757856 0.569667 0.083563 0.023862
C39   C     C_R   0.738953 0.064101 0.915660 0.021822
C40   C     C_R   0.257856 0.069664 0.083564 0.023859
C41   C     C_R   0.505592 0.823194 0.425793 0.034456
C42   C     C_R   0.495442 0.833316 0.575205 -0.021567
C43   C     C_R   0.005636 0.323193 0.425812 0.034490
C44   C     C_R   0.995488 0.333333 0.575225 -0.021574
C45   C     C_R   0.439300 0.816702 0.862560 0.538573
C46   C     C_R   0.529729 0.821822 0.144780 0.537909
C47   C     C_R   0.939299 0.316702 0.862560 0.538578
C48   C     C_R   0.029729 0.321822 0.144780 0.537916
C49   C     C_R   0.522868 0.722933 0.469631 -0.000061
C50   C     C_R   0.515445 0.726016 0.542641 0.032201
C51   C     C_R   0.022981 0.222969 0.469662 -0.000075
C52   C     C_R   0.015560 0.226054 0.542674 0.032175
C53   C     C_R   0.475340 0.933224 0.531978 -0.166301
C54   C     C_R   0.477359 0.926602 0.457110 -0.169278
C55   C     C_R   0.975347 0.433211 0.531988 -0.166318
C56   C     C_R   0.977366 0.426577 0.457122 -0.169295
C57   C     C_3   0.591336 0.656202 0.476748 0.268499
C58   C     C_3   0.581388 0.655548 0.556889 0.272516
C59   C     C_3   0.091503 0.156381 0.476777 0.268471
C60   C     C_3   0.081571 0.155738 0.556920 0.272507
C61   C     C_R   0.223309 0.524339 0.436433 0.046286
C62   C     C_R   0.784964 0.506483 0.561776 0.023704
C63   C     C_R   0.723307 0.024330 0.436434 0.046189
C64   C     C_R   0.284978 0.006462 0.561774 0.023742
C65   C     C_R   0.165714 0.542097 0.480395 0.063411
C66   C     C_R   0.833022 0.578318 0.525586 0.003997
C67   C     C_R   0.665713 0.042100 0.480395 0.063277
C68   C     C_R   0.333024 0.078331 0.525588 0.003984
C69   C     C_R   0.174939 0.558518 0.553159 0.023718
C70   C     C_R   0.825661 0.600715 0.453782 0.014171
C71   C     C_R   0.674937 0.058521 0.553159 0.023724
C72   C     C_R   0.325659 0.100739 0.453786 0.014228
C73   C     C_R   0.301130 0.532073 0.539644 -0.167910
C74   C     C_R   0.723493 0.470179 0.448074 -0.135500
C75   C     C_R   0.801126 0.032052 0.539648 -0.167913
C76   C     C_R   0.223524 0.970131 0.448064 -0.135731
C77   C     C_R   0.291253 0.516361 0.466636 -0.174865
C78   C     C_R   0.733907 0.442538 0.521271 -0.127065
C79   C     C_R   0.791250 0.016338 0.466640 -0.174864
C80   C     C_R   0.233943 0.942475 0.521260 -0.126982
C81   C     C_3   0.110468 0.639000 0.474869 -0.270570
C82   C     C_3   0.861052 0.702505 0.542086 -0.251576
C83   C     C_3   0.610476 0.139016 0.474866 -0.270536
C84   C     C_3   0.361039 0.202525 0.542096 -0.251539
C85   C     C_3   0.114646 0.647076 0.555646 -0.265599
C86   C     C_3   0.855419 0.726559 0.462652 -0.255279
C87   C     C_3   0.614651 0.147092 0.555643 -0.265540
C88   C     C_3   0.355395 0.226597 0.462664 -0.255241
C89   C     C_R   0.259429 0.633334 0.851041 0.527807
C90   C     C_R   0.740109 0.634231 0.149189 0.532297
C91   C     C_R   0.759429 0.133333 0.851041 0.527812
C92   C     C_R   0.240109 0.134230 0.149189 0.532296
C93   C     C_R   0.243647 0.565070 0.582067 0.018018
C94   C     C_R   0.765029 0.561194 0.416491 0.058730
C95   C     C_R   0.743645 0.065064 0.582068 0.018048
C96   C     C_R   0.265036 0.061192 0.416490 0.058671
C97   C     C_R   0.291744 0.995143 0.638989 0.571780
C98   C     C_R   0.710596 0.000489 0.361950 0.607625
C99   C     C_R   0.791740 0.495150 0.638988 0.571763
C100  C     C_R   0.210596 0.500491 0.361950 0.607724
C101  C     C_R   0.470554 0.824202 0.647584 0.552239
C102  C     C_R   0.530244 0.822293 0.352994 0.580989
C103  C     C_R   0.970564 0.324204 0.647591 0.552292
C104  C     C_R   0.030252 0.322293 0.353000 0.580969
C105  C     C_R   0.258645 0.632788 0.646021 0.540559
C106  C     C_R   0.742576 0.630732 0.353443 0.600345
C107  C     C_R   0.758645 0.132788 0.646021 0.540587
C108  C     C_R   0.242578 0.130727 0.353441 0.600337
C109  C     C_3   0.461617 0.929961 0.034881 -0.124346
C110  C     C_3   0.510895 0.922252 0.969500 -0.105754
C111  C     C_3   0.961616 0.429959 0.034881 -0.124346
C112  C     C_3   0.010892 0.422250 0.969501 -0.105755
C113  C     C_3   0.412825 0.830881 0.001769 -0.145354
C114  C     C_3   0.554387 0.821024 0.007528 -0.115488
C115  C     C_3   0.912825 0.330880 0.001768 -0.145354
C116  C     C_3   0.054384 0.321025 0.007529 -0.115491
C117  C     C_3   0.462631 0.823342 0.937680 0.051063
C118  C     C_3   0.504228 0.828899 0.071210 0.056873
C119  C     C_3   0.962629 0.323342 0.937680 0.051061
C120  C     C_3   0.004227 0.328899 0.071211 0.056870
Cr1   Cr    Cr6+3 0.229640 0.835880 0.747370 1.036032
Cr2   Cr    Cr6+3 0.770360 0.835880 0.252630 1.008173
Cr3   Cr    Cr6+3 0.729640 0.335880 0.747370 1.035966
Cr4   Cr    Cr6+3 0.270360 0.335880 0.252630 1.008189
Cr5   Cr    Cr6+3 0.387390 0.989720 0.750850 1.004285
Cr6   Cr    Cr6+3 0.612610 0.989720 0.249150 1.007245
Cr7   Cr    Cr6+3 0.887390 0.489720 0.750850 1.004274
Cr8   Cr    Cr6+3 0.112610 0.489720 0.249150 1.007263
Cr9   Cr    Cr6+3 0.385770 0.677220 0.749340 1.033268
Cr10  Cr    Cr6+3 0.614230 0.677220 0.250660 1.017599
Cr11  Cr    Cr6+3 0.885770 0.177220 0.749340 1.033227
Cr12  Cr    Cr6+3 0.114230 0.177220 0.250660 1.017586
H1    H     H_    0.354402 0.829038 0.998732 0.113231
H2    H     H_    0.612795 0.815661 0.011669 0.111887
H3    H     H_    0.854402 0.329035 0.998732 0.113232
H4    H     H_    0.112791 0.315663 0.011669 0.111886
H5    H     H_    0.458387 0.015759 0.556701 0.137267
H6    H     H_    0.461722 0.004155 0.424304 0.117049
H7    H     H_    0.958362 0.515731 0.556705 0.137289
H8    H     H_    0.961697 0.504108 0.424311 0.117049
H9    H     H_    0.589620 0.565322 0.451136 0.143099
H10   H     H_    0.622338 0.705941 0.588197 0.154904
H11   H     H_    0.089836 0.065483 0.451179 0.143148
H12   H     H_    0.122494 0.206249 0.588212 0.154853
H13   H     H_    0.354834 0.533347 0.560501 0.164589
H14   H     H_    0.679405 0.430484 0.418966 0.106827
H15   H     H_    0.854830 0.033318 0.560506 0.164501
H16   H     H_    0.179454 0.930394 0.418946 0.106791
H17   H     H_    0.337153 0.502234 0.433726 0.135923
H18   H     H_    0.698699 0.380476 0.547261 0.152315
H19   H     H_    0.837151 0.002208 0.433731 0.135927
H20   H     H_    0.198761 0.880355 0.547241 0.152340
H21   H     H_    0.059273 0.607818 0.453848 0.146723
H22   H     H_    0.916334 0.703693 0.562592 0.137775
H23   H     H_    0.559278 0.107846 0.453846 0.146706
H24   H     H_    0.416323 0.203722 0.562597 0.137822
H25   H     H_    0.130161 0.722744 0.447702 0.137204
H26   H     H_    0.823569 0.758338 0.573390 0.176820
H27   H     H_    0.630175 0.222755 0.447700 0.137216
H28   H     H_    0.323553 0.258338 0.573409 0.176842
H29   H     H_    0.126666 0.739837 0.574240 0.181816
H30   H     H_    0.815661 0.796380 0.449386 0.193804
H31   H     H_    0.626680 0.239849 0.574236 0.181805
H32   H     H_    0.315619 0.296393 0.449406 0.193895
H33   H     H_    0.068514 0.606631 0.582936 0.140810
H34   H     H_    0.907355 0.737737 0.436361 0.125926
H35   H     H_    0.568516 0.106660 0.582933 0.140812
H36   H     H_    0.407327 0.237811 0.436370 0.125928
H37   H     H_    0.449463 0.014365 0.064112 0.109719
H38   H     H_    0.531671 0.001097 0.938755 0.120880
H39   H     H_    0.949460 0.514361 0.064110 0.109724
H40   H     H_    0.031669 0.501094 0.938756 0.120883
H41   H     H_    0.522373 0.636416 0.949200 0.125463
H42   H     H_    0.438313 0.654260 0.073029 0.119567
H43   H     H_    0.022372 0.136423 0.949200 0.125469
H44   H     H_    0.938314 0.154263 0.073026 0.119571
H45   H     H_    0.134938 0.648463 0.920880 0.133400
H46   H     H_    0.861301 0.653584 0.077610 0.125814
H47   H     H_    0.634936 0.148454 0.920878 0.133399
H48   H     H_    0.361302 0.153578 0.077612 0.125812
H49   H     H_    0.115368 0.597128 0.045220 0.136544
H50   H     H_    0.877656 0.613907 0.952329 0.138955
H51   H     H_    0.615367 0.097120 0.045219 0.136543
H52   H     H_    0.377658 0.113899 0.952330 0.138955
H53   H     H_    0.866041 0.851503 0.054136 0.137581
H54   H     H_    0.124405 0.876073 0.942610 0.138962
H55   H     H_    0.366036 0.351488 0.054133 0.137580
H56   H     H_    0.624411 0.376061 0.942614 0.138966
H57   H     H_    0.362619 0.513446 0.081112 0.144548
H58   H     H_    0.629877 0.543037 0.921240 0.152842
H59   H     H_    0.862619 0.013464 0.081109 0.144547
H60   H     H_    0.129880 0.043053 0.921240 0.152847
H61   H     H_    0.384902 0.571389 0.955854 0.149161
H62   H     H_    0.611331 0.587658 0.046614 0.156644
H63   H     H_    0.884901 0.071394 0.955850 0.149164
H64   H     H_    0.111332 0.087666 0.046614 0.156643
H65   H     H_    0.386435 0.406048 0.931878 0.142608
H66   H     H_    0.606922 0.420346 0.066823 0.139741
H67   H     H_    0.886437 0.906051 0.931880 0.142603
H68   H     H_    0.106918 0.920351 0.066819 0.139739
O1    O     O_R   0.214300 0.709080 0.827500 -0.530446
O2    O     O_R   0.785700 0.709080 0.172500 -0.539824
O3    O     O_R   0.714300 0.209080 0.827500 -0.530439
O4    O     O_R   0.285700 0.209080 0.172500 -0.539828
O5    O     O_R   0.445900 0.919370 0.676500 -0.525929
O6    O     O_R   0.554100 0.919370 0.323500 -0.513403
O7    O     O_R   0.945900 0.419370 0.676500 -0.525935
O8    O     O_R   0.054100 0.419370 0.323500 -0.513378
O9    O     O_R   0.456660 0.717710 0.669820 -0.466995
O10   O     O_R   0.543340 0.717710 0.330180 -0.508954
O11   O     O_R   0.956660 0.217710 0.669820 -0.467039
O12   O     O_R   0.043340 0.217710 0.330180 -0.509005
O13   O     O_R   0.320590 0.625770 0.672930 -0.504020
O14   O     O_R   0.679410 0.625770 0.327070 -0.470289
O15   O     O_R   0.820590 0.125770 0.672930 -0.504039
O16   O     O_R   0.179410 0.125770 0.327070 -0.470390
O17   O     O_3   0.334270 0.834280 0.749190 -0.318223
O18   O     O_3   0.665730 0.834280 0.250810 -0.280865
O19   O     O_3   0.834270 0.334280 0.749190 -0.318186
O20   O     O_3   0.165730 0.334280 0.250810 -0.280844
O21   O     O_R   0.236190 0.958390 0.823150 -0.483545
O22   O     O_R   0.763810 0.958390 0.176850 -0.496592
O23   O     O_R   0.736190 0.458390 0.823150 -0.483552
O24   O     O_R   0.263810 0.458390 0.176850 -0.496602
O25   O     O_R   0.332090 0.075280 0.831290 -0.514126
O26   O     O_R   0.667910 0.075280 0.168710 -0.513926
O27   O     O_R   0.832090 0.575280 0.831290 -0.514130
O28   O     O_R   0.167910 0.575280 0.168710 -0.513929
O29   O     O_R   0.446280 0.918040 0.826620 -0.513366
O30   O     O_R   0.553720 0.918040 0.173380 -0.528451
O31   O     O_R   0.946280 0.418040 0.826620 -0.513369
O32   O     O_R   0.053720 0.418040 0.173380 -0.528450
O33   O     O_R   0.457080 0.716270 0.831760 -0.510766
O34   O     O_R   0.542920 0.716270 0.168240 -0.529119
O35   O     O_R   0.957080 0.216270 0.831760 -0.510765
O36   O     O_R   0.042920 0.216270 0.168240 -0.529110
O37   O     O_R   0.320980 0.624440 0.823040 -0.514309
O38   O     O_R   0.679020 0.624440 0.176960 -0.509042
O39   O     O_R   0.820980 0.124440 0.823040 -0.514312
O40   O     O_R   0.179020 0.124440 0.176960 -0.509035
O41   O     O_R   0.213880 0.710510 0.665560 -0.533827
O42   O     O_R   0.786120 0.710510 0.334440 -0.536396
O43   O     O_R   0.713880 0.210510 0.665560 -0.533824
O44   O     O_R   0.286120 0.210510 0.334440 -0.536338
O45   O     O_R   0.235800 0.959720 0.673040 -0.464788
O46   O     O_R   0.764200 0.959720 0.326960 -0.507528
O47   O     O_R   0.735800 0.459720 0.673040 -0.464961
O48   O     O_R   0.264200 0.459720 0.326960 -0.507530
O49   O     O_R   0.331670 0.076720 0.669350 -0.514497
O50   O     O_R   0.668330 0.076720 0.330650 -0.522168
O51   O     O_R   0.831670 0.576720 0.669350 -0.514481
O52   O     O_R   0.168330 0.576720 0.330650 -0.522197
F1    F     F_    0.147703 0.230050 0.457890 -0.675722
F2    F     F_    0.067230 0.040315 0.583580 -0.655831
F3    F     F_    0.647584 0.729762 0.457888 -0.675644
F4    F     F_    0.566949 0.540165 0.583523 -0.655922

loop_
_geom_bond_atom_site_label_1
_geom_bond_atom_site_label_2
_ccdc_geom_bond_type
Cr12  O40   S    
C87   H31   S    
C55   C56   A    
Cr4   O20   S    
C67   C83   S    
C29   C33   S    
C5    C114  S    
C59   F1    S    
Cr1   O21   S    
C85   H29   S    
C14   C18   A    
C89   O1    A    
C111  C112  S    
Cr12  O12   S    
C73   C93   A    
C22   H46   S    
C29   H57   S    
C115  H3    S    
Cr3   O43   S    
C28   H52   S    
C84   H28   S    
Cr7   O19   S    
C7    C8    S    
C48   C120  S    
C63   C79   A    
C53   C54   A    
C15   C19   A    
C8    C120  S    
C33   H65   S    
Cr8   O52   S    
C35   H63   S    
C17   C33   S    
C12   C28   A    
C53   H5    S    
C32   C36   S    
C13   C29   S    
C16   C20   A    
Cr6   O30   S    
C74   H14   S    
C45   O33   A    
C98   O46   A    
C63   C98   S    
Cr5   O29   S    
C42   C53   A    
C97   O45   A    
C5    C6    S    
C82   H26   S    
C72   C96   A    
C23   C39   A    
C83   H23   S    
C103  O7    A    
C1    O25   A    
C22   C38   A    
C31   H59   S    
Cr12  O16   S    
C2    O22   A    
C91   O3    A    
C55   H7    S    
C41   C102  S    
C46   C118  S    
C1    O21   A    
Cr1   O17   S    
C105  O41   A    
Cr10  O18   S    
C9    C13   A    
C43   C104  S    
Cr9   O17   S    
C83   H27   S    
C52   C60   S    
C8    C115  S    
C93   C105  S    
C64   C80   A    
Cr5   O5    S    
C11   C15   A    
C41   C49   A    
Cr10  O38   S    
C12   C16   A    
Cr11  O39   S    
C88   H36   S    
C7    C119  S    
C7    H43   S    
C24   H48   S    
C58   F4    S    
C86   H30   S    
C104  O8    A    
C23   C27   A    
Cr4   O44   S    
C44   C52   A    
C4    C9    S    
Cr8   O20   S    
C23   H47   S    
C92   O4    A    
C109  C113  S    
Cr2   O46   S    
C81   C85   S    
C34   H62   S    
C47   C119  S    
C75   C95   A    
Cr2   O22   S    
C59   H11   S    
C59   C60   S    
Cr8   O32   S    
C113  H1    S    
Cr7   O27   S    
C21   H45   S    
C46   O30   A    
C112  C119  S    
C107  O43   A    
Cr8   O8    S    
Cr6   O26   S    
C1    C12   S    
C45   O29   A    
C106  O42   A    
C2    O26   A    
Cr5   O25   S    
C2    C11   S    
C101  O5    A    
C110  C117  S    
C39   C91   S    
C72   C88   S    
C44   C103  S    
C25   H49   S    
C109  C118  S    
C47   O35   A    
C106  O14   A    
C63   C67   A    
C81   H25   S    
C90   O38   A    
C35   H67   S    
C51   C52   A    
C68   C84   S    
C24   C28   A    
Cr11  O19   S    
Cr7   O7    S    
C99   O51   A    
C21   C25   A    
C10   C14   A    
C3    O27   A    
C103  O11   A    
C37   C89   S    
C98   O50   A    
C30   C34   S    
C102  O10   A    
C97   O49   A    
C6    H42   S    
C101  O9    A    
C60   F2    S    
C14   C30   S    
Cr3   O23   S    
Cr10  O34   S    
C116  C120  S    
C5    C117  S    
C68   C72   A    
Cr12  O20   S    
C20   C36   S    
C7    C116  S    
Cr4   O48   S    
Cr1   O41   S    
C31   H53   S    
C36   H64   S    
C6    C113  S    
C73   H13   S    
C100  O48   A    
Cr9   O9    S    
C89   O37   A    
C66   C82   S    
C102  O6    A    
C38   C90   S    
C34   H66   S    
C65   C81   S    
C114  C118  S    
C56   H8    S    
C11   C27   A    
C88   H32   S    
Cr8   O28   S    
C108  O44   A    
Cr7   O31   S    
C10   C26   A    
C114  H2    S    
C50   C58   S    
C21   C37   A    
C17   C37   A    
C40   C92   S    
C92   O40   A    
C112  H40   S    
C18   C34   S    
C75   H15   S    
C108  O16   A    
Cr11  O35   S    
C95   C107  S    
C42   C50   A    
Cr9   O13   S    
C71   C87   S    
C110  H38   S    
C47   O31   A    
C64   C97   S    
Cr4   O4    S    
C115  C119  S    
C46   O34   A    
Cr11  O11   S    
C31   C35   S    
C57   F3    S    
Cr10  O10   S    
C61   C100  S    
C51   C59   S    
C20   C40   A    
C104  O12   A    
C77   H17   S    
C48   O32   A    
C70   C86   S    
C42   C101  S    
C64   C68   A    
C110  C114  S    
C112  C116  S    
C69   C85   S    
C81   H21   S    
C78   H18   S    
Cr7   O51   S    
C79   H19   S    
C109  H37   S    
C113  C117  S    
C45   C117  S    
Cr11  O15   S    
C61   C77   A    
Cr3   O19   S    
C94   C106  S    
C3    O23   A    
C58   H10   S    
Cr2   O18   S    
Cr9   O37   S    
C48   O36   A    
C5    H41   S    
C62   C78   A    
Cr3   O3    S    
C76   C80   A    
Cr2   O42   S    
C100  O52   A    
C107  O15   A    
C83   C87   S    
C9    C25   A    
C49   C57   S    
C111  C115  S    
C8    H44   S    
C4    O24   A    
C15   C31   S    
C36   H68   S    
C116  H4    S    
C32   H54   S    
C16   C32   S    
C87   H35   S    
C105  O13   A    
C66   C70   A    
C69   C93   A    
C57   H9    S    
Cr6   O50   S    
C85   H33   S    
Cr2   O2    S    
Cr5   O49   S    
C18   C38   A    
Cr1   O1    S    
C3    C10   S    
C82   C86   S    
C109  C110  S    
C60   H12   S    
Cr3   O47   S    
C62   C99   S    
C84   H24   S    
C44   C55   A    
C43   C51   A    
C57   C58   S    
C54   H6    S    
C84   C88   S    
C75   C79   A    
Cr6   O6    S    
C65   C69   A    
Cr9   O33   S    
C30   H58   S    
Cr1   O45   S    
C26   H50   S    
Cr12  O36   S    
Cr10  O14   S    
C67   C71   A    
C4    O28   A    
C61   C65   A    
C96   C108  S    
C27   H51   S    
C41   C54   A    
C24   C40   A    
C62   C66   A    
Cr5   O17   S    
C33   H61   S    
C13   C17   A    
C82   H22   S    
C29   H55   S    
C43   C56   A    
C71   C95   A    
C86   H34   S    
C76   H16   S    
C19   C39   A    
C49   C50   A    
C22   C26   A    
C91   O39   A    
C74   C94   A    
C70   C94   A    
Cr4   O24   S    
C73   C77   A    
C111  C120  S    
C19   C35   S    
C32   H60   S    
C80   H20   S    
C99   O47   A    
C6    C118  S    
C76   C96   A    
Cr6   O18   S    
C30   H56   S    
C90   O2    A    
C111  H39   S    
C74   C78   A    
