data_mof_unit_75.cif
_audit_creation_date              2012-12-10T21:00:44-0500
_audit_creation_method            fapswitch 2.2
_symmetry_space_group_name_H-M    P1
_symmetry_Int_Tables_number       1
_space_group_crystal_system       triclinic
_cell_length_a                    18.060914
_cell_length_b                    18.147646
_cell_length_c                    18.418155
_cell_angle_alpha                 119.950595
_cell_angle_beta                  89.962832
_cell_angle_gamma                 119.78924
_cell_volume                      4286.74489758

loop_
_atom_site_label
_atom_site_type_symbol
_atom_type_description
_atom_site_fract_x
_atom_site_fract_y
_atom_site_fract_z
_atom_type_partial_charge
C1    C     C_R   0.111396 0.220178 0.610023 0.519899
C2    C     C_3   0.450339 0.896676 0.946536 0.017047
C3    C     C_2   0.489718 0.609624 0.247147 0.221802
C4    C     C_2   0.128398 0.474007 0.422507 0.226834
C5    C     C_2   0.871550 0.525924 0.577475 0.226367
C6    C     C_2   0.773256 0.836368 0.951454 0.262315
C7    C     C_2   0.226772 0.163728 0.048683 0.262373
C8    C     C_2   0.032613 0.804838 0.847421 0.242612
C9    C     C_2   0.967399 0.195064 0.152457 0.243520
C10   C     C_2   0.158597 0.771147 0.060645 0.291470
C11   C     C_2   0.841417 0.228798 0.939257 0.291527
C12   C     C_2   0.873618 0.550992 0.987180 0.262970
C13   C     C_3   0.445827 0.031986 0.013358 -0.019366
C14   C     C_2   0.126330 0.448945 0.012778 0.263008
C15   C     C_2   0.909414 0.300148 0.337147 0.271949
C16   C     C_2   0.090593 0.699783 0.662863 0.270818
C17   C     C_2   0.401907 0.935773 0.836566 0.261801
C18   C     C_2   0.598152 0.064229 0.163426 0.261490
C19   C     C_2   0.384563 0.067331 0.027062 0.296293
C20   C     C_2   0.615453 0.932673 0.972955 0.296431
C21   C     C_2   0.580995 0.683363 0.507185 0.247955
C22   C     C_2   0.419009 0.316620 0.492800 0.247809
C23   C     C_3   0.554186 0.968014 0.986652 -0.019221
C24   C     C_3   0.435303 0.505925 0.472110 -0.166039
C25   C     C_3   0.564696 0.494070 0.527884 -0.166139
C26   C     C_3   0.447735 0.417114 0.415683 -0.095536
C27   C     C_3   0.552263 0.582878 0.584314 -0.095517
C28   C     C_3   0.550175 0.498956 0.448408 0.041571
C29   C     C_3   0.449823 0.501036 0.551587 0.041693
C30   C     C_3   0.538079 0.586486 0.503939 0.010003
C31   C     C_R   0.888607 0.779822 0.389977 0.519889
C32   C     C_3   0.461921 0.413508 0.496059 0.010020
C33   C     C_R   0.208488 0.187102 0.809790 -0.092338
C34   C     C_R   0.791553 0.812900 0.190196 -0.092299
C35   C     C_R   0.392826 0.780952 0.888058 0.541202
C36   C     C_R   0.607176 0.219048 0.111945 0.541127
C37   C     C_R   0.169060 0.140795 0.720672 -0.059604
C38   C     C_R   0.830975 0.859222 0.279319 -0.059639
C39   C     C_R   0.077186 0.096740 0.686674 -0.004252
C40   C     C_R   0.922842 0.903260 0.313322 -0.004241
C41   C     C_R   0.023412 0.097417 0.743040 0.051403
C42   C     C_3   0.956236 0.407023 0.421328 -0.021313
C43   C     C_R   0.976618 0.902551 0.256957 0.051436
C44   C     C_R   0.062945 0.137842 0.832310 0.074194
C45   C     C_R   0.937093 0.862109 0.167679 0.074095
C46   C     C_R   0.155879 0.185464 0.865032 -0.112479
C47   C     C_R   0.844164 0.814503 0.134953 -0.112458
C48   C     C_R   0.983945 0.942893 0.535019 -0.144706
C49   C     C_R   0.016072 0.057107 0.464979 -0.144704
C50   C     C_R   0.944753 0.892225 0.444436 0.029892
C51   C     C_R   0.055259 0.107775 0.555563 0.029897
C52   C     C_R   0.961408 0.950029 0.408566 -0.055037
C53   C     C_3   0.043734 0.592918 0.578671 -0.021283
C54   C     C_R   0.038609 0.049971 0.591432 -0.055032
C55   C     C_R   0.625994 0.547947 0.762829 -0.172048
C56   C     C_R   0.374011 0.452183 0.237213 -0.172112
C57   C     C_R   0.573924 0.505399 0.805232 0.047191
C58   C     C_R   0.426077 0.494688 0.194784 0.047136
C59   C     C_R   0.113212 0.503375 0.891978 0.490768
C60   C     C_R   0.886783 0.496619 0.108019 0.490761
C61   C     C_R   0.585391 0.573070 0.895029 0.041195
C62   C     C_R   0.414622 0.426976 0.105004 0.041194
C63   C     C_R   0.647599 0.680483 0.939165 -0.112061
C64   C     C_3   0.452788 0.967817 0.922593 -0.024156
C65   C     C_R   0.352424 0.319570 0.060910 -0.112000
C66   C     C_R   0.701495 0.722960 0.897465 0.042135
C67   C     C_R   0.298526 0.277136 0.102635 0.042146
C68   C     C_R   0.689708 0.655353 0.807365 -0.013046
C69   C     C_R   0.310309 0.344783 0.192718 -0.013090
C70   C     C_R   0.589273 0.534889 0.004422 -0.135529
C71   C     C_R   0.410722 0.465104 0.995575 -0.135541
C72   C     C_R   0.550432 0.499770 0.055884 0.066809
C73   C     C_R   0.449564 0.500227 0.944115 0.066807
C74   C     C_R   0.460315 0.464746 0.052061 0.021006
C75   C     C_3   0.547230 0.032187 0.077418 -0.023936
C76   C     C_R   0.539683 0.535255 0.947941 0.021026
C77   C     C_R   0.096108 0.781279 0.947426 -0.071079
C78   C     C_R   0.903926 0.218632 0.052440 -0.070932
C79   C     C_R   0.092490 0.720544 0.975364 0.066182
C80   C     C_R   0.907515 0.279390 0.024545 0.066185
C81   C     C_R   0.023807 0.612458 0.922700 0.068774
C82   C     C_R   0.976159 0.387489 0.077248 0.068692
C83   C     C_R   0.392547 0.500521 0.608121 0.524639
C84   C     C_R   0.607454 0.499478 0.391876 0.524485
C85   C     C_R   0.963238 0.567438 0.842097 -0.069290
C86   C     C_3   0.557319 0.039628 0.962211 -0.136605
C87   C     C_R   0.036719 0.432497 0.157855 -0.069406
C88   C     C_R   0.966663 0.629218 0.816320 -0.056919
C89   C     C_R   0.033314 0.370704 0.183606 -0.056560
C90   C     C_R   0.031942 0.736856 0.869781 0.020459
C91   C     C_R   0.968073 0.263054 0.130102 0.020944
C92   C     C_R   0.943240 0.532546 0.999225 -0.006161
C93   C     C_R   0.056727 0.467421 0.000747 -0.006178
C94   C     C_R   0.939468 0.490718 0.047456 -0.047819
C95   C     C_R   0.060510 0.509260 0.952526 -0.047823
C96   C     C_R   0.991949 0.451764 0.043440 -0.053799
C97   C     C_3   0.442697 0.960375 0.037802 -0.136764
C98   C     C_R   0.008022 0.548202 0.956533 -0.053766
C99   C     C_R   0.393968 0.499384 0.887988 0.521980
C100  C     C_R   0.606032 0.500618 0.112014 0.521977
C101  C     C_R   0.111056 0.502514 0.608546 0.593789
C102  C     C_R   0.888928 0.497464 0.391451 0.593625
C103  C     C_3   0.059878 0.486424 0.463085 -0.044860
C104  C     C_3   0.940085 0.513520 0.536909 -0.045265
C105  C     C_3   0.049434 0.574930 0.488192 -0.062350
C106  C     C_3   0.950529 0.425007 0.511796 -0.062841
C107  C     C_3   0.945942 0.495721 0.446629 0.045083
C108  C     C_3   0.549673 0.103325 0.053473 0.017169
C109  C     C_3   0.054020 0.504220 0.553354 0.045156
C110  C     C_2   0.107704 0.659730 0.476253 0.202315
C111  C     C_2   0.892261 0.340222 0.523754 0.201859
C112  C     C_2   0.929350 0.062466 0.709252 0.319512
C113  C     C_2   0.070672 0.937490 0.290756 0.319474
C114  C     C_2   0.010247 0.127234 0.892620 0.310551
C115  C     C_2   0.989796 0.872682 0.107364 0.310521
C116  C     C_2   0.741255 0.691514 0.755987 0.232187
C117  C     C_2   0.258765 0.308672 0.244120 0.232025
C118  C     C_2   0.510261 0.390460 0.752823 0.221873
H1    H     H_    0.187377 0.219291 0.933418 0.116089
H2    H     H_    0.089529 0.514945 0.198524 0.119662
H3    H     H_    0.916729 0.593168 0.755873 0.148880
H4    H     H_    0.083234 0.406750 0.244061 0.148892
H5    H     H_    0.604285 0.072198 0.931210 0.173765
H6    H     H_    0.395734 0.927806 0.068804 0.173772
H7    H     H_    0.406737 0.348477 0.346257 0.190466
H8    H     H_    0.593261 0.651521 0.653738 0.190428
H9    H     H_    0.382149 0.511967 0.451014 0.113401
H10   H     H_    0.617846 0.488034 0.548985 0.113425
H11   H     H_    0.179978 0.711129 0.510542 0.119477
H12   H     H_    0.812670 0.780661 0.066560 0.116109
H13   H     H_    0.819980 0.288825 0.489476 0.119194
H14   H     H_    0.888677 0.000219 0.640211 0.123865
H15   H     H_    0.111348 0.999753 0.359795 0.123876
H16   H     H_    0.044546 0.177808 0.963783 0.113155
H17   H     H_    0.955497 0.822106 0.036201 0.113386
H18   H     H_    0.972447 0.899108 0.562767 0.167113
H19   H     H_    0.027570 0.100891 0.437230 0.167122
H20   H     H_    0.749896 0.639101 0.699141 0.155975
H21   H     H_    0.250122 0.361112 0.300943 0.155886
H22   H     H_    0.617177 0.496458 0.693961 0.064373
H23   H     H_    0.279874 0.222895 0.835831 0.143382
H24   H     H_    0.382823 0.503700 0.306070 0.064353
H25   H     H_    0.502593 0.343717 0.683261 0.099985
H26   H     H_    0.497340 0.656399 0.316688 0.099973
H27   H     H_    0.656318 0.731089 0.008194 0.142176
H28   H     H_    0.343707 0.268935 0.991892 0.142170
H29   H     H_    0.177925 0.532326 0.413759 0.077626
H30   H     H_    0.822039 0.467621 0.586250 0.077823
H31   H     H_    0.829182 0.868995 0.929792 0.184583
H32   H     H_    0.170852 0.131120 0.070358 0.184610
H33   H     H_    0.658471 0.560901 0.007000 0.138690
H34   H     H_    0.720171 0.777119 0.164150 0.143374
H35   H     H_    0.341524 0.439094 0.993003 0.138679
H36   H     H_    0.087106 0.886852 0.886547 0.160280
H37   H     H_    0.913023 0.112990 0.113181 0.160128
H38   H     H_    0.155455 0.726264 0.084625 0.101394
H39   H     H_    0.844558 0.273697 0.915291 0.101381
H40   H     H_    0.803377 0.494034 0.973495 0.103946
H41   H     H_    0.196590 0.505958 0.026563 0.103855
H42   H     H_    0.926703 0.248577 0.331347 0.166702
H43   H     H_    0.072477 0.750869 0.669044 0.167491
H44   H     H_    0.407277 0.994253 0.830006 0.096052
H45   H     H_    0.210589 0.141067 0.678203 0.137382
H46   H     H_    0.592594 0.005713 0.170048 0.096007
H47   H     H_    0.390528 0.115596 0.005951 0.126638
H48   H     H_    0.609354 0.884216 0.993884 0.126670
H49   H     H_    0.539249 0.697881 0.481861 0.084184
H50   H     H_    0.460767 0.301895 0.517815 0.084341
H51   H     H_    0.789445 0.858973 0.321788 0.137349
H52   H     H_    0.146968 0.864307 0.987966 0.203878
H53   H     H_    0.853099 0.135591 0.011864 0.203967
H54   H     H_    0.910406 0.484997 0.801455 0.119708
O1    O     O_3   0.251620 0.500000 0.748430 -0.473870
O2    O     O_R   0.570330 0.268390 0.136490 -0.552127
O3    O     O_R   0.134680 0.268390 0.572240 -0.523139
O4    O     O_R   0.865320 0.731610 0.427760 -0.523170
O5    O     O_R   0.306670 0.731630 0.863510 -0.494924
O6    O     O_R   0.693330 0.268370 0.136490 -0.494815
O7    O     O_R   0.135450 0.439270 0.865360 -0.525377
O8    O     O_R   0.864550 0.560730 0.134640 -0.525454
O9    O     O_R   0.429670 0.560710 0.692610 -0.548126
O10   O     O_R   0.570330 0.439290 0.307390 -0.548108
O11   O     O_R   0.308540 0.439240 0.865360 -0.555355
O12   O     O_3   0.748380 0.500000 0.251570 -0.473902
O13   O     O_R   0.691460 0.560760 0.134640 -0.555372
O14   O     O_R   0.133580 0.439310 0.571150 -0.491324
O15   O     O_R   0.866420 0.560690 0.428850 -0.491275
O16   O     O_R   0.430770 0.560690 0.864590 -0.547807
O17   O     O_R   0.569230 0.439310 0.135410 -0.547783
O18   O     O_R   0.133580 0.560760 0.692610 -0.483203
O19   O     O_R   0.866420 0.439240 0.307390 -0.482899
O20   O     O_2   0.074740 0.671394 0.428402 -0.498881
O21   O     O_2   0.925234 0.328573 0.571611 -0.498861
O22   O     O_2   0.897877 0.106651 0.757156 -0.413918
O23   O     O_R   0.134680 0.560740 0.864590 -0.552139
O24   O     O_2   0.102135 0.893278 0.242866 -0.414021
O25   O     O_2   0.929697 0.058706 0.864057 -0.409569
O26   O     O_2   0.070352 0.941188 0.135922 -0.409529
O27   O     O_2   0.770241 0.776967 0.772791 -0.435481
O28   O     O_2   0.229780 0.223237 0.227361 -0.435606
O29   O     O_2   0.466270 0.346101 0.785487 -0.524739
O30   O     O_2   0.533745 0.653942 0.214468 -0.524756
O31   O     O_2   0.129549 0.399087 0.400131 -0.446177
O32   O     O_2   0.870370 0.600819 0.599828 -0.446449
O33   O     O_2   0.772066 0.895247 0.022870 -0.538700
O34   O     O_R   0.865320 0.439260 0.135410 -0.552016
O35   O     O_2   0.227961 0.104823 0.977281 -0.538756
O36   O     O_2   0.971848 0.770790 0.786210 -0.466685
O37   O     O_2   0.028017 0.229178 0.213845 -0.466283
O38   O     O_2   0.217913 0.864168 0.105479 -0.424273
O39   O     O_2   0.782119 0.135775 0.894400 -0.424170
O40   O     O_2   0.893992 0.630600 0.995914 -0.536374
O41   O     O_2   0.105919 0.369268 0.003921 -0.536333
O42   O     O_2   0.851509 0.269871 0.275735 -0.450858
O43   O     O_2   0.149392 0.730548 0.723789 -0.450845
O44   O     O_2   0.354885 0.844730 0.773773 -0.449908
O45   O     O_R   0.306670 0.439270 0.571150 -0.495250
O46   O     O_2   0.645438 0.155310 0.226123 -0.450441
O47   O     O_2   0.328128 0.042330 0.061939 -0.424802
O48   O     O_2   0.672031 0.957877 0.938267 -0.424927
O49   O     O_2   0.662954 0.745619 0.537298 -0.449035
O50   O     O_2   0.337039 0.254544 0.462950 -0.449180
O51   O     O_R   0.693330 0.560730 0.428850 -0.495349
O52   O     O_R   0.135450 0.268370 0.694460 -0.533616
O53   O     O_R   0.864550 0.731630 0.305540 -0.533612
O54   O     O_R   0.429670 0.731610 0.863510 -0.552165
Zn1   Zn    Zn3+2 0.207400 0.586780 0.791530 1.011263
Zn2   Zn    Zn3+2 0.792600 0.413220 0.208470 1.011469
Zn3   Zn    Zn3+2 0.208510 0.413230 0.792630 0.961306
Zn4   Zn    Zn3+2 0.791490 0.586770 0.207370 0.961250
Zn5   Zn    Zn3+2 0.383150 0.586740 0.791530 0.953628
Zn6   Zn    Zn3+2 0.616850 0.413260 0.208470 0.953588
Zn7   Zn    Zn3+2 0.207400 0.413250 0.618010 1.037532
Zn8   Zn    Zn3+2 0.792600 0.586750 0.381990 1.037405

loop_
_geom_bond_atom_site_label_1
_geom_bond_atom_site_label_2
_ccdc_geom_bond_type
C2    C35   S    
C58   C62   A    
C19   O47   D    
C66   C68   A    
C105  C110  S    
C26   C32   S    
O19   Zn2   S    
C49   H19   S    
C27   C29   S    
C35   O54   A    
C100  O17   A    
C42   C103  S    
C9    C91   S    
C5    O32   D    
C104  C106  S    
C55   C68   A    
C95   C98   A    
C92   C98   A    
C39   C41   A    
C25   C28   S    
C36   O2    A    
O13   Zn4   S    
C22   O50   D    
O8    Zn4   S    
C18   C75   S    
C22   C32   S    
C1    O52   A    
C25   H10   S    
C24   C26   S    
C29   C83   S    
C29   C32   S    
C13   C108  S    
C17   C64   S    
C83   O45   A    
C27   H8    S    
C78   C80   A    
C39   C54   S    
C28   C84   S    
C89   H4    S    
C53   C104  S    
C101  C109  S    
C82   C87   A    
C71   H35   S    
C4    C103  S    
C21   C30   S    
C75   C97   S    
C83   O9    A    
C110  H11   S    
C61   C63   A    
C49   C51   A    
C110  O20   D    
C8    O36   D    
C16   C53   S    
C6    O33   D    
O1    Zn5   S    
C11   O39   D    
C24   C29   S    
C6    H31   S    
C18   H46   S    
C10   O38   D    
C40   C43   A    
O4    Zn8   S    
C2    C97   S    
C9    O37   D    
C77   H52   S    
O3    Zn7   S    
C114  O25   D    
C60   O8    A    
C46   H1    S    
C24   H9    S    
C50   C52   A    
C56   C58   A    
O7    Zn3   S    
O16   Zn5   S    
C8    H36   S    
C42   C107  S    
O11   Zn3   S    
C14   C93   S    
C99   O11   A    
C48   H18   S    
C37   H45   S    
O14   Zn7   S    
C22   H50   S    
C25   C32   S    
C48   C50   A    
C63   C66   A    
C44   C114  S    
C75   C108  S    
C93   C95   A    
C5    H30   S    
C113  H15   S    
C27   C30   S    
C33   C46   A    
C20   O48   D    
C117  H21   S    
C59   C95   S    
C15   O42   D    
C64   C86   S    
C99   O16   A    
C2    C64   S    
C116  H20   S    
C35   O5    A    
C45   C47   A    
C61   C76   S    
C115  O26   D    
C77   C90   A    
C85   H54   S    
C82   C96   S    
C13   C19   S    
C47   H12   S    
O18   Zn1   S    
C31   O4    A    
C101  O14   A    
O17   Zn6   S    
C36   O6    A    
C12   O40   D    
C72   C74   A    
C101  O18   A    
O1    Zn1   S    
O45   Zn7   S    
C79   C81   A    
C116  O27   D    
C34   H34   S    
C4    O31   D    
C44   C46   A    
C65   C67   A    
C40   C52   S    
C4    H29   S    
C23   C86   S    
C33   C37   A    
C55   H22   S    
C14   O41   D    
C67   C69   A    
C26   H7    S    
C16   O43   D    
C48   C54   A    
C73   C76   A    
O51   Zn8   S    
O5    Zn1   S    
C7    H32   S    
C105  C107  S    
C45   C115  S    
C70   C76   A    
C20   C23   S    
C6    C66   S    
C49   C52   A    
C112  O22   D    
C92   C94   A    
C102  O19   A    
C114  H16   S    
C77   C79   A    
C102  C107  S    
C103  C105  S    
C55   C57   A    
C112  H14   S    
C94   C96   A    
C42   C106  S    
O12   Zn6   S    
C117  O28   D    
C21   O49   D    
C111  O21   D    
C7    O35   D    
C68   C116  S    
C118  H25   S    
C93   C96   A    
C31   O53   A    
O34   Zn2   S    
C25   C27   S    
C16   H43   S    
C41   C44   A    
C118  O29   D    
C89   C91   A    
O12   Zn2   S    
C31   C50   S    
C10   H38   S    
C106  C111  S    
C17   O44   D    
C2    C23   S    
C23   C75   S    
C11   H39   S    
C38   H51   S    
C71   C73   A    
C72   C100  S    
C85   C88   A    
O10   Zn6   S    
C73   C99   S    
C1    O3    A    
C62   C65   A    
C34   C38   A    
O6    Zn2   S    
C84   O10   A    
C12   C92   S    
C86   C108  S    
C3    H26   S    
C102  O15   A    
C15   C42   S    
C88   C90   A    
C88   H3    S    
C84   O51   A    
C21   H49   S    
C71   C74   A    
C70   C72   A    
C10   C79   S    
C57   C61   A    
C3    O30   D    
C78   C91   A    
O1    Zn7   S    
C20   H48   S    
C111  H13   S    
C26   C28   S    
O53   Zn4   S    
C1    C51   S    
O23   Zn1   S    
C14   H41   S    
C103  C109  S    
C51   C54   A    
C33   H23   S    
C59   O7    A    
C100  O13   A    
O12   Zn8   S    
O12   Zn4   S    
C15   H42   S    
C43   C45   A    
O52   Zn3   S    
C43   C113  S    
C38   C40   A    
C60   O34   A    
C13   C64   S    
C115  H17   S    
O9    Zn5   S    
O1    Zn3   S    
C69   C117  S    
C78   H53   S    
C113  O24   D    
C80   C82   A    
C28   C30   S    
C41   C112  S    
C97   H6    S    
C13   C97   S    
C24   C30   S    
C17   H44   S    
C5    C104  S    
O15   Zn8   S    
C59   O23   A    
C11   C80   S    
C7    C67   S    
C56   H24   S    
C3    C58   S    
C53   C105  S    
C87   H2    S    
C8    C90   S    
C36   C108  S    
C9    H37   S    
C37   C39   A    
C56   C69   A    
C81   C98   S    
C86   H5    S    
C87   C89   A    
C62   C74   S    
C53   C109  S    
C34   C47   A    
C19   H47   S    
C12   H40   S    
C65   H28   S    
C70   H33   S    
O2    Zn6   S    
C63   H27   S    
C104  C107  S    
C81   C85   A    
O54   Zn5   S    
C60   C94   S    
C57   C118  S    
C106  C109  S    
C18   O46   D    
