data_mof_unit_3108.cif
_audit_creation_date              2013-03-05T15:55:18-0500
_audit_creation_method            fapswitch 2.2
_symmetry_space_group_name_H-M    P1
_symmetry_Int_Tables_number       1
_space_group_crystal_system       triclinic
_cell_length_a                    27.6854
_cell_length_b                    10.71922
_cell_length_c                    9.863258
_cell_angle_alpha                 89.364485
_cell_angle_beta                  90.678032
_cell_angle_gamma                 91.583922
_cell_volume                      2925.58562379

loop_
_atom_site_label
_atom_site_type_symbol
_atom_site_description
_atom_site_fract_x
_atom_site_fract_y
_atom_site_fract_z
_atom_type_partial_charge
O1    O     O_R   0.500000 0.316780 0.614690 -0.655736
O2    O     O_R   0.500000 0.316750 0.385360 -0.636672
C1    C     C_R   0.502986 0.259749 0.501936 0.874564
O3    O     O_R   0.428760 0.500030 0.614650 -0.645204
O4    O     O_R   0.428750 0.500010 0.385320 -0.635380
C2    C     C_R   0.406036 0.502759 0.498897 0.858091
Zn1   Zn    Zn3+2 0.500000 0.500020 0.653130 0.936271
Zn2   Zn    Zn3+2 0.500000 0.499980 0.346870 0.940054
O5    O     O_R   0.500000 0.683250 0.614640 -0.621537
O6    O     O_R   0.500000 0.683220 0.385310 -0.622251
O7    O     O_R   0.571250 0.499990 0.614680 -0.615643
O8    O     O_R   0.571240 0.499970 0.385350 -0.612910
C3    C     C_R   0.494809 0.738863 0.499661 0.890655
C4    C     C_R   0.593978 0.498913 0.500872 0.922088
C5    C     C_R   0.176927 0.395040 0.481097 0.518309
O9    O     O_2   0.201936 0.289162 0.471991 -0.550060
N1    N     N_R   0.200910 0.507146 0.497388 -0.353545
C6    C     C_R   0.176899 0.616607 0.504211 0.546098
C7    C     C_R   0.277353 0.565813 0.391143 -0.095996
C8    C     C_R   0.327762 0.566309 0.388114 0.151658
C9    C     C_R   0.327719 0.455218 0.605959 -0.268067
C10   C     C_R   0.277615 0.456197 0.607327 -0.090655
C11   C     C_R   0.252458 0.510577 0.499496 0.257242
C12   C     C_R   0.101005 0.501518 0.479698 -0.063295
C13   C     C_R   0.126480 0.390048 0.471867 -0.009142
C14   C     C_R   0.101189 0.276586 0.454557 -0.118109
C15   C     C_R   0.126437 0.615966 0.494522 -0.081350
C16   C     C_R   0.353257 0.508310 0.496451 -0.052292
H1    H     H_    0.346509 0.411050 0.689793 0.166812
H2    H     H_    0.258242 0.413702 0.691482 0.157368
H3    H     H_    0.120047 0.189614 0.449876 0.188513
C17   C     C_R   0.646583 0.492119 0.503505 -0.126506
C18   C     C_R   0.973669 0.383315 0.440655 0.006594
C19   C     C_R   0.974855 0.599101 0.517706 0.004434
C20   C     C_R   0.948804 0.488749 0.483374 0.097418
C21   C     C_R   0.946991 0.281217 0.388445 -0.257727
C22   C     C_R   0.896618 0.278360 0.384684 0.411055
C23   C     C_R   0.871353 0.377138 0.445603 -0.128960
C24   C     C_R   0.897942 0.483387 0.494358 -0.135434
C25   C     C_R   0.873982 0.584670 0.553975 -0.140673
C26   C     C_R   0.823218 0.581081 0.551924 0.645397
N2    N     N_R   0.798465 0.477007 0.509238 -0.359707
C27   C     C_R   0.820789 0.375401 0.460616 0.626146
C28   C     C_R   0.720831 0.451478 0.628072 0.494251
C29   C     C_R   0.670691 0.460583 0.624625 -0.266364
C30   C     C_R   0.672916 0.514438 0.384918 -0.174630
C31   C     C_R   0.722871 0.507537 0.387986 -0.132742
C32   C     C_R   0.746936 0.477150 0.508853 0.146246
O10   O     O_2   0.793522 0.273457 0.430036 -0.433802
C33   C     C_R   0.024688 0.383796 0.451359 0.084702
C34   C     C_R   0.050090 0.498445 0.473645 0.046991
C35   C     C_R   0.024786 0.609975 0.490645 -0.059547
C36   C     C_R   0.051114 0.273370 0.443576 -0.172819
H4    H     H_    0.650416 0.442059 0.716213 0.211106
H5    H     H_    0.965215 0.204882 0.343102 0.205964
H6    H     H_    0.033749 0.182518 0.434760 0.211057
O11   O     O_2   0.201874 0.725482 0.520406 -0.547238
C37   C     C_R   0.101288 0.727321 0.492206 -0.193637
H7    H     H_    0.256994 0.607593 0.308688 0.149547
H8    H     H_    0.120972 0.816036 0.492004 0.203735
C38   C     C_R   0.951637 0.689730 0.591806 -0.171674
C39   C     C_R   0.901962 0.684432 0.612167 0.452721
O12   O     O_2   0.798113 0.681110 0.587779 -0.439837
C40   C     C_R   0.050941 0.726234 0.482874 0.369184
H9    H     H_    0.972917 0.762915 0.639686 0.225956
H10   H     H_    0.655011 0.538622 0.290370 0.179072
H11   H     H_    0.743156 0.526993 0.296571 0.181572
H12   H     H_    0.508021 0.113430 0.287540 0.173620
C41   C     C_R   0.509726 0.107780 0.762175 -0.144910
H13   H     H_    0.531089 0.192371 0.776877 0.178062
C42   C     C_R   0.494259 0.045131 0.879231 -0.134767
H14   H     H_    0.501274 0.085548 0.977897 0.147508
C43   C     C_R   0.468712 0.932278 0.868693 -0.155519
H15   H     H_    0.454743 0.885949 0.958705 0.140997
C44   C     C_R   0.463019 0.876462 0.742433 -0.146790
H16   H     H_    0.442975 0.788494 0.737927 0.162482
C45   C     C_R   0.482772 0.934146 0.624658 0.100529
C46   C     C_R   0.499362 0.058141 0.631709 0.095143
C47   C     C_R   0.504592 0.125681 0.507373 -0.115380
C48   C     C_R   0.503402 0.064004 0.383182 -0.202528
H17   H     H_    0.499996 0.890626 0.283868 0.169913
C49   C     C_R   0.497082 0.937128 0.380331 -0.208479
C50   C     C_R   0.488399 0.871306 0.500713 -0.130733
H18   H     H_    0.554159 0.640290 0.125956 0.153934
C51   C     C_R   0.436283 0.337302 0.140506 -0.176890
H19   H     H_    0.433884 0.332038 0.247898 0.212283
C52   C     C_R   0.404994 0.256987 0.069974 -0.195798
H20   H     H_    0.380564 0.194513 0.124650 0.164535
C53   C     C_R   0.405106 0.256667 0.929728 -0.188216
H21   H     H_    0.380896 0.193634 0.874926 0.162782
C54   C     C_R   0.436555 0.336541 0.859337 -0.168258
H22   H     H_    0.434825 0.329511 0.751975 0.208280
C55   C     C_R   0.468694 0.419442 0.927506 0.158232
C56   C     C_R   0.468631 0.419655 0.072395 0.162327
N3    N     N_R   0.499540 0.498800 0.142780 -0.124091
C57   C     C_R   0.529835 0.577280 0.071715 -0.112778
H23   H     H_    0.554078 0.640368 0.874031 0.164937
C58   C     C_R   0.529802 0.577296 0.928258 -0.105456
N4    N     N_R   0.499520 0.498720 0.857170 -0.129924
S1    S     S_3+6 0.878473 0.800664 0.718834 0.135034
O13   O     O_2   0.918612 0.868547 0.793987 -0.254859
O14   O     O_2   0.851503 0.893394 0.633687 -0.166337
O15   O     O_3   0.840938 0.733704 0.832792 -0.460886
H24   H     H_    0.826536 0.804234 0.880533 0.407275
S2    S     S_3+6 0.024535 0.868841 0.431052 0.035172
O16   O     O_2   0.976136 0.846094 0.363814 -0.190177
O17   O     O_2   0.018644 0.951110 0.551898 -0.318248
O18   O     O_3   0.060895 0.942925 0.318797 -0.517473
H25   H     H_    0.085277 0.989317 0.374117 0.342096
S3    S     S_3+6 0.749771 0.408964 0.781910 0.067030
O19   O     O_2   0.789344 0.319512 0.755215 -0.243045
O20   O     O_2   0.771145 0.524286 0.846818 -0.236210
O21   O     O_3   0.709576 0.341177 0.888133 -0.558913
H26   H     H_    0.728207 0.323932 0.972343 0.405058
S4    S     S_3+6 0.868526 0.152067 0.294776 0.135489
O22   O     O_2   0.843931 0.064144 0.393364 -0.123793
O23   O     O_2   0.831665 0.200508 0.195611 -0.243500
O24   O     O_3   0.909376 0.071643 0.208852 -0.468174
H27   H     H_    0.918491 0.126215 0.131026 0.369226
C59   C     C_3   0.352829 0.631606 0.271016 -0.852985
H28   H     H_    0.327050 0.683532 0.205958 0.232234
H29   H     H_    0.380345 0.700158 0.309641 0.240026
H30   H     H_    0.370186 0.562299 0.205998 0.259181

loop_
_geom_bond_atom_site_label_1
_geom_bond_atom_site_label_2
_geom_bond_distance
_ccdc_geom_bond_type
H12   C48   1.083953 S    
C52   H20   1.082738 S    
C55   C56   1.429129 A    
C26   N2    1.361150 A    
C20   C24   1.413105 A    
N3    C57   1.365399 A    
C12   C15   1.405680 A    
C1    C47   1.439405 S    
H23   C58   1.081771 S    
C40   S2    1.779897 S    
C45   C46   1.396399 A    
C28   C29   1.394241 A    
Zn1   O7    2.013122 S    
S2    O17   1.503612 D    
N1    C11   1.426509 S    
Zn1   N4    2.012590 S    
C21   C22   1.394144 A    
C30   H10   1.083224 S    
H18   C57   1.081777 S    
C23   C24   1.423960 A    
O7    C4    1.293640 A    
C5    C13   1.398122 A    
C45   C50   1.414591 A    
C37   H8    1.082886 S    
S4    O22   1.502435 D    
C18   C21   1.402586 A    
C25   C39   1.424901 A    
O18   H25   0.989651 S    
C5    N1    1.366879 A    
C19   C20   1.410676 A    
C17   C29   1.404125 A    
C41   C42   1.394963 A    
O5    C3    1.283748 A    
O24   H27   0.990740 S    
S3    O19   1.503174 D    
C2    C16   1.463975 S    
C7    C8    1.396120 A    
S4    O23   1.504042 D    
C57   C58   1.414942 A    
C53   C54   1.390343 A    
C55   N4    1.375727 A    
C38   C39   1.391723 A    
C59   H30   1.109804 S    
C12   C34   1.409653 A    
C14   H3    1.082712 S    
C9    C10   1.387692 A    
C43   C44   1.392958 A    
C41   C46   1.421051 A    
C56   N3    1.375793 A    
Zn2   N3    2.013060 S    
O3    Zn1   2.004084 S    
C31   H11   1.083147 S    
C59   H29   1.110771 S    
H17   C49   1.083873 S    
C51   C52   1.390438 A    
C43   H15   1.082645 S    
C37   C40   1.395547 A    
S2    O18   1.682996 S    
C33   C36   1.411911 A    
C5    O9    1.350071 S    
C34   C35   1.414803 A    
C12   C13   1.407503 A    
C48   C49   1.366976 A    
C35   C40   1.425673 A    
C54   H22   1.062873 S    
C42   C43   1.388585 A    
C46   C47   1.424000 A    
C27   O10   1.345835 S    
C8    C16   1.420634 A    
C7    H7    1.083840 S    
C18   C33   1.415060 A    
C51   H19   1.062877 S    
C9    H1    1.083159 S    
O6    C3    1.293059 A    
C19   C38   1.397318 A    
O1    C1    1.279614 A    
C7    C11   1.395919 A    
C44   H16   1.081887 S    
C22   C23   1.427015 A    
C54   C55   1.410254 A    
C51   C56   1.410678 A    
C6    O11   1.350011 S    
C31   C32   1.398488 A    
Zn2   O8    2.004081 S    
S4    O24   1.683232 S    
S1    O14   1.502855 D    
N1    C6    1.367138 A    
C33   C34   1.416952 A    
N2    C32   1.426629 S    
C44   C45   1.418181 A    
S3    O21   1.682275 S    
C39   S1    1.781054 S    
O3    C2    1.297456 A    
C25   C26   1.404822 A    
C9    C16   1.404488 A    
O8    C4    1.295309 A    
C29   H4    1.082791 S    
C58   N4    1.365308 A    
C52   C53   1.383367 A    
N2    C27   1.361608 A    
C26   O12   1.346579 S    
C14   C36   1.388791 A    
C8    C59   1.509861 S    
C59   H28   1.110927 S    
O21   H26   0.990874 S    
C36   H6    1.078013 S    
Zn1   O5    1.996299 S    
C30   C31   1.386986 A    
C10   H2    1.082953 S    
O1    Zn1   2.004573 S    
C17   C30   1.400410 A    
O2    Zn2   1.996296 S    
C6    C15   1.399035 A    
C4    C17   1.460132 S    
C15   C37   1.398222 A    
O4    Zn2   2.013124 S    
C22   S4    1.782147 S    
S2    O16   1.503087 D    
C3    C50   1.435768 S    
C19   C35   1.412411 A    
O2    C1    1.298923 A    
C13   C14   1.397611 A    
C42   H14   1.082919 S    
C21   H5    1.077218 S    
O4    C2    1.292161 A    
S1    O13   1.503845 D    
C18   C20   1.410377 A    
S1    O15   1.681353 S    
C41   H13   1.079005 S    
S3    O20   1.502098 D    
C47   C48   1.398012 A    
C24   C25   1.423951 A    
C38   H9    1.077774 S    
C23   C27   1.409044 A    
Zn2   O6    2.004573 S    
C49   C50   1.394351 A    
O15   H24   0.990602 S    
C10   C11   1.395424 A    
C53   H21   1.082795 S    
C28   C32   1.408083 A    
C28   S3    1.768627 S    
