data_mof_unit_3189.cif
_audit_creation_date              2013-03-05T16:04:07-0500
_audit_creation_method            fapswitch 2.2
_symmetry_space_group_name_H-M    P1
_symmetry_Int_Tables_number       1
_space_group_crystal_system       triclinic
_cell_length_a                    10.832975
_cell_length_b                    9.524393
_cell_length_c                    10.807277
_cell_angle_alpha                 89.902449
_cell_angle_beta                  90.245836
_cell_angle_gamma                 89.994065
_cell_volume                      1115.05605734

loop_
_atom_site_label
_atom_site_type_symbol
_atom_site_description
_atom_site_fract_x
_atom_site_fract_y
_atom_site_fract_z
_atom_type_partial_charge
O1    O     O_R   0.319640 0.618740 0.499990 -0.586254
O2    O     O_R   0.680360 0.618740 0.500010 -0.587430
O3    O     O_R   0.319620 0.381170 0.499990 -0.603309
O4    O     O_R   0.680380 0.381170 0.500010 -0.602969
C1    C     C_R   0.262080 0.499975 0.500025 0.829857
C2    C     C_R   0.737919 0.499966 0.499926 0.832357
O5    O     O_R   0.500000 0.618810 0.319650 -0.573817
O6    O     O_R   0.500000 0.618810 0.680350 -0.574862
O7    O     O_R   0.499970 0.381240 0.319640 -0.589585
O8    O     O_R   0.500030 0.381240 0.680360 -0.589113
C3    C     C_R   0.489244 0.500465 0.262107 0.850874
C4    C     C_R   0.510643 0.500165 0.737866 0.852867
Cu1   Cu    Cu3+1 0.500000 0.640660 0.500000 0.974917
Cu2   Cu    Cu3+1 0.500000 0.359340 0.500000 0.952829
H1    H     H_    0.488048 0.274569 0.111947 0.162782
H2    H     H_    0.504096 0.274210 0.888586 0.163999
C5    C     C_R   0.425604 0.758482 0.102518 0.033617
C6    C     C_R   0.582662 0.754940 0.896240 0.033148
C7    C     C_R   0.464575 0.884382 0.047938 -0.231333
C8    C     C_R   0.548093 0.882502 0.950410 -0.231075
H3    H     H_    0.431077 0.984472 0.081506 0.133795
H4    H     H_    0.584823 0.981014 0.916348 0.134885
C9    C     C_R   0.528880 0.628264 0.940611 0.054191
C10   C     C_R   0.475270 0.629478 0.058845 0.053924
C11   C     C_R   0.477348 0.501771 0.126866 -0.061241
C12   C     C_R   0.522540 0.500779 0.873052 -0.061144
C13   C     C_R   0.490477 0.374291 0.063645 -0.209275
C14   C     C_R   0.505163 0.373960 0.936612 -0.210422
C15   C     C_R   0.063857 0.372455 0.499859 -0.180052
C16   C     C_R   0.936163 0.372449 0.499865 -0.179537
H5    H     H_    0.111829 0.272688 0.499827 0.140597
H6    H     H_    0.888208 0.272679 0.499723 0.140400
C17   C     C_R   0.871774 0.500015 0.500007 0.000003
C18   C     C_R   0.128224 0.500027 0.499932 -0.001992
C19   C     C_R   0.936133 0.627609 0.500147 -0.144192
C20   C     C_R   0.063842 0.627615 0.500017 -0.144326
H7    H     H_    0.888142 0.727361 0.500317 0.139147
H8    H     H_    0.111814 0.727373 0.500042 0.139969
C21   C     C_R   0.396578 0.074303 0.467414 -0.031933
C22   C     C_R   0.603409 0.074158 0.532630 -0.030626
H9    H     H_    0.313559 0.129207 0.440154 0.119336
H10   H     H_    0.686431 0.128943 0.559883 0.119160
C23   C     C_R   0.396179 0.925929 0.468947 -0.040273
C24   C     C_R   0.603797 0.925790 0.531131 -0.039297
H11   H     H_    0.312317 0.871199 0.444812 0.122183
H12   H     H_    0.687656 0.870959 0.555205 0.119570
N1    N     N_R   0.500000 0.852070 0.500000 -0.158035
N2    N     N_R   0.500000 0.147940 0.500000 -0.154459
C25   C     C_2   0.319265 0.765719 0.188277 0.392062
H13   H     H_    0.290694 0.866378 0.225224 0.030767
O9    O     O_2   0.258367 0.661628 0.213239 -0.565610
C26   C     C_2   0.688557 0.757399 0.809684 0.390499
H14   H     H_    0.720131 0.856651 0.771983 0.031108
O10   O     O_2   0.745892 0.650756 0.784998 -0.566679

loop_
_geom_bond_atom_site_label_1
_geom_bond_atom_site_label_2
_geom_bond_distance
_ccdc_geom_bond_type
H2    C14   1.083402 S    
O5    Cu1   1.960524 S    
C16   H6    1.083031 S    
O7    Cu2   1.959975 S    
C2    C17   1.450043 S    
C15   C16   1.383307 A    
C11   C13   1.401739 A    
O7    C3    1.298660 A    
C21   N2    1.367022 A    
C12   C14   1.401631 A    
C19   C20   1.383479 A    
C24   N1    1.366839 A    
O6    C4    1.293673 A    
C9    C10   1.405903 A    
C1    C18   1.450050 S    
C26   O10   1.221006 D    
C25   O9    1.221322 D    
C20   H8    1.083013 S    
C6    C26   1.483473 S    
C21   H9    1.079889 S    
Cu1   Cu2   2.679402 S    
C26   H14   1.084701 S    
O5    C3    1.293293 A    
C23   H11   1.078710 S    
O2    C2    1.291662 A    
O3    Cu2   1.965060 S    
O8    C4    1.297789 A    
O1    C1    1.291702 A    
C15   C18   1.400973 A    
C22   H10   1.079934 S    
C7    H3    1.083650 S    
C24   H12   1.078471 S    
C18   C20   1.401063 A    
O4    Cu2   1.965102 S    
C5    C10   1.423353 A    
O1    Cu1   1.964979 S    
C8    H4    1.083673 S    
C6    C9    1.423247 A    
O6    Cu1   1.959819 S    
C22   C24   1.413243 A    
C10   C11   1.420277 A    
C19   H7    1.082987 S    
C6    C8    1.401167 A    
O4    C2    1.291847 A    
C25   H13   1.084749 S    
O8    Cu2   1.960680 S    
C9    C12   1.419413 A    
C5    C25   1.483294 S    
C13   C14   1.382760 A    
Cu1   N1    2.013552 S    
O2    Cu1   1.964936 S    
C3    C11   1.466735 S    
C22   N2    1.366998 A    
C5    C7    1.401389 A    
Cu2   N2    2.013457 S    
C16   C17   1.400917 A    
C17   C19   1.401109 A    
C15   H5    1.083002 S    
H1    C13   1.083388 S    
C21   C23   1.413249 A    
C7    C8    1.392147 A    
C4    C12   1.466133 S    
C23   N1    1.366821 A    
O3    C1    1.291816 A    
