data_mof_unit_2293.cif
_audit_creation_date              2012-12-10T18:24:46-0500
_audit_creation_method            fapswitch 2.2
_symmetry_space_group_name_H-M    P1
_symmetry_Int_Tables_number       1
_space_group_crystal_system       triclinic
_cell_length_a                    14.622211
_cell_length_b                    15.872653
_cell_length_c                    17.220454
_cell_angle_alpha                 90.673876
_cell_angle_beta                  86.448179
_cell_angle_gamma                 89.804709
_cell_volume                      3988.76444227

loop_
_atom_site_label
_atom_site_type_symbol
_atom_type_description
_atom_site_fract_x
_atom_site_fract_y
_atom_site_fract_z
_atom_type_partial_charge
C1    C     C_R   0.499930 0.660422 0.500622 0.826222
C2    C     C_R   0.500156 0.339512 0.499473 0.821652
C3    C     C_3   0.472965 0.025197 0.431303 -0.375926
C4    C     C_3   0.525338 0.974068 0.573458 -0.488420
C5    C     C_3   0.557386 0.969871 0.446253 0.402586
C6    C     C_3   0.441533 0.030654 0.558062 0.393005
C7    C     C_1   0.500053 0.749752 0.502379 -0.183158
C8    C     C_1   0.500459 0.250053 0.498539 -0.169846
C9    C     C_3   0.415815 0.972024 0.491345 0.460066
C10   C     C_3   0.583168 0.027307 0.513603 0.400433
C11   C     C_3   0.499570 0.916402 0.504522 -0.069568
C12   C     C_3   0.499532 0.083260 0.499336 -0.066652
C13   C     C_1   0.500162 0.825069 0.503761 0.038963
C14   C     C_1   0.500314 0.174672 0.498204 0.046045
C15   C     C_3   0.031508 0.424678 0.508419 0.550839
C16   C     C_3   0.968003 0.578183 0.491882 0.541584
C17   C     C_3   0.965144 0.470058 0.568718 -0.287171
C18   C     C_3   0.034538 0.532934 0.431621 -0.275449
C19   C     C_3   0.974631 0.452195 0.440295 -0.279390
C20   C     C_3   0.025130 0.550796 0.560037 -0.296961
C21   C     C_3   0.908469 0.498909 0.500393 -0.026047
C22   C     C_3   0.091399 0.503755 0.499901 -0.029625
C23   C     C_R   0.488526 0.501742 0.650589 0.808963
C24   C     C_R   0.511403 0.497210 0.349485 0.811663
C25   C     C_1   0.805817 0.499344 0.500214 0.193970
C26   C     C_1   0.194148 0.501846 0.499924 0.197792
C27   C     C_R   0.483205 0.508143 0.735556 -0.098531
C28   C     C_R   0.516058 0.485596 0.264981 -0.097657
C29   C     C_R   0.562390 0.526790 0.774298 -0.177200
C30   C     C_R   0.597101 0.501708 0.219941 -0.189653
C31   C     C_R   0.558260 0.533167 0.854814 -0.211934
C32   C     C_R   0.599823 0.490047 0.139550 -0.261978
C33   C     C_R   0.475290 0.519965 0.897822 -0.004943
C34   C     C_R   0.522067 0.461356 0.103873 0.008951
C35   C     C_R   0.395051 0.503274 0.859451 0.410146
C36   C     C_R   0.441816 0.441993 0.149148 0.409217
C37   C     C_R   0.399369 0.497497 0.778432 -0.249666
C38   C     C_R   0.439037 0.454772 0.229201 -0.215646
C39   C     C_2   0.474779 0.519993 0.983312 0.414888
C40   C     C_2   0.522896 0.460249 0.018377 0.341828
Cu1   Cu    Cu3+1 0.409780 0.500000 0.499990 0.988753
Cu2   Cu    Cu3+1 0.590220 0.500000 0.500010 0.987377
H1    H     H_    0.627629 0.536567 0.742445 0.166225
H2    H     H_    0.657469 0.524795 0.246615 0.169676
H3    H     H_    0.045882 0.591948 0.608390 0.152478
H4    H     H_    0.954109 0.410776 0.392046 0.154114
H5    H     H_    0.376650 0.439916 0.263462 0.186511
H6    H     H_    0.337600 0.483441 0.749220 0.187196
H7    H     H_    0.661669 0.505511 0.104817 0.164603
H8    H     H_    0.620134 0.547199 0.883924 0.162076
H9    H     H_    0.450871 0.046494 0.374222 0.173630
H10   H     H_    0.545735 0.951953 0.630779 0.163884
H11   H     H_    0.936752 0.443567 0.624457 0.149743
H12   H     H_    0.062671 0.560205 0.376132 0.158660
N1    N     N_1   0.725810 0.500000 0.500030 -0.159831
N2    N     N_1   0.274190 0.500000 0.499970 -0.155664
O1    O     O_R   0.423830 0.620920 0.499990 -0.577838
O2    O     O_R   0.576170 0.379080 0.500010 -0.572942
O3    O     O_R   0.576200 0.620920 0.500000 -0.559511
O4    O     O_R   0.423800 0.379080 0.500000 -0.560799
O5    O     O_R   0.414980 0.500010 0.613590 -0.578173
O6    O     O_R   0.585020 0.499990 0.386410 -0.577273
O7    O     O_R   0.567350 0.500010 0.613600 -0.583673
O8    O     O_R   0.432650 0.499990 0.386400 -0.579021
O9    O     O_3   0.071385 0.344382 0.516291 -0.605978
C41   C     C_3   0.002132 0.283449 0.528117 0.042330
H13   H     H_    0.955463 0.283160 0.479371 0.140530
H14   H     H_    0.961777 0.295908 0.584053 0.143022
C42   C     C_3   0.046992 0.196587 0.531823 -0.280865
H15   H     H_    0.086222 0.182622 0.475753 0.232353
H16   H     H_    0.095575 0.196507 0.579005 0.231858
C43   C     C_3   0.975854 0.127761 0.547442 -0.939128
H17   H     H_    0.937465 0.139480 0.604226 0.260175
H18   H     H_    0.010831 0.065714 0.549508 0.260610
H19   H     H_    0.927083 0.125727 0.500504 0.259481
O10   O     O_3   0.925538 0.657001 0.482292 -0.609707
C44   C     C_3   0.990700 0.722071 0.482857 0.044178
H20   H     H_    0.045945 0.711816 0.436158 0.143129
H21   H     H_    0.020969 0.725899 0.540473 0.147321
C45   C     C_3   0.941965 0.805413 0.468692 -0.302384
H22   H     H_    0.909832 0.802015 0.411901 0.230774
H23   H     H_    0.886797 0.815945 0.515172 0.224041
C46   C     C_3   0.007663 0.879842 0.468058 -0.946731
H24   H     H_    0.041461 0.884262 0.523979 0.257722
H25   H     H_    0.968905 0.939059 0.460039 0.254852
H26   H     H_    0.060402 0.872931 0.419166 0.266558
O11   O     O_3   0.583017 0.408110 0.974044 -0.642127
C47   C     C_3   0.573763 0.322862 0.996378 0.086186
H27   H     H_    0.568276 0.284593 0.942425 0.171011
H28   H     H_    0.510683 0.309292 0.033926 0.163476
C48   C     C_3   0.659045 0.294314 0.036195 -0.347518
H29   H     H_    0.721079 0.306502 0.997403 0.235820
H30   H     H_    0.664950 0.330543 0.091153 0.227701
C49   C     C_3   0.654762 0.200661 0.054778 -0.925819
H31   H     H_    0.593667 0.187327 0.094231 0.264347
H32   H     H_    0.717211 0.182004 0.083970 0.267749
H33   H     H_    0.651240 0.162618 0.000497 0.257573
O12   O     O_3   0.415529 0.572853 0.027685 -0.564091
C50   C     C_3   0.436931 0.658327 0.013263 0.080494
H34   H     H_    0.375968 0.696435 0.033413 0.190906
H35   H     H_    0.449948 0.672056 0.950260 0.126642
C51   C     C_3   0.518177 0.686239 0.059521 -0.393750
H36   H     H_    0.503736 0.671519 0.122034 0.245908
H37   H     H_    0.580895 0.651275 0.038091 0.203495
C52   C     C_3   0.535806 0.780507 0.051444 -0.896344
H38   H     H_    0.551730 0.796393 0.989433 0.254364
H39   H     H_    0.595040 0.798549 0.085338 0.259352
H40   H     H_    0.474826 0.817131 0.074166 0.258449
Cl1   Cl    Cl    0.289300 0.485258 0.910980 -0.534322
Cl2   Cl    Cl    0.343712 0.401738 0.107437 -0.557530
O13   O     O_3   0.619945 0.932254 0.390458 -0.608486
C53   C     C_3   0.656905 0.992996 0.338118 0.077146
H41   H     H_    0.732512 0.984524 0.333464 0.159710
H42   H     H_    0.643802 0.059714 0.357099 0.148508
C54   C     C_3   0.620089 0.977780 0.257966 -0.336741
H43   H     H_    0.637621 0.912597 0.237748 0.231781
H44   H     H_    0.544285 0.984390 0.262029 0.220762
C55   C     C_3   0.660476 0.040085 0.198609 -0.935365
H45   H     H_    0.642292 0.105629 0.217076 0.261944
H46   H     H_    0.632435 0.027311 0.141191 0.266162
H47   H     H_    0.736239 0.033522 0.192394 0.261095
O14   O     O_3   0.375586 0.064448 0.613249 -0.603841
C56   C     C_3   0.419789 0.101439 0.675738 0.055402
H48   H     H_    0.481626 0.137988 0.655613 0.151837
H49   H     H_    0.440651 0.051274 0.715702 0.142748
C57   C     C_3   0.353064 0.161695 0.720142 -0.320213
H50   H     H_    0.328979 0.209779 0.679546 0.234270
H51   H     H_    0.292645 0.125908 0.743985 0.226161
C58   C     C_3   0.398157 0.206348 0.786783 -0.895150
H52   H     H_    0.422182 0.159632 0.828602 0.251508
H53   H     H_    0.347747 0.249171 0.818003 0.282565
H54   H     H_    0.457276 0.244428 0.763919 0.253843
O15   O     O_3   0.670771 0.061913 0.522266 -0.614832
C59   C     C_3   0.733699 0.998698 0.541387 0.085456
H55   H     H_    0.797032 0.006685 0.503158 0.156792
H56   H     H_    0.709829 0.932908 0.531464 0.157085
C60   C     C_3   0.757398 0.010222 0.626115 -0.348887
H57   H     H_    0.783780 0.074967 0.634937 0.229527
H58   H     H_    0.694728 0.002408 0.665127 0.211259
C61   C     C_3   0.829473 0.946519 0.648106 -0.927899
H59   H     H_    0.803565 0.881299 0.641386 0.258036
H60   H     H_    0.845305 0.956833 0.709715 0.261842
H61   H     H_    0.893504 0.954163 0.610777 0.265313
O16   O     O_3   0.326985 0.943287 0.477151 -0.595617
C62   C     C_3   0.289071 0.896048 0.540450 0.110307
H62   H     H_    0.229711 0.931706 0.567772 0.170377
H63   H     H_    0.337111 0.884154 0.587070 0.136128
C63   C     C_3   0.255375 0.811478 0.509871 -0.356507
H64   H     H_    0.200812 0.822538 0.469157 0.223346
H65   H     H_    0.312544 0.778044 0.477042 0.238996
C64   C     C_3   0.218162 0.755525 0.575886 -0.921471
H66   H     H_    0.272904 0.741244 0.615759 0.266954
H67   H     H_    0.193653 0.695246 0.551414 0.250669
H68   H     H_    0.160039 0.787225 0.609154 0.247774

loop_
_geom_bond_atom_site_label_1
_geom_bond_atom_site_label_2
_ccdc_geom_bond_type
C7    C13   T    
C41   H14   S    
O11   C47   S    
C16   C21   S    
C27   C29   A    
Cu1   Cu2   S    
O13   C53   S    
C61   H61   S    
Cu1   O5    S    
Cu2   O2    S    
C6    C9    S    
C53   H42   S    
C62   H62   S    
C19   H4    S    
C56   H48   S    
C44   H20   S    
C15   C19   S    
C60   H58   S    
C33   C39   S    
C4    H10   S    
C34   C40   S    
C40   O11   S    
C35   C37   A    
C63   H65   S    
C5    C11   S    
C1    O3    A    
C6    C12   S    
C2    O4    A    
C56   H49   S    
C41   C42   S    
C54   H43   S    
C15   O9    S    
C17   C20   S    
C51   C52   S    
C18   C19   S    
C64   H68   S    
C42   H16   S    
C55   H45   S    
C3    C12   S    
C1    C7    S    
C15   C22   S    
C46   H24   S    
C54   H44   S    
C8    C14   T    
C64   H66   S    
C10   O15   S    
C23   C27   S    
Cu2   O6    S    
C20   H3    S    
C35   Cl1   S    
C43   H17   S    
C58   H54   S    
C23   O7    A    
C41   H13   S    
C24   O8    A    
C16   O10   S    
C29   H1    S    
C24   O6    A    
C30   H2    S    
C42   H15   S    
C59   C60   S    
C43   H19   S    
C53   H41   S    
C62   H63   S    
C9    O16   S    
C44   H21   S    
C52   H40   S    
C51   H36   S    
C24   C28   S    
C63   C64   S    
O10   C44   S    
C4    C6    S    
C48   H29   S    
C3    H9    S    
C45   H22   S    
C56   C57   S    
C59   H56   S    
C5    O13   S    
C57   C58   S    
C3    C5    S    
C17   C21   S    
C4    C11   S    
C55   H47   S    
C32   C34   A    
C42   C43   S    
C51   H37   S    
Cu1   N2    S    
C3    C9    S    
C1    O1    A    
Cu2   N1    S    
C48   H30   S    
C52   H39   S    
C50   H34   S    
C47   C48   S    
C28   C38   A    
C16   C20   S    
C54   C55   S    
C50   C51   S    
C31   C33   A    
C61   H59   S    
C37   H6    S    
C49   H32   S    
C9    C11   S    
C38   H5    S    
C10   C12   S    
C43   H18   S    
C50   H35   S    
C20   C22   S    
O12   C50   S    
C36   Cl2   S    
O15   C59   S    
C6    O14   S    
C31   H8    S    
C4    C10   S    
C17   H11   S    
C39   C40   D    
C62   C63   S    
C45   C46   S    
C58   H52   S    
C60   H57   S    
C44   C45   S    
C15   C17   S    
C21   C25   S    
C57   H51   S    
C19   C21   S    
C18   C22   S    
C2    C8    S    
C25   N1    T    
Cu1   O4    S    
C47   H28   S    
O16   C62   S    
C39   O12   S    
C26   N2    T    
Cu2   O3    S    
C2    O2    A    
C59   H55   S    
C61   H60   S    
C52   H38   S    
C49   H33   S    
C46   H25   S    
C28   C30   A    
C12   C14   S    
Cu1   O1    S    
C5    C10   S    
C29   C31   A    
C48   C49   S    
C30   C32   A    
C11   C13   S    
C27   C37   A    
C57   H50   S    
C60   C61   S    
C36   C38   A    
C33   C35   A    
C45   H23   S    
C34   C36   A    
C63   H64   S    
C64   H67   S    
C49   H31   S    
C55   H46   S    
C32   H7    S    
C18   H12   S    
C23   O5    A    
C46   H26   S    
C47   H27   S    
C16   C18   S    
O9    C41   S    
C22   C26   S    
Cu1   O8    S    
O14   C56   S    
Cu2   O7    S    
C53   C54   S    
C58   H53   S    
