data_mof_unit_1909.cif
_audit_creation_date              2012-12-11T15:36:00-0500
_audit_creation_method            fapswitch 2.2
_symmetry_space_group_name_H-M    P1
_symmetry_Int_Tables_number       1
_space_group_crystal_system       triclinic
_cell_length_a                    7.060858
_cell_length_b                    12.157729
_cell_length_c                    35.590116
_cell_angle_alpha                 89.999319
_cell_angle_beta                  91.313806
_cell_angle_gamma                 90.000532
_cell_volume                      3054.39467883

loop_
_atom_site_label
_atom_site_type_symbol
_atom_type_description
_atom_site_fract_x
_atom_site_fract_y
_atom_site_fract_z
_atom_type_partial_charge
O1    O     O_R   0.379730 0.148600 0.662710 -0.541167
O2    O     O_R   0.620270 0.851400 0.337290 -0.539395
O3    O     O_R   0.120270 0.648600 0.337290 -0.541173
O4    O     O_R   0.879730 0.351400 0.662710 -0.539401
O5    O     O_R   0.722480 0.134490 0.741330 -0.540453
O6    O     O_R   0.277520 0.865510 0.258670 -0.539218
O7    O     O_R   0.777520 0.634490 0.258670 -0.540455
O8    O     O_R   0.222480 0.365510 0.741330 -0.539219
O9    O     O_R   0.892880 0.345890 0.741600 -0.532633
O10   O     O_R   0.107120 0.654110 0.258400 -0.535479
O11   O     O_R   0.607120 0.845890 0.258400 -0.532637
O12   O     O_R   0.392880 0.154110 0.741600 -0.535482
C1    C     C_R   0.552427 0.107989 0.752704 0.689181
C2    C     C_R   0.445855 0.887476 0.245531 0.691009
C3    C     C_R   0.947572 0.607993 0.247294 0.689183
C4    C     C_R   0.054144 0.387474 0.754469 0.691009
O13   O     O_R   0.709490 0.135560 0.662990 -0.541303
O14   O     O_R   0.290510 0.864440 0.337010 -0.541144
O15   O     O_R   0.790510 0.635560 0.337010 -0.541299
O16   O     O_R   0.209490 0.364440 0.662990 -0.541141
C5    C     C_R   0.539500 0.107037 0.651579 0.687793
C6    C     C_R   0.460489 0.892941 0.348429 0.694310
C7    C     C_R   0.960498 0.607037 0.348421 0.687803
C8    C     C_R   0.039514 0.392942 0.651571 0.694317
O17   O     O_3   0.552800 0.316610 0.702160 -0.368013
O18   O     O_3   0.447200 0.683390 0.297840 -0.371314
O19   O     O_3   0.947200 0.816610 0.297840 -0.368011
O20   O     O_3   0.052800 0.183390 0.702160 -0.371311
V1    V     V_3+5 0.827630 0.234380 0.702160 1.431469
V2    V     V_3+5 0.172370 0.765620 0.297840 1.430370
V3    V     V_3+5 0.672370 0.734380 0.297840 1.431467
V4    V     V_3+5 0.327630 0.265620 0.702160 1.430371
C9    C     C_R   0.032194 0.622539 0.928613 0.519810
C10   C     C_R   0.077104 0.310882 0.088844 0.530463
C11   C     C_R   0.467714 0.122506 0.071381 0.519816
C12   C     C_R   0.422853 0.810882 0.911156 0.530481
O21   O     O_2   0.117887 0.527711 0.937456 -0.564635
O22   O     O_2   0.189598 0.395394 0.080646 -0.542281
O23   O     O_2   0.382022 0.027676 0.062539 -0.564636
O24   O     O_2   0.310397 0.895404 0.919357 -0.542301
N1    N     N_R   0.992790 0.650556 0.891461 -0.543858
N2    N     N_R   0.030357 0.288499 0.125634 -0.535735
N3    N     N_R   0.507127 0.150524 0.108532 -0.543860
N4    N     N_R   0.469582 0.788502 0.874365 -0.535732
C13   C     C_R   0.933988 0.757584 0.884451 0.564612
C14   C     C_R   0.989485 0.178864 0.133442 0.579444
C15   C     C_R   0.565937 0.257550 0.115542 0.564627
C16   C     C_R   0.510435 0.678866 0.866555 0.579431
C17   C     C_R   0.104438 0.620124 0.825992 -0.068866
C18   C     C_R   0.058940 0.346689 0.194114 -0.083604
C19   C     C_R   0.395471 0.120098 0.174000 -0.068855
C20   C     C_R   0.440993 0.846697 0.805885 -0.083598
C21   C     C_R   0.116572 0.561262 0.792147 -0.178281
C22   C     C_R   0.030989 0.420285 0.223823 -0.206479
C23   C     C_R   0.383368 0.061246 0.207848 -0.178283
C24   C     C_R   0.468959 0.920290 0.776176 -0.206477
C25   C     C_R   0.980430 0.405065 0.821972 -0.184082
C26   C     C_R   0.929212 0.558011 0.180170 -0.210387
C27   C     C_R   0.519565 0.905058 0.178030 -0.184049
C28   C     C_R   0.570836 0.058001 0.819826 -0.210370
C29   C     C_R   0.971607 0.461619 0.856883 0.149246
C30   C     C_R   0.970645 0.488952 0.149462 0.132413
C31   C     C_R   0.528340 0.961598 0.143115 0.149228
C32   C     C_R   0.529350 0.988953 0.850536 0.132402
C33   C     C_R   0.025301 0.575797 0.858955 0.299756
C34   C     C_R   0.024944 0.375168 0.155607 0.351027
C35   C     C_R   0.474618 0.075769 0.141039 0.299750
C36   C     C_R   0.475004 0.875174 0.844392 0.351039
C37   C     C_R   0.958724 0.806299 0.950882 -0.009961
C38   C     C_R   0.997886 0.127687 0.067488 -0.024505
C39   C     C_R   0.541186 0.306268 0.049111 -0.009968
C40   C     C_R   0.502022 0.627674 0.932508 -0.024497
C41   C     C_R   0.997654 0.695912 0.958582 -0.018752
C42   C     C_R   0.028399 0.238205 0.059168 -0.047547
C43   C     C_R   0.502245 0.195881 0.041411 -0.018762
C44   C     C_R   0.471533 0.738193 0.940830 -0.047535
C45   C     C_R   0.013388 0.662469 0.996191 -0.110993
C46   C     C_R   0.030156 0.271097 0.021464 -0.121831
C47   C     C_R   0.486479 0.162444 0.003802 -0.110981
C48   C     C_R   0.469764 0.771077 0.978535 -0.121807
C49   C     C_R   0.928639 0.837264 0.913371 0.013434
C50   C     C_R   0.000116 0.096755 0.105310 -0.033986
C51   C     C_R   0.571286 0.337231 0.086622 0.013435
C52   C     C_R   0.499786 0.596750 0.894686 -0.033989
C53   C     C_R   0.047146 0.454163 0.789555 -0.072671
C54   C     C_R   0.961186 0.525537 0.216983 -0.041385
C55   C     C_R   0.452843 0.954160 0.210445 -0.072670
C56   C     C_R   0.538816 0.025532 0.783015 -0.041366
H1    H     H_    0.941327 0.319454 0.819471 0.130799
H2    H     H_    0.888056 0.642925 0.175408 0.108865
H3    H     H_    0.558701 0.819454 0.180535 0.130807
H4    H     H_    0.612026 0.142912 0.824585 0.108841
H5    H     H_    0.034021 0.576609 0.003353 0.157314
H6    H     H_    0.055452 0.356311 0.014188 0.158201
H7    H     H_    0.465823 0.076585 0.996639 0.157330
H8    H     H_    0.444476 0.856290 0.985813 0.158214
C57   C     C_R   0.997517 0.933831 0.047453 0.065301
C58   C     C_R   0.952907 0.000152 0.971299 0.052905
C59   C     C_R   0.502358 0.433811 0.952540 0.065298
C60   C     C_R   0.546986 0.500124 0.028695 0.052902
C61   C     C_R   0.974829 0.081203 0.000195 0.015617
C62   C     C_R   0.987811 0.853014 0.018220 0.017278
C63   C     C_R   0.525062 0.581177 0.999800 0.015615
C64   C     C_R   0.512063 0.352991 0.981772 0.017259
C65   C     C_R   0.984841 0.047243 0.038271 0.095844
C66   C     C_R   0.963615 0.886728 0.980326 0.080171
C67   C     C_R   0.515052 0.547223 0.961723 0.095861
C68   C     C_R   0.536279 0.386700 0.019667 0.080164
C69   C     C_R   0.032773 0.906569 0.085632 -0.150526
C70   C     C_R   0.923650 0.028218 0.933298 -0.204688
C71   C     C_R   0.467095 0.406557 0.914359 -0.150552
C72   C     C_R   0.576253 0.528187 0.066697 -0.204657
C73   C     C_R   0.021881 0.985438 0.114159 -0.124220
C74   C     C_R   0.908655 0.948867 0.905091 -0.125170
C75   C     C_R   0.478001 0.485435 0.885834 -0.124202
C76   C     C_R   0.591263 0.448833 0.094903 -0.125088
O25   O     O_2   0.933329 0.147033 0.167667 -0.523489
O26   O     O_2   0.882268 0.789204 0.849379 -0.524957
O27   O     O_2   0.566589 0.647039 0.832330 -0.523488
O28   O     O_2   0.617657 0.289169 0.150613 -0.524947
C77   C     C_R   0.000237 0.738899 0.025300 -0.205464
C78   C     C_R   0.997374 0.195005 0.992556 -0.160082
C79   C     C_R   0.499612 0.238877 0.974692 -0.205444
C80   C     C_R   0.502517 0.694977 0.007442 -0.160095
H9    H     H_    0.063597 0.394445 0.252384 0.107305
H10   H     H_    0.176237 0.600518 0.767802 0.117651
H11   H     H_    0.436326 0.894454 0.747616 0.107298
H12   H     H_    0.323688 0.100501 0.232191 0.117657
H13   H     H_    0.110288 0.267342 0.202619 0.145749
H14   H     H_    0.154753 0.703253 0.826457 0.143160
H15   H     H_    0.389623 0.767354 0.797381 0.145740
H16   H     H_    0.345130 0.203221 0.173532 0.143155
H17   H     H_    0.039177 0.959380 0.143145 0.150446
H18   H     H_    0.892199 0.976365 0.876303 0.148534
H19   H     H_    0.460702 0.459384 0.856848 0.150448
H20   H     H_    0.607727 0.476330 0.123691 0.148531
H21   H     H_    0.065297 0.824196 0.094422 0.116530
H22   H     H_    0.912970 0.111554 0.924476 0.117943
H23   H     H_    0.434554 0.324186 0.905566 0.116534
H24   H     H_    0.586932 0.611528 0.075520 0.117920
H25   H     H_    0.000416 0.706326 0.053154 0.126360
H26   H     H_    0.001626 0.227266 0.964409 0.129810
H27   H     H_    0.499386 0.206308 0.946837 0.126346
H28   H     H_    0.498242 0.727232 0.035590 0.129814
C81   C     C_R   0.969927 0.528773 0.379253 -0.029685
C82   C     C_R   0.030177 0.471205 0.620733 -0.031333
C83   C     C_R   0.530050 0.028782 0.620746 -0.029640
C84   C     C_R   0.469844 0.971196 0.379268 -0.031294
C85   C     C_R   0.920797 0.346246 0.403522 -0.167452
C86   C     C_R   0.080328 0.653617 0.596446 -0.168167
C87   C     C_R   0.578817 0.846207 0.596485 -0.167458
C88   C     C_R   0.420035 0.153655 0.403547 -0.168173
C89   C     C_R   0.929069 0.417894 0.373132 -0.184114
C90   C     C_R   0.071777 0.582001 0.626838 -0.181350
C91   C     C_R   0.570643 0.917867 0.626874 -0.184127
C92   C     C_R   0.428491 0.082027 0.373157 -0.181370
C93   C     C_R   0.001986 0.568549 0.415544 -0.216385
C94   C     C_R   0.997827 0.431461 0.584445 -0.217592
C95   C     C_R   0.498153 0.068581 0.584453 -0.216364
C96   C     C_R   0.502044 0.931430 0.415558 -0.217571
C97   C     C_R   0.988667 0.498668 0.447026 0.080170
C98   C     C_R   0.011767 0.501265 0.552954 0.080615
C99   C     C_R   0.511332 0.998678 0.552974 0.080185
C100  C     C_R   0.488233 0.001256 0.447046 0.080627
C101  C     C_R   0.948135 0.385775 0.440313 0.129038
C102  C     C_R   0.052752 0.614108 0.559660 0.129252
C103  C     C_R   0.551614 0.885751 0.559692 0.129023
C104  C     C_R   0.447486 0.114132 0.440335 0.129237
C105  C     C_R   0.010086 0.537619 0.484752 0.053011
C106  C     C_R   0.990513 0.462290 0.515226 0.053099
C107  C     C_R   0.489991 0.037633 0.515246 0.053012
C108  C     C_R   0.509406 0.962276 0.484775 0.053101
C109  C     C_R   0.951737 0.350479 0.506957 -0.195670
C110  C     C_R   0.049263 0.649386 0.493019 -0.195739
C111  C     C_R   0.547958 0.850434 0.493049 -0.195672
C112  C     C_R   0.451031 0.149430 0.506975 -0.195743
C113  C     C_R   0.931586 0.313409 0.470280 -0.199371
C114  C     C_R   0.069591 0.686438 0.529692 -0.199214
C115  C     C_R   0.568031 0.813362 0.529728 -0.199396
C116  C     C_R   0.430775 0.186485 0.470300 -0.199237
H29   H     H_    0.900740 0.227131 0.465360 0.140458
H30   H     H_    0.100830 0.772671 0.534609 0.140498
H31   H     H_    0.598695 0.727059 0.534651 0.140433
H32   H     H_    0.399707 0.272742 0.465380 0.140472
H33   H     H_    0.968913 0.344798 0.582008 0.097871
H34   H     H_    0.030128 0.655295 0.417990 0.097915
H35   H     H_    0.530774 0.844743 0.417999 0.097844
H36   H     H_    0.470213 0.155352 0.582003 0.097886
H37   H     H_    0.099398 0.612554 0.655030 0.106375
H38   H     H_    0.901799 0.387308 0.344931 0.106271
H39   H     H_    0.400999 0.112599 0.344962 0.106366
H40   H     H_    0.597775 0.887261 0.655077 0.106253
H41   H     H_    0.888739 0.260289 0.398345 0.127369
H42   H     H_    0.112862 0.739517 0.601616 0.126947
H43   H     H_    0.610669 0.760222 0.601666 0.127352
H44   H     H_    0.387695 0.239583 0.398373 0.126931
H45   H     H_    0.934965 0.288392 0.528135 0.129686
H46   H     H_    0.066491 0.711423 0.471839 0.129674
H47   H     H_    0.564604 0.788325 0.471873 0.129687
H48   H     H_    0.433922 0.211489 0.528152 0.129675
C117  C     C_3   0.923853 0.395135 0.891180 -0.279273
C118  C     C_3   0.814837 0.290002 0.883693 -0.908902
H49   H     H_    0.695409 0.303627 0.863445 0.243997
H50   H     H_    0.909327 0.224919 0.872774 0.225097
H51   H     H_    0.759164 0.262735 0.910905 0.226430
H52   H     H_    0.058046 0.368301 0.905143 0.223702
H53   H     H_    0.839133 0.445597 0.910376 0.217978
C119  C     C_3   0.992145 0.553311 0.113687 -0.316917
C120  C     C_3   0.189511 0.606168 0.113569 -0.675211
H54   H     H_    0.191255 0.682388 0.130752 0.183937
H55   H     H_    0.296644 0.550172 0.126287 0.249318
H56   H     H_    0.232224 0.625915 0.084635 0.225369
H57   H     H_    0.950703 0.509435 0.087799 0.210172
H58   H     H_    0.888725 0.620099 0.112864 0.150507
C121  C     C_3   0.576057 0.895104 0.108818 -0.279282
C122  C     C_3   0.685074 0.789971 0.116307 -0.908902
H59   H     H_    0.804518 0.803602 0.136550 0.243986
H60   H     H_    0.590590 0.724891 0.127231 0.225109
H61   H     H_    0.740734 0.762698 0.089095 0.226427
H62   H     H_    0.441847 0.868269 0.094862 0.223694
H63   H     H_    0.660760 0.945558 0.089618 0.217988
C123  C     C_3   0.507761 0.053331 0.886305 -0.316943
C124  C     C_3   0.310342 0.106131 0.886406 -0.675169
H64   H     H_    0.308512 0.182311 0.869197 0.183940
H65   H     H_    0.203271 0.050057 0.873704 0.249354
H66   H     H_    0.267617 0.125944 0.915335 0.225336
H67   H     H_    0.549224 0.009485 0.912198 0.210201
H68   H     H_    0.611095 0.120172 0.887125 0.150523

loop_
_geom_bond_atom_site_label_1
_geom_bond_atom_site_label_2
_ccdc_geom_bond_type
C13   O26   S    
C26   C30   A    
C94   C98   A    
C103  C115  A    
C107  C108  A    
O1    C5    A    
C119  H57   S    
C58   C70   A    
C23   H12   S    
C96   C100  A    
O13   V1    S    
C117  C118  S    
C72   H24   S    
O3    C7    A    
C124  H64   S    
C10   N2    A    
C122  H61   S    
C72   C76   A    
C40   C44   A    
C83   C95   A    
C11   N3    A    
C75   H19   S    
C28   C56   A    
C124  H66   S    
C71   H23   S    
C64   C79   A    
C7    C81   S    
C11   C43   A    
C18   C22   A    
C17   C33   A    
C25   H1    S    
C32   C36   A    
O20   V1    S    
O9    C4    A    
C122  H60   S    
C2    C55   S    
O10   C3    A    
N4    C36   S    
N2    C14   A    
O4    C8    A    
O11   C2    A    
C113  H29   S    
C24   C56   A    
C86   C102  A    
C121  H63   S    
C120  H56   S    
C101  C113  A    
C69   H21   S    
C84   C96   A    
C24   H11   S    
C87   H43   S    
C5    C83   S    
C85   C89   A    
C86   H42   S    
C19   H16   S    
C12   C44   A    
C29   C117  S    
C14   C50   A    
C88   C92   A    
C119  C120  S    
C118  H51   S    
C82   C90   A    
C49   C74   A    
C38   C42   A    
C116  H32   S    
C117  H52   S    
C37   C41   A    
C102  C114  A    
C71   C75   A    
C15   C51   A    
C48   H8    S    
C62   C77   A    
C83   C91   A    
C110  C114  A    
O5    V1    S    
C57   C62   A    
C20   C36   A    
C108  C111  A    
O9    V1    S    
C97   C105  A    
O17   V4    S    
O7    C3    A    
C59   C64   A    
O15   V3    S    
O18   V3    S    
O8    C4    A    
C73   H17   S    
C39   C68   A    
O12   V4    S    
O19   V2    S    
C61   C65   A    
C21   C53   A    
C112  H48   S    
C38   C50   A    
C63   C80   A    
C26   C54   A    
C30   C119  S    
C88   C104  A    
O16   V4    S    
C16   O27   S    
C39   C51   A    
C89   H38   S    
C28   H4    S    
O17   V1    S    
C22   H9    S    
C31   C35   A    
C110  H46   S    
C60   C68   A    
C118  H49   S    
C88   H44   S    
C109  H45   S    
O8    V4    S    
C115  H31   S    
C77   H25   S    
C12   O24   S    
C85   C101  A    
C122  H59   S    
C27   C55   A    
C91   H40   S    
C22   C54   A    
C30   C34   A    
O15   C7    A    
C111  C115  A    
C104  C116  A    
O19   V3    S    
O7    V3    S    
O13   C5    A    
C16   C52   A    
C14   O25   S    
O2    V3    S    
C95   H36   S    
O3    V2    S    
C11   O23   S    
C121  C122  S    
C47   H7    S    
C18   H13   S    
O6    C2    A    
C81   C93   A    
O10   V2    S    
C112  C116  A    
C98   C106  A    
C40   C67   A    
O20   V4    S    
C99   C103  A    
C105  C110  A    
C59   C71   A    
C120  H54   S    
C117  H53   S    
C32   C123  S    
C105  C106  A    
C19   C35   A    
N1    C13   A    
C93   H34   S    
C107  C112  A    
C18   C34   A    
C111  H47   S    
C40   C52   A    
C118  H50   S    
C26   H2    S    
C37   C49   A    
O14   V2    S    
C100  C104  A    
C9    C41   A    
C15   O28   S    
O6    V2    S    
C90   H37   S    
C10   C42   A    
C60   C72   A    
C52   C75   A    
C87   C91   A    
C3    C54   S    
C42   C46   A    
C4    C53   S    
C95   C99   A    
C27   H3    S    
C12   N4    A    
C43   C47   A    
C78   H26   S    
C94   H33   S    
C93   C97   A    
C64   C68   A    
C99   C107  A    
C48   C80   A    
C81   C89   A    
C100  C108  A    
C70   C74   A    
C120  H55   S    
C119  H58   S    
C10   O22   S    
C20   H15   S    
O5    C1    A    
C51   C76   A    
C13   C49   A    
C44   C48   A    
C50   C73   A    
C6    C84   S    
C38   C65   A    
O4    V1    S    
N1    C33   S    
C37   C66   A    
C124  H65   S    
C25   C29   A    
C82   C94   A    
C87   C103  A    
C69   C73   A    
C114  H30   S    
C58   C61   A    
C59   C67   A    
C17   H14   S    
C85   H41   S    
C27   C31   A    
C61   C78   A    
C58   C66   A    
C28   C32   A    
C9    N1    A    
O14   C6    A    
C57   C69   A    
C57   C65   A    
N4    C16   A    
C8    C82   S    
O2    C6    A    
C39   C43   A    
C47   C79   A    
C123  H67   S    
C46   H6    S    
C17   C21   A    
C106  C109  A    
C1    C56   S    
C45   H5    S    
C74   H18   S    
C25   C53   A    
C98   C102  A    
C19   C23   A    
C60   C63   A    
C23   C55   A    
C123  C124  S    
C46   C78   A    
C9    O21   S    
C45   C77   A    
C21   H10   S    
C70   H22   S    
O11   V3    S    
C92   H39   S    
C29   C33   A    
O1    V4    S    
O12   C1    A    
N3    C35   S    
C123  H68   S    
C86   C90   A    
C62   C66   A    
C79   H27   S    
N2    C34   S    
C41   C45   A    
C80   H28   S    
C63   C67   A    
C84   C92   A    
C96   H35   S    
C31   C121  S    
C109  C113  A    
C121  H62   S    
N3    C15   A    
C76   H20   S    
O16   C8    A    
C97   C101  A    
C20   C24   A    
O18   V2    S    
