data_mof_unit_4232.cif
_audit_creation_date              2012-12-10T17:45:34-0500
_audit_creation_method            fapswitch 2.2
_symmetry_space_group_name_H-M    P1
_symmetry_Int_Tables_number       1
_space_group_crystal_system       triclinic
_cell_length_a                    11.534274
_cell_length_b                    10.632867
_cell_length_c                    9.938219
_cell_angle_alpha                 90.193844
_cell_angle_beta                  90.020206
_cell_angle_gamma                 91.579932
_cell_volume                      1218.37658451

loop_
_atom_site_label
_atom_site_type_symbol
_atom_type_description
_atom_site_fract_x
_atom_site_fract_y
_atom_site_fract_z
_atom_type_partial_charge
C1    C     C_R   0.502142 0.260904 0.499816 0.873680
C2    C     C_R   0.503639 0.871957 0.501181 -0.224984
C3    C     C_R   0.351509 0.331582 0.138922 -0.231422
C4    C     C_R   0.282103 0.499618 0.499995 0.870955
C5    C     C_R   0.280786 0.246042 0.068592 -0.264150
C6    C     C_R   0.282666 0.243407 0.929007 0.487877
C7    C     C_R   0.352228 0.331065 0.859620 -0.265061
C8    C     C_R   0.427260 0.416683 0.927496 0.112381
C9    C     C_R   0.427188 0.416746 0.071851 0.176796
C10   C     C_R   0.569649 0.579711 0.071718 -0.094808
C11   C     C_R   0.569598 0.579712 0.928773 -0.098074
C12   C     C_R   0.798638 0.072496 0.650438 -0.129633
C13   C     C_R   0.500841 0.739263 0.500244 0.853920
C14   C     C_R   0.717907 0.500423 0.500024 0.874900
C15   C     C_1   0.161596 0.499531 0.500031 -0.168851
C16   C     C_1   0.059363 0.499606 0.500136 0.015881
C17   C     C_1   0.940646 0.499870 0.500195 0.007062
C18   C     C_1   0.838418 0.500162 0.500131 -0.190201
C19   C     C_R   0.703242 0.135909 0.601645 -0.150809
C20   C     C_3   0.275696 0.061510 0.808683 0.082998
C21   C     C_3   0.196535 0.970404 0.730990 -0.770539
C22   C     C_R   0.797720 0.941688 0.650022 -0.135403
C23   C     C_R   0.701283 0.873951 0.601148 -0.156712
C24   C     C_R   0.602924 0.936830 0.552504 0.050898
C25   C     C_R   0.604444 0.068522 0.552387 0.090384
C26   C     C_R   0.507771 0.128935 0.499223 -0.194676
C27   C     C_R   0.412719 0.063786 0.445221 -0.223396
C28   C     C_R   0.408019 0.935024 0.447732 0.432252
H1    H     H_    0.339591 0.113768 0.405114 0.160794
H2    H     H_    0.224137 0.181250 0.123121 0.182417
H3    H     H_    0.316918 0.008996 0.892085 0.156984
H4    H     H_    0.344219 0.097227 0.738533 0.144220
H5    H     H_    0.157117 0.019151 0.644266 0.259520
H6    H     H_    0.247359 0.890583 0.692793 0.218475
H7    H     H_    0.126505 0.933062 0.797662 0.251976
H8    H     H_    0.304080 0.787010 0.428457 0.330433
H9    H     H_    0.344338 0.329256 0.753041 0.216999
H10   H     H_    0.626505 0.644967 0.875460 0.144433
H11   H     H_    0.708357 0.237548 0.601398 0.145594
H12   H     H_    0.873855 0.125001 0.687567 0.157834
H13   H     H_    0.872250 0.892506 0.686844 0.143283
H14   H     H_    0.705407 0.772513 0.600828 0.139449
H15   H     H_    0.626622 0.644941 0.125453 0.149083
H16   H     H_    0.343982 0.328448 0.245568 0.219251
N1    N     N_R   0.498930 0.498800 0.142780 -0.110724
N2    N     N_R   0.498900 0.498720 0.857170 -0.105817
O1    O     O_R   0.500000 0.316780 0.614690 -0.642816
O2    O     O_3   0.308227 0.875696 0.398952 -0.763242
O3    O     O_R   0.499990 0.316750 0.385360 -0.625029
O4    O     O_R   0.334450 0.500030 0.614670 -0.622053
O5    O     O_R   0.334440 0.500000 0.385330 -0.625977
O6    O     O_R   0.500010 0.683250 0.614640 -0.618600
O7    O     O_R   0.500000 0.683220 0.385310 -0.597632
O8    O     O_R   0.665560 0.500000 0.614670 -0.619697
O9    O     O_R   0.665550 0.499970 0.385330 -0.601827
O10   O     O_3   0.209511 0.160561 0.860248 -0.607419
Zn1   Zn    Zn3+2 0.500010 0.500020 0.653130 0.934060
Zn2   Zn    Zn3+2 0.499990 0.499980 0.346870 0.954762

loop_
_geom_bond_atom_site_label_1
_geom_bond_atom_site_label_2
_ccdc_geom_bond_type
C12   H12   S    
C11   H10   S    
C23   C24   A    
C9    N1    A    
C6    C7    A    
C3    C9    A    
O7    Zn2   S    
O1    Zn1   S    
C13   O6    A    
C14   C18   S    
C20   O10   S    
C4    C15   S    
C14   O9    A    
C7    H9    S    
C7    C8    A    
O5    Zn2   S    
C24   C25   A    
C10   H15   S    
C26   C27   A    
C5    C6    A    
C23   H14   S    
C19   H11   S    
C10   N1    A    
C21   H7    S    
C12   C19   A    
C14   O8    A    
C20   H4    S    
H8    O2    S    
C13   O7    A    
N2    Zn1   S    
C2    C24   A    
C1    C26   S    
C19   C25   A    
C8    N2    A    
C3    H16   S    
C22   H13   S    
C27   H1    S    
O6    Zn1   S    
C4    O5    A    
N1    Zn2   S    
C12   C22   A    
C21   H5    S    
C20   C21   S    
C17   C18   T    
C5    H2    S    
C10   C11   A    
O9    Zn2   S    
C6    O10   S    
C27   C28   A    
C2    C13   S    
C22   C23   A    
C28   O2    S    
C11   N2    A    
C2    C28   A    
C21   H6    S    
C25   C26   A    
O4    Zn1   S    
C1    O3    A    
C20   H3    S    
C1    O1    A    
O3    Zn2   S    
C15   C16   T    
C16   C17   S    
C4    O4    A    
C8    C9    A    
C3    C5    A    
O8    Zn1   S    
