data_mof_unit_3402.cif
_audit_creation_date              2012-12-10T17:57:28-0500
_audit_creation_method            fapswitch 2.2
_symmetry_space_group_name_H-M    P1
_symmetry_Int_Tables_number       1
_space_group_crystal_system       triclinic
_cell_length_a                    9.578401
_cell_length_b                    10.814105
_cell_length_c                    13.401128
_cell_angle_alpha                 91.303608
_cell_angle_beta                  72.862603
_cell_angle_gamma                 89.908282
_cell_volume                      1326.08899387

loop_
_atom_site_label
_atom_site_type_symbol
_atom_type_description
_atom_site_fract_x
_atom_site_fract_y
_atom_site_fract_z
_atom_type_partial_charge
C1    C     C_R   0.500399 0.737650 0.498349 0.784746
C2    C     C_R   0.445995 0.518465 0.975287 0.026094
C3    C     C_R   0.465737 0.468096 0.873417 -0.095116
C4    C     C_R   0.549688 0.488660 0.028429 0.008091
C5    C     C_R   0.671794 0.411077 0.978519 -0.010381
C6    C     C_R   0.684492 0.356540 0.880298 0.373114
C7    C     C_R   0.573620 0.375160 0.833670 0.382732
C8    C     C_R   0.532841 0.529454 0.131635 -0.215354
C9    C     C_R   0.750910 0.419031 0.134641 -0.206326
C10   C     C_R   0.374844 0.509711 0.814427 -0.066036
C11   C     C_R   0.602623 0.936530 0.532225 -0.259209
C12   C     C_R   0.421598 0.499004 0.699972 0.836954
C13   C     C_R   0.602525 0.064279 0.533249 -0.204646
C14   C     C_R   0.500984 0.128539 0.497192 -0.114966
C15   C     C_R   0.399871 0.064458 0.459082 -0.257893
C16   C     C_R   0.400864 0.935929 0.455787 0.503685
C17   C     C_R   0.500964 0.871615 0.495127 -0.115880
C18   C     C_R   0.899334 0.574166 0.569727 -0.018336
C19   C     C_R   0.047868 0.572426 0.568804 -0.113583
C20   C     C_R   0.103551 0.426489 0.430169 0.487294
C21   C     C_R   0.951733 0.421749 0.434132 0.472223
C22   C     C_R   0.500263 0.262353 0.499360 0.856979
C23   C     C_R   0.578585 0.499737 0.300174 0.787485
C24   C     C_R   0.775033 0.382550 0.030773 -0.126919
C25   C     C_R   0.625406 0.487095 0.186473 -0.048489
C26   C     C_R   0.250359 0.581418 0.862732 -0.200227
C27   C     C_R   0.222766 0.621484 0.965693 -0.137596
C28   C     C_R   0.321341 0.594526 0.020487 -0.141762
Cu1   Cu    Cu3+1 0.359340 0.499980 0.500000 0.988883
Cu2   Cu    Cu3+1 0.640660 0.500020 0.500000 0.985013
H1    H     H_    0.825321 0.387391 0.176036 0.179436
H2    H     H_    0.678754 0.112769 0.565400 0.189207
H3    H     H_    0.321297 0.113671 0.430458 0.187705
H4    H     H_    0.084525 0.630015 0.623122 0.204930
H5    H     H_    0.870146 0.325610 0.993729 0.176903
H6    H     H_    0.443523 0.588061 0.174431 0.123131
H7    H     H_    0.178395 0.612404 0.819136 0.160666
H8    H     H_    0.295608 0.634863 0.097923 0.107126
H9    H     H_    0.127829 0.678955 0.001818 0.146334
H10   H     H_    0.680289 0.888754 0.562591 0.174826
N1    N     N_R   0.147940 0.499970 0.499970 -0.234164
N2    N     N_R   0.852060 0.500060 0.499990 -0.255269
O1    O     O_R   0.381250 0.680340 0.500010 -0.532768
O2    O     O_R   0.618820 0.680370 0.500010 -0.627220
O3    O     O_R   0.323240 0.499950 0.650980 -0.607919
O4    O     O_R   0.560810 0.499980 0.650980 -0.576949
O5    O     O_R   0.381180 0.319630 0.499990 -0.556247
O6    O     O_R   0.618750 0.319660 0.499990 -0.531097
O7    O     O_R   0.439190 0.500020 0.349020 -0.543954
O8    O     O_R   0.676760 0.500050 0.349020 -0.546059
O9    O     O_3   0.299620 0.874370 0.418210 -0.563970
C29   C     C_3   0.359935 0.855436 0.309495 -0.309428
H11   H     H_    0.280496 0.803104 0.279569 0.181257
H12   H     H_    0.462432 0.799335 0.290495 0.142651
H13   H     H_    0.380206 0.944991 0.268516 0.156517
C30   C     C_2   0.799080 0.655648 0.650470 0.383058
H14   H     H_    0.692911 0.682259 0.647054 0.130738
O10   O     O_2   0.835495 0.696083 0.724882 -0.587379
O11   O     O_3   0.206548 0.352038 0.360347 -0.568579
C31   C     C_3   0.218403 0.385298 0.256773 -0.286617
H15   H     H_    0.324206 0.349466 0.205260 0.189360
H16   H     H_    0.215815 0.487324 0.247793 0.140776
H17   H     H_    0.132410 0.341424 0.228292 0.182066
O12   O     O_3   0.903153 0.340445 0.370611 -0.572684
C32   C     C_3   0.923198 0.217160 0.397002 -0.283271
H18   H     H_    0.845036 0.157723 0.371744 0.186989
H19   H     H_    0.902713 0.205569 0.482552 0.144315
H20   H     H_    0.034148 0.182342 0.354344 0.187881
O13   O     O_3   0.794319 0.270742 0.836889 -0.569601
C33   C     C_3   0.897574 0.324746 0.751674 -0.253988
H21   H     H_    0.941030 0.412564 0.775411 0.155414
H22   H     H_    0.850628 0.340867 0.686403 0.188088
H23   H     H_    0.991186 0.259796 0.722047 0.180343
O14   O     O_3   0.566589 0.295473 0.753029 -0.560848
C34   C     C_3   0.463355 0.203227 0.795409 -0.313984
H24   H     H_    0.352289 0.243338 0.831344 0.147608
H25   H     H_    0.497559 0.147995 0.853445 0.183201
H26   H     H_    0.455595 0.139018 0.731875 0.190895

loop_
_geom_bond_atom_site_label_1
_geom_bond_atom_site_label_2
_ccdc_geom_bond_type
C6    O13   S    
C22   O6    A    
C13   H2    S    
C16   O9    S    
C4    C8    A    
C20   N1    A    
C9    C25   A    
Cu1   O7    S    
C26   C27   A    
Cu1   O5    S    
C31   H17   S    
Cu2   O6    S    
C3    C7    A    
C18   N2    A    
C5    C6    A    
C23   O7    A    
C15   C16   A    
C30   H14   S    
C31   H16   S    
C18   C19   A    
C8    H6    S    
C21   O12   S    
C1    O1    A    
C27   H9    S    
C16   C17   A    
C32   H19   S    
C33   H21   S    
C29   H13   S    
C18   C30   S    
C10   C26   A    
C22   O5    A    
Cu2   O8    S    
O11   C31   S    
C13   C14   A    
Cu1   O1    S    
C8    C25   A    
Cu2   O2    S    
O13   C33   S    
C29   H12   S    
C7    O14   S    
C24   H5    S    
O14   C34   S    
O9    C29   S    
C12   O4    A    
C12   O3    A    
C23   O8    A    
Cu1   O3    S    
C31   H15   S    
C2    C4    A    
C34   H24   S    
Cu1   Cu2   S    
C1    O2    A    
C28   H8    S    
C32   H20   S    
C33   H23   S    
C26   H7    S    
C20   O11   S    
C34   H25   S    
C10   C12   S    
C29   H11   S    
C11   C17   A    
Cu1   N1    S    
Cu2   O4    S    
C4    C5    A    
C19   H4    S    
C2    C28   A    
C9    C24   A    
C6    C7    A    
C1    C17   S    
O12   C32   S    
C14   C22   S    
C2    C3    A    
C3    C10   A    
C11   C13   A    
C5    C24   A    
C30   O10   D    
C23   C25   S    
C11   H10   S    
C34   H26   S    
C9    H1    S    
C21   N2    A    
C20   C21   A    
C32   H18   S    
C27   C28   A    
C14   C15   A    
Cu2   N2    S    
C33   H22   S    
C15   H3    S    
C19   N1    A    
