data_mof_unit_2426.cif
_audit_creation_date              2012-10-26T21:02:35-0400
_audit_creation_method            fapswitch 2.2
_symmetry_space_group_name_H-M    P1
_symmetry_Int_Tables_number       1
_space_group_crystal_system       triclinic
_cell_length_a                    12.325025
_cell_length_b                    13.276149
_cell_length_c                    15.025482
_cell_angle_alpha                 77.313683
_cell_angle_beta                  101.337185
_cell_angle_gamma                 117.083758
_cell_volume                      2122.31092209

loop_
_atom_site_label
_atom_site_type_symbol
_atom_type_description
_atom_site_fract_x
_atom_site_fract_y
_atom_site_fract_z
_atom_type_partial_charge
C1    C     C_R   0.854111 0.287007 0.506083 0.530094
C2    C     C_R   0.926106 0.400221 0.818703 -0.095075
C3    C     C_R   0.000095 0.500237 0.766371 -0.005419
C4    C     C_R   0.000322 0.500744 0.670448 0.542431
C5    C     C_R   0.076275 0.598292 0.805631 -0.122942
C6    C     C_R   0.262486 0.035336 0.431764 0.012446
C7    C     C_R   0.228357 0.836834 0.480173 -0.023709
C8    C     C_R   0.816014 0.083767 0.526436 -0.128765
C9    C     C_R   0.742274 0.969472 0.515698 -0.024930
C10   C     C_R   0.616093 0.934557 0.484747 0.081758
C11   C     C_R   0.564540 0.014609 0.470245 0.011576
C12   C     C_R   0.078567 0.598935 0.085915 0.032762
C13   C     C_R   0.645248 0.131498 0.460408 -0.010069
C14   C     C_R   0.436137 0.983621 0.463014 0.032327
C15   C     C_R   0.389762 0.067788 0.428417 0.090508
C16   C     C_R   0.145575 0.713690 0.490410 0.541221
C17   C     C_R   0.473355 0.178922 0.391887 0.000124
C18   C     C_R   0.598923 0.208584 0.409098 -0.097818
C19   C     C_R   0.354118 0.871773 0.494959 -0.108506
C20   C     C_R   0.183480 0.919448 0.453865 -0.090618
C21   C     C_R   0.770479 0.166276 0.496803 -0.020844
C22   C     C_R   0.344297 0.328759 0.649812 -0.127857
C23   C     C_R   0.850535 0.298644 0.059506 -0.127648
C24   C     C_R   0.747879 0.633871 0.367496 0.203112
C25   C     C_R   0.638640 0.642304 0.331767 -0.138536
C26   C     C_R   0.536217 0.582184 0.378171 -0.111687
C27   C     C_R   0.541664 0.515516 0.463656 0.016576
C28   C     C_R   0.000462 0.500252 0.329344 0.543352
C29   C     C_R   0.651139 0.500194 0.494934 0.130052
C30   C     C_R   0.440252 0.461090 0.517219 -0.007769
C31   C     C_R   0.442062 0.379099 0.595165 0.004410
C32   C     C_R   0.543175 0.352096 0.618394 0.016493
C33   C     C_R   0.647205 0.416301 0.571633 -0.097902
C34   C     C_R   0.852539 0.295630 0.967645 0.060253
C35   C     C_R   0.338085 0.488104 0.497929 0.085460
C36   C     C_R   0.247298 0.359267 0.627280 0.035681
C37   C     C_R   0.078846 0.599785 0.179763 -0.035037
C38   C     C_R   0.000867 0.499585 0.232770 0.056433
C39   C     C_R   0.923769 0.398562 0.194158 -0.016520
C40   C     C_R   0.924597 0.397934 0.100457 0.001864
C41   C     C_R   0.001681 0.497857 0.046679 0.033299
C42   C     C_3   0.162216 0.707662 0.222385 -0.384384
C43   C     C_3   0.434953 0.265434 0.328577 -0.397971
C44   C     C_3   0.208163 0.119476 0.421453 -0.384379
C45   C     C_R   0.926726 0.396169 0.912887 -0.000716
C46   C     C_2   0.545032 0.823508 0.450498 0.542674
C47   C     C_3   0.801044 0.887742 0.534423 -0.353848
C48   C     C_2   0.542586 0.255070 0.690072 0.564712
C49   C     C_3   0.841575 0.290862 0.252313 -0.388254
C50   C     C_2   0.849299 0.698414 0.310303 0.617415
C51   C     C_2   0.776679 0.184624 0.933046 0.602826
C52   C     C_R   0.001826 0.497012 0.952861 0.037445
C53   C     C_R   0.077271 0.597635 0.898574 0.023709
C54   C     C_R   0.152610 0.696442 0.937601 -0.123209
C55   C     C_R   0.153701 0.697247 0.029920 -0.120927
Cu1   Cu    Cu3+1 0.098270 0.475420 0.521130 0.941044
Cu2   Cu    Cu3+1 0.901730 0.524580 0.478870 0.968390
H1    H     H_    0.386653 0.809836 0.532306 0.159369
H2    H     H_    0.791825 0.220478 0.099128 0.150726
H3    H     H_    0.868354 0.326920 0.784306 0.188825
H4    H     H_    0.134023 0.674979 0.763503 0.107947
H5    H     H_    0.210978 0.773699 0.896500 0.120091
H6    H     H_    0.214041 0.776362 0.056232 0.126061
H7    H     H_    0.086519 0.893916 0.452924 0.176527
H8    H     H_    0.155843 0.699749 0.296240 0.159967
H9    H     H_    0.259237 0.731089 0.215645 0.138500
H10   H     H_    0.138739 0.778998 0.186865 0.139436
H11   H     H_    0.512231 0.335474 0.292891 0.137824
H12   H     H_    0.911558 0.109519 0.553412 0.140991
H13   H     H_    0.363384 0.223834 0.273824 0.145119
H14   H     H_    0.403543 0.307207 0.367436 0.130919
H15   H     H_    0.265918 0.187100 0.464908 0.151801
H16   H     H_    0.196215 0.156207 0.348591 0.136337
H17   H     H_    0.115681 0.077872 0.445470 0.125600
H18   H     H_    0.419687 0.738946 0.352160 0.315724
H19   H     H_    0.901224 0.930989 0.555394 0.110748
H20   H     H_    0.759327 0.818056 0.590813 0.181784
H21   H     H_    0.788140 0.850624 0.471577 0.167517
H22   H     H_    0.451573 0.089367 0.743339 0.345487
H23   H     H_    0.659886 0.291303 0.376861 0.154712
H24   H     H_    0.744097 0.266113 0.224011 0.141815
H25   H     H_    0.866551 0.220141 0.253137 0.132937
H26   H     H_    0.848672 0.300144 0.324497 0.134007
H27   H     H_    0.911644 0.720188 0.189764 0.334790
H28   H     H_    0.615545 0.043385 0.931132 0.342963
H29   H     H_    0.172398 0.320080 0.669356 0.138635
H30   H     H_    0.343218 0.268467 0.711447 0.156704
H31   H     H_    0.331048 0.550898 0.440997 0.131329
H32   H     H_    0.452657 0.586805 0.344533 0.094106
H33   H     H_    0.632185 0.694919 0.266462 0.133550
H34   H     H_    0.721249 0.393485 0.595145 0.202620
N1    N     N_R   0.246280 0.438190 0.553160 -0.239643
N2    N     N_R   0.754320 0.561190 0.447410 -0.267413
O1    O     O_R   0.972510 0.318130 0.526570 -0.505778
O2    O     O_R   0.473490 0.819547 0.365498 -0.706102
O3    O     O_2   0.633165 0.266790 0.745254 -0.522479
O4    O     O_R   0.440140 0.148974 0.692226 -0.709819
O5    O     O_2   0.934826 0.786024 0.332141 -0.549363
O6    O     O_R   0.839476 0.666476 0.225327 -0.695378
O7    O     O_2   0.819074 0.149505 0.886239 -0.518505
O8    O     O_R   0.657992 0.117554 0.957954 -0.682199
O9    O     O_R   0.806530 0.359650 0.490890 -0.540641
O10   O     O_R   0.082980 0.479210 0.647590 -0.494606
O11   O     O_R   0.917000 0.520730 0.611900 -0.516592
O12   O     O_R   0.193470 0.640350 0.509110 -0.501492
O13   O     O_R   0.027490 0.681870 0.473430 -0.469952
O14   O     O_R   0.083000 0.479270 0.388100 -0.521680
O15   O     O_R   0.917020 0.520790 0.352410 -0.475251
O16   O     O_2   0.544465 0.735913 0.497841 -0.553687

loop_
_geom_bond_atom_site_label_1
_geom_bond_atom_site_label_2
_ccdc_geom_bond_type
C1    C21   S    
C27   C29   A    
H18   O2    S    
C53   C54   A    
C26   H32   S    
Cu1   O1    S    
C48   O4    S    
C34   C51   S    
C37   C38   A    
C13   C18   A    
C5    C53   A    
C47   H19   S    
C33   H34   S    
C38   C39   A    
C11   C14   A    
C2    H3    S    
C28   O14   A    
C23   C40   A    
C4    O10   A    
C29   C33   A    
C12   C37   A    
Cu1   Cu2   S    
C49   H24   S    
C37   C42   S    
C6    C15   A    
C46   O2    S    
C1    O1    A    
C55   H6    S    
C10   C46   S    
C42   H8    S    
C9    C10   A    
C41   C52   A    
C16   O13   A    
C35   N1    A    
C36   N1    A    
Cu2   O13   S    
C19   H1    S    
Cu2   N2    S    
C27   C30   A    
C32   C48   S    
C17   C18   A    
C2    C45   A    
C24   C50   S    
C50   O5    D    
C22   C31   A    
C5    H4    S    
C24   C25   A    
C39   C40   A    
C8    H12   S    
C8    C9    A    
C54   H5    S    
C45   C52   A    
C36   H29   S    
C25   C26   A    
C49   H25   S    
C20   H7    S    
C23   H2    S    
C17   C43   S    
Cu1   O14   S    
C12   C41   A    
Cu2   O9    S    
C35   H31   S    
C31   C32   A    
C28   C38   S    
C23   C34   A    
C8    C21   A    
C50   O6    S    
C13   C21   A    
C34   C45   A    
C22   H30   S    
C44   H17   S    
C16   O12   A    
C30   C35   A    
C7    C16   S    
C39   C49   S    
C9    C47   S    
C43   H13   S    
C7    C19   A    
C26   C27   A    
C42   H10   S    
C47   H20   S    
C3    C4    S    
H28   O8    S    
C52   C53   A    
C51   O7    D    
C15   C17   A    
Cu2   O11   S    
C54   C55   A    
C40   C41   A    
C43   H14   S    
C48   O3    D    
H27   O6    S    
C14   C19   A    
H22   O4    S    
C25   H33   S    
Cu1   O10   S    
C3    C5    A    
C51   O8    S    
C22   C36   A    
C43   H11   S    
C32   C33   A    
C49   H26   S    
C2    C3    A    
C24   N2    A    
C29   N2    A    
C11   C13   A    
C30   C31   A    
C6    C20   A    
C28   O15   A    
C4    O11   A    
C44   H15   S    
C44   H16   S    
Cu1   O12   S    
C12   C55   A    
C10   C11   A    
Cu1   N1    S    
Cu2   O15   S    
C18   H23   S    
C7    C20   A    
C46   O16   D    
C42   H9    S    
C14   C15   A    
C6    C44   S    
C47   H21   S    
C1    O9    A    
