data_mof_unit_1053.cif
_audit_creation_date              2012-12-10T20:45:36-0500
_audit_creation_method            fapswitch 2.2
_symmetry_space_group_name_H-M    P1
_symmetry_Int_Tables_number       1
_space_group_crystal_system       triclinic
_cell_length_a                    10.744548
_cell_length_b                    10.652263
_cell_length_c                    9.877724
_cell_angle_alpha                 88.829642
_cell_angle_beta                  90.794423
_cell_angle_gamma                 90.939358
_cell_volume                      1130.05129043

loop_
_atom_site_label
_atom_site_type_symbol
_atom_type_description
_atom_site_fract_x
_atom_site_fract_y
_atom_site_fract_z
_atom_type_partial_charge
C1    C     C_R   0.501370 0.260210 0.501087 0.891438
C2    C     C_R   0.252488 0.772487 0.076082 -0.048228
C3    C     C_R   0.934024 0.555126 0.389207 -0.222693
C4    C     C_R   0.873350 0.508985 0.504837 -0.093809
C5    C     C_R   0.941380 0.472792 0.621959 0.015071
C6    C     C_R   0.067963 0.465168 0.613612 -0.214220
C7    C     C_R   0.128341 0.509420 0.498006 -0.069125
C8    C     C_R   0.062322 0.562835 0.387712 0.002539
C9    C     C_R   0.881628 0.577135 0.831878 -0.163496
C10   C     C_R   0.842621 0.573864 0.965907 0.390394
C11   C     C_R   0.810966 0.458696 0.028370 -0.199218
C12   C     C_R   0.260408 0.503168 0.499021 0.891048
C13   C     C_R   0.818518 0.347343 0.956344 -0.189928
C14   C     C_R   0.858668 0.350501 0.822131 -0.140313
C15   C     C_R   0.889782 0.465795 0.759476 0.085146
C16   C     C_R   0.414489 0.059771 0.576639 -0.048460
C17   C     C_R   0.500532 0.128048 0.500135 -0.084220
C18   C     C_R   0.569786 0.067692 0.401977 -0.141224
C19   C     C_R   0.566452 0.937895 0.397755 -0.208542
C20   C     C_R   0.493080 0.870633 0.491162 -0.132027
C21   C     C_R   0.408890 0.932088 0.570197 0.013478
C22   C     C_3   0.368274 0.912404 0.713119 0.106263
C23   C     C_R   0.499570 0.739425 0.498231 0.900729
C24   C     C_3   0.376789 0.055467 0.722724 0.284793
C25   C     C_R   0.460090 0.396127 0.073352 0.174762
C26   C     C_R   0.541679 0.601337 0.070286 -0.118465
C27   C     C_R   0.543027 0.600844 0.926636 -0.109877
C28   C     C_R   0.456236 0.397980 0.930325 0.240711
C29   C     C_3   0.324291 0.351031 0.929789 -0.536769
C30   C     C_3   0.332811 0.340012 0.082594 0.199270
C31   C     C_R   0.740233 0.502816 0.501385 0.862864
C32   C     C_R   0.258738 0.812238 0.209851 -0.094270
C33   C     C_R   0.194522 0.745306 0.310758 -0.106552
C34   C     C_R   0.124188 0.637250 0.278545 0.148146
C35   C     C_R   0.116863 0.598963 0.143624 -0.137000
C36   C     C_R   0.180927 0.666461 0.042719 -0.093816
H1    H     H_    0.303544 0.823764 0.998683 0.175322
H2    H     H_    0.780554 0.455199 0.132275 0.178815
H3    H     H_    0.794531 0.258541 0.005078 0.160192
H4    H     H_    0.866466 0.263822 0.767705 0.134500
H5    H     H_    0.630133 0.120194 0.333522 0.161427
H6    H     H_    0.625987 0.890479 0.328060 0.179345
H7    H     H_    0.434561 0.859157 0.778521 0.130834
H8    H     H_    0.284237 0.098537 0.734597 0.144377
H9    H     H_    0.573921 0.683836 0.123108 0.191773
H10   H     H_    0.314089 0.894348 0.235572 0.192189
H11   H     H_    0.578170 0.682418 0.871610 0.164738
H12   H     H_    0.258424 0.424340 0.894398 0.156609
H13   H     H_    0.310649 0.260533 0.879293 0.261664
H14   H     H_    0.266457 0.399062 0.136417 0.131732
H15   H     H_    0.201049 0.776402 0.414327 0.164111
H16   H     H_    0.064370 0.515179 0.117390 0.137959
H17   H     H_    0.175913 0.635976 0.938932 0.167892
H18   H     H_    0.881420 0.592767 0.304034 0.209612
H19   H     H_    0.119838 0.430972 0.701398 0.158499
H20   H     H_    0.907546 0.666241 0.784452 0.187334
N1    N     N_R   0.499160 0.499140 0.142800 -0.146231
N2    N     N_R   0.499160 0.499180 0.857150 -0.116124
O1    O     O_R   0.500020 0.316790 0.614690 -0.609602
O2    O     O_R   0.500000 0.316760 0.385350 -0.585349
O3    O     O_R   0.316770 0.500030 0.614670 -0.612258
O4    O     O_R   0.316750 0.499990 0.385330 -0.623685
O5    O     O_R   0.500000 0.683240 0.614650 -0.627065
O6    O     O_R   0.499980 0.683210 0.385310 -0.626926
O7    O     O_R   0.683250 0.500010 0.614670 -0.611346
O8    O     O_R   0.683230 0.499970 0.385330 -0.627927
Zn1   Zn    Zn3+2 0.500010 0.500020 0.653130 0.970602
Zn2   Zn    Zn3+2 0.499990 0.499980 0.346870 0.964937
Cl1   Cl    Cl    0.212230 0.852271 0.717536 -0.673288
O9    O     O_3   0.464471 0.102197 0.820027 -0.589984
C37   C     C_3   0.589239 0.063210 0.806585 0.111366
H21   H     H_    0.646703 0.145757 0.774268 0.164956
H22   H     H_    0.603460 0.988398 0.732135 0.121425
C38   C     C_3   0.637227 0.016232 0.943835 -0.771577
H23   H     H_    0.583927 0.930831 0.976242 0.248802
H24   H     H_    0.737220 0.992710 0.937065 0.240312
H25   H     H_    0.626451 0.089792 0.020726 0.266018
Cl2   Cl    Cl    0.337121 0.181052 0.143214 -0.597065
Cl3   Cl    Cl    0.835217 0.714929 0.054175 -0.713310

loop_
_geom_bond_atom_site_label_1
_geom_bond_atom_site_label_2
_ccdc_geom_bond_type
C31   O8    A    
O8    Zn2   S    
C16   C21   A    
C35   C36   A    
C6    H19   S    
C24   O9    S    
C7    C8    A    
C29   H13   S    
C25   C28   A    
C26   C27   A    
C38   H24   S    
O6    Zn2   S    
C28   C29   S    
C18   C19   A    
C1    O1    A    
C5    C6    A    
C3    H18   S    
C27   H11   S    
C2    C32   A    
C34   C35   A    
C36   H17   S    
C26   H9    S    
O1    Zn1   S    
C19   C20   A    
C16   C17   A    
O7    Zn1   S    
C38   H25   S    
O9    C37   S    
C9    C10   A    
C22   Cl1   S    
C19   H6    S    
C23   O5    A    
C30   H14   S    
C16   C24   S    
C21   C22   S    
C25   N1    A    
C33   C34   A    
C7    C12   S    
O5    Zn1   S    
C13   H3    S    
C38   H23   S    
C29   H12   S    
C3    C8    A    
C18   H5    S    
C37   H22   S    
C11   H2    S    
C29   C30   S    
C12   O4    A    
O3    Zn1   S    
C22   H7    S    
C20   C23   S    
C17   C18   A    
C9    H20   S    
C8    C34   S    
C23   O6    A    
C24   H8    S    
C22   C24   S    
C1    O2    A    
N1    Zn2   S    
C3    C4    A    
C2    C36   A    
C25   C30   S    
C31   O7    A    
C32   H10   S    
C4    C5    A    
C27   N2    A    
C37   C38   S    
C10   Cl3   S    
C6    C7    A    
C28   N2    A    
C33   H15   S    
C1    C17   S    
O4    Zn2   S    
C32   C33   A    
C9    C15   A    
C37   H21   S    
C12   O3    A    
C11   C13   A    
C2    H1    S    
C26   N1    A    
C5    C15   S    
C4    C31   S    
C10   C11   A    
C14   H4    S    
C30   Cl2   S    
N2    Zn1   S    
C20   C21   A    
O2    Zn2   S    
C35   H16   S    
C14   C15   A    
C13   C14   A    
