data_mof_unit_3294.cif
_audit_creation_date              2012-12-10T20:27:55-0500
_audit_creation_method            fapswitch 2.2
_symmetry_space_group_name_H-M    P1
_symmetry_Int_Tables_number       1
_space_group_crystal_system       triclinic
_cell_length_a                    12.759063
_cell_length_b                    10.74234
_cell_length_c                    9.993558
_cell_angle_alpha                 89.180219
_cell_angle_beta                  96.549168
_cell_angle_gamma                 90.309859
_cell_volume                      1360.6514128

loop_
_atom_site_label
_atom_site_type_symbol
_atom_type_description
_atom_site_fract_x
_atom_site_fract_y
_atom_site_fract_z
_atom_type_partial_charge
C1    C     C_R   0.505151 0.260858 0.501448 0.875706
C2    C     C_R   0.021764 0.431430 0.512053 0.061082
C3    C     C_R   0.973313 0.545696 0.468717 0.021013
C4    C     C_R   0.869845 0.566419 0.487318 -0.180200
C5    C     C_R   0.856008 0.357826 0.583519 -0.086621
C6    C     C_R   0.962555 0.335244 0.567159 -0.025857
C7    C     C_R   0.525165 0.061788 0.622609 -0.067610
C8    C     C_R   0.524917 0.130444 0.504212 -0.047095
C9    C     C_R   0.541313 0.071191 0.384999 -0.160885
C10   C     C_R   0.532988 0.942865 0.376603 -0.082860
C11   C     C_R   0.517780 0.873067 0.495696 -0.202409
C12   C     C_R   0.298799 0.505640 0.473465 0.959703
C13   C     C_R   0.522688 0.934330 0.618457 0.069246
C14   C     C_3   0.447168 0.928130 0.722249 1.145507
C15   C     C_3   0.450660 0.068260 0.726632 -0.517760
C16   C     C_R   0.420354 0.444522 0.061010 0.057081
C17   C     C_R   0.584968 0.542637 0.082492 -0.047011
C18   C     C_R   0.584444 0.543521 0.939072 -0.010995
C19   C     C_R   0.418565 0.447178 0.919384 0.008651
C20   C     C_3   0.302294 0.480713 0.903498 -0.446655
C21   C     C_3   0.306292 0.471740 0.057401 1.040565
C22   C     C_R   0.504016 0.740017 0.498613 0.969288
C23   C     C_R   0.700719 0.493003 0.526370 0.852911
C24   C     C_R   0.811914 0.474078 0.541891 -0.091289
C25   C     C_R   0.186380 0.517202 0.456136 -0.144908
C26   C     C_R   0.028690 0.638800 0.407022 0.587095
C27   C     C_R   0.135974 0.625207 0.399505 -0.161831
C28   C     C_R   0.129462 0.419691 0.505360 -0.162375
H1    H     H_    0.831807 0.653548 0.454301 0.218329
H2    H     H_    0.374829 0.111414 0.685912 0.233019
H3    H     H_    0.488535 0.105872 0.823490 0.225659
H4    H     H_    0.171626 0.337293 0.543468 0.169949
H5    H     H_    0.548652 0.125060 0.293823 0.191159
N1    N     N_R   0.499290 0.499140 0.142710 -0.129928
N2    N     N_R   0.499290 0.499180 0.857070 -0.124170
O1    O     O_R   0.500010 0.316790 0.614690 -0.595423
O2    O     O_R   0.500000 0.316760 0.385350 -0.631114
O3    O     O_R   0.346360 0.499990 0.595720 -0.612756
O4    O     O_R   0.346350 0.499960 0.366370 -0.549723
O5    O     O_R   0.500000 0.683240 0.614650 -0.555507
O6    O     O_R   0.499990 0.683210 0.385310 -0.571220
O7    O     O_R   0.653650 0.500040 0.633630 -0.592186
O8    O     O_R   0.653640 0.500010 0.404280 -0.621685
Zn1   Zn    Zn3+2 0.500010 0.500020 0.653130 1.061723
Zn2   Zn    Zn3+2 0.499990 0.499980 0.346870 1.077830
F1    F     F_    0.489898 0.871928 0.841042 -0.633488
C29   C     C_2   0.679395 0.591387 0.163738 0.962785
O9    O     O_2   0.674050 0.685132 0.229914 -0.589778
O10   O     O_R   0.776064 0.531511 0.160863 -0.739484
H6    H     H_    0.837050 0.579221 0.209883 0.371952
C30   C     C_2   0.673590 0.601170 0.878973 0.999318
O11   O     O_2   0.758014 0.546840 0.885140 -0.523751
O12   O     O_R   0.662095 0.718722 0.818019 -0.744517
H7    H     H_    0.728541 0.748260 0.780328 0.350522
C31   C     C_2   0.278786 0.611852 0.849536 1.053382
O13   O     O_2   0.209275 0.630625 0.756724 -0.571128
O14   O     O_R   0.333309 0.712523 0.911740 -0.659209
H8    H     H_    0.299147 0.795140 0.883800 0.410119
C32   C     C_2   0.231758 0.381327 0.835547 1.009563
O15   O     O_2   0.136047 0.389293 0.834165 -0.533449
O16   O     O_R   0.275677 0.277956 0.780504 -0.810891
H9    H     H_    0.220573 0.214228 0.746400 0.346856
F2    F     F_    0.286639 0.581981 0.119978 -0.609996
F3    F     F_    0.252112 0.371768 0.106205 -0.622397
C33   C     C_2   0.789061 0.258400 0.635019 0.940878
O17   O     O_2   0.782482 0.156663 0.581257 -0.591628
O18   O     O_R   0.734988 0.280895 0.746181 -0.718424
H10   H     H_    0.693459 0.205760 0.773229 0.353334
F4    F     F_    0.979526 0.745879 0.361003 -0.618435
C34   C     C_2   0.010139 0.211630 0.605010 0.942783
O19   O     O_2   0.002041 0.166069 0.716243 -0.531462
O20   O     O_R   0.062478 0.146650 0.512324 -0.758489
H11   H     H_    0.091403 0.063929 0.549717 0.377141
C35   C     C_2   0.193060 0.729133 0.341459 1.116737
O21   O     O_2   0.159427 0.773632 0.231668 -0.474558
O22   O     O_R   0.281175 0.781242 0.415208 -0.778525
H12   H     H_    0.307790 0.857700 0.368820 0.355877
C36   C     C_2   0.529627 0.893545 0.238456 1.028643
O23   O     O_2   0.453191 0.834429 0.188440 -0.528064
O24   O     O_R   0.610049 0.926647 0.160553 -0.732062
H13   H     H_    0.599487 0.889738 0.067284 0.399612
F5    F     F_    0.349085 0.881845 0.672889 -0.655215

loop_
_geom_bond_atom_site_label_1
_geom_bond_atom_site_label_2
_ccdc_geom_bond_type
C31   O13   D    
C16   C21   S    
C1    C8    S    
C19   C20   S    
C14   F1    S    
C10   C36   S    
C7    C8    A    
C29   O10   S    
O12   H7    S    
C25   C28   A    
C26   C27   A    
C23   O7    A    
C35   O22   S    
C5    C6    A    
C4    C24   A    
C36   O24   S    
C22   O6    A    
C23   O8    A    
C21   F3    S    
C16   N1    A    
C8    C9    A    
C33   O18   S    
C23   C24   S    
C34   O19   D    
C27   C35   S    
C18   N2    A    
C4    H1    S    
C1    O2    A    
O4    Zn2   S    
C7    C15   S    
C32   O15   D    
C13   C14   S    
C9    H5    S    
C2    C6    A    
O7    Zn1   S    
C20   C31   S    
C18   C30   S    
C32   O16   S    
C35   O21   D    
O18   H10   S    
C28   H4    S    
O22   H12   S    
C5    C33   S    
C36   O23   D    
O20   H11   S    
C30   O11   D    
C30   O12   S    
O3    Zn1   S    
C29   O9    D    
O5    Zn1   S    
C22   O5    A    
C17   C18   A    
N1    Zn2   S    
C20   C32   S    
N2    Zn1   S    
O8    Zn2   S    
C33   O17   D    
C31   O14   S    
O1    Zn1   S    
C17   N1    A    
C14   F5    S    
O2    Zn2   S    
C3    C4    A    
C15   H2    S    
C9    C10   A    
C6    C34   S    
C3    C26   A    
C17   C29   S    
O24   H13   S    
C34   O20   S    
C15   H3    S    
C25   C27   A    
C11   C22   S    
C12   C25   S    
C12   O4    A    
C2    C3    A    
C19   N2    A    
C11   C13   A    
O14   H8    S    
C5    C24   A    
C16   C19   A    
C12   O3    A    
O16   H9    S    
C21   F2    S    
C10   C11   A    
C7    C13   A    
C20   C21   S    
O10   H6    S    
C26   F4    S    
O6    Zn2   S    
C14   C15   S    
C2    C28   A    
C1    O1    A    
