data_mof_unit_4915.cif
_audit_creation_date              2013-03-05T16:48:30-0500
_audit_creation_method            fapswitch 2.2
_symmetry_space_group_name_H-M    P1
_symmetry_Int_Tables_number       1
_space_group_crystal_system       triclinic
_cell_length_a                    10.833381
_cell_length_b                    14.83119
_cell_length_c                    14.878189
_cell_angle_alpha                 64.431082
_cell_angle_beta                  106.853902
_cell_angle_gamma                 103.520367
_cell_volume                      2047.36290935

loop_
_atom_site_label
_atom_site_type_symbol
_atom_site_description
_atom_site_fract_x
_atom_site_fract_y
_atom_site_fract_z
_atom_type_partial_charge
O1    O     O_R   0.455540 0.022090 0.338120 -0.558548
O2    O     O_R   0.544460 0.977910 0.661880 -0.560697
O3    O     O_R   0.512510 0.160150 0.379180 -0.495180
O4    O     O_R   0.487490 0.839850 0.620820 -0.566307
C1    C     C_R   0.482999 0.119385 0.312579 0.846186
C2    C     C_R   0.512712 0.880666 0.687056 0.747560
O5    O     O_R   0.291160 0.930970 0.479480 -0.548876
O6    O     O_R   0.708840 0.069030 0.520520 -0.520738
O7    O     O_R   0.348130 0.069020 0.520540 -0.554633
O8    O     O_R   0.651870 0.930980 0.479460 -0.556549
C3    C     C_R   0.262706 0.997349 0.502909 0.871876
C4    C     C_R   0.736729 0.001919 0.497209 0.840206
Cu1   Cu    Cu3+1 0.466270 0.918260 0.475690 1.029306
Cu2   Cu    Cu3+1 0.533730 0.081740 0.524310 1.076563
H1    H     H_    0.473783 0.158434 0.832116 0.145045
H2    H     H_    0.544461 0.952743 0.095178 0.147325
C5    C     C_R   0.360740 0.025332 0.813033 -0.193467
C6    C     C_R   0.707586 0.043607 0.150911 -0.215057
H3    H     H_    0.409951 0.976314 0.886864 0.167811
H4    H     H_    0.702719 0.104189 0.076196 0.171074
C7    C     C_R   0.260852 0.985217 0.750208 0.326470
C8    C     C_R   0.803382 0.051705 0.235486 0.345372
C9    C     C_R   0.201243 0.052952 0.652770 0.076138
C10   C     C_R   0.803448 0.971210 0.333039 0.048399
C11   C     C_R   0.237469 0.157276 0.624798 -0.086276
C12   C     C_R   0.715581 0.883118 0.340077 -0.137784
H5    H     H_    0.190419 0.209648 0.552116 0.163844
H6    H     H_    0.718410 0.819072 0.412180 0.160600
C13   C     C_R   0.334712 0.194935 0.689277 -0.173818
C14   C     C_R   0.622290 0.876900 0.255169 -0.138845
H7    H     H_    0.361851 0.275412 0.666648 0.145579
H8    H     H_    0.553788 0.809319 0.262477 0.136569
C15   C     C_R   0.397490 0.129051 0.782561 -0.199288
C16   C     C_R   0.617276 0.957507 0.161009 -0.187609
C17   C     C_R   0.969087 0.015968 0.577906 0.467652
C18   C     C_R   0.027199 0.958900 0.439513 0.499613
C19   C     C_R   0.870473 0.999846 0.498777 -0.237975
C20   C     C_R   0.128365 0.991751 0.507497 -0.208823
C21   C     C_R   0.900054 0.974335 0.426830 -0.097373
C22   C     C_R   0.098955 0.019699 0.578001 -0.084296
C23   C     C_R   0.476950 0.187468 0.204988 -0.131265
C24   C     C_R   0.520756 0.813856 0.795324 -0.084194
C25   C     C_R   0.384951 0.223755 0.026921 -0.200649
C26   C     C_R   0.639758 0.783728 0.968531 -0.193584
C27   C     C_R   0.407209 0.155026 0.127310 -0.246991
C28   C     C_R   0.603783 0.849265 0.868117 -0.270216
C29   C     C_R   0.537656 0.287819 0.180405 0.462862
C30   C     C_R   0.461145 0.711837 0.827484 0.469176
C31   C     C_R   0.500673 0.362107 0.080792 -0.002487
C32   C     C_R   0.519378 0.642674 0.923474 0.034178
C33   C     C_R   0.425956 0.326716 0.003619 0.098073
C34   C     C_R   0.601617 0.680442 0.995945 0.121136
C35   C     C_R   0.533194 0.469077 0.054257 0.065570
C36   C     C_R   0.490655 0.536390 0.951380 0.061660
C37   C     C_R   0.424658 0.496292 0.877526 -0.114543
C38   C     C_R   0.601957 0.512467 0.125943 -0.123226
C39   C     C_R   0.392237 0.393876 0.903180 -0.205697
C40   C     C_R   0.639970 0.615191 0.096379 -0.241515
H9    H     H_    0.339045 0.367044 0.843624 0.150149
H10   H     H_    0.696808 0.644107 0.153658 0.152790
H11   H     H_    0.642655 0.927815 0.847080 0.182764
H12   H     H_    0.368479 0.076878 0.144286 0.185537
H13   H     H_    0.329964 0.196903 0.967757 0.151629
H14   H     H_    0.702217 0.813352 0.023731 0.146105
H15   H     H_    0.397846 0.543312 0.798146 0.196987
H16   H     H_    0.627841 0.471539 0.206465 0.246587
N1    N     N_R   0.584450 0.204570 0.560790 -0.264040
N2    N     N_R   0.415550 0.795430 0.439210 -0.272064
C41   C     C_R   0.737780 0.295279 0.653989 -0.366762
C42   C     C_R   0.265147 0.709227 0.340457 -0.397088
C43   C     C_R   0.688636 0.204691 0.638900 0.641730
C44   C     C_R   0.313423 0.797892 0.359247 0.601915
C45   C     C_R   0.517317 0.287873 0.504922 0.414107
C46   C     C_R   0.483233 0.712527 0.493125 0.377065
C47   C     C_R   0.550664 0.373441 0.532164 -0.160917
C48   C     C_R   0.451159 0.629262 0.462558 -0.153140
C49   C     C_R   0.670904 0.379710 0.600008 -0.038392
C50   C     C_R   0.331726 0.624391 0.393386 -0.033104
C51   C     C_R   0.474147 0.455918 0.489487 0.024506
C52   C     C_R   0.528097 0.547504 0.503485 0.042077
C53   C     C_R   0.658960 0.555875 0.554331 -0.208867
C54   C     C_R   0.343715 0.448612 0.437088 -0.224931
C55   C     C_R   0.726045 0.471653 0.609849 0.512413
C56   C     C_R   0.277266 0.533355 0.381397 0.514801
H17   H     H_    0.828654 0.300807 0.707081 0.202106
H18   H     H_    0.175247 0.705425 0.285836 0.199741
H19   H     H_    0.711969 0.627930 0.550888 0.179678
H20   H     H_    0.290076 0.377131 0.439746 0.184650
O9    O     O_3   0.852732 0.482052 0.663834 -0.601469
C57   C     C_3   0.852675 0.502342 0.748158 -0.260273
H21   H     H_    0.784490 0.445706 0.795121 0.166628
H22   H     H_    0.829245 0.579741 0.723476 0.211289
H23   H     H_    0.951750 0.497870 0.797585 0.203846
O10   O     O_3   0.151217 0.524059 0.325879 -0.601384
C58   C     C_3   0.152249 0.502069 0.242817 -0.243373
H24   H     H_    0.172612 0.423592 0.268776 0.220124
H25   H     H_    0.223119 0.556564 0.197191 0.174420
H26   H     H_    0.054309 0.508486 0.191640 0.189444
N3    N     N_R   0.566065 0.699919 0.591689 0.120573
O11   O     O_R   0.541449 0.620218 0.670936 -0.449348
O12   O     O_R   0.678550 0.753987 0.600491 -0.409407
N4    N     N_R   0.434860 0.298737 0.406784 0.139358
O13   O     O_R   0.321136 0.246101 0.398660 -0.368724
O14   O     O_R   0.462758 0.375202 0.326189 -0.374858
O15   O     O_3   0.252082 0.884669 0.307753 -0.505263
C59   C     C_3   0.191328 0.900172 0.205325 -0.293472
H27   H     H_    0.168248 0.978823 0.164654 0.205853
H28   H     H_    0.096760 0.851508 0.200529 0.153792
H29   H     H_    0.255877 0.889514 0.165393 0.136458
O16   O     O_3   0.750499 0.118186 0.692913 -0.519860
C60   C     C_3   0.818865 0.109451 0.792469 -0.323016
H30   H     H_    0.839751 0.030796 0.838508 0.171316
H31   H     H_    0.761009 0.127065 0.832425 0.139161
H32   H     H_    0.914825 0.156805 0.790305 0.186871
N5    N     N_R   0.220222 0.877823 0.788488 0.104177
O17   O     O_R   0.127521 0.836653 0.734786 -0.413752
O18   O     O_R   0.270171 0.820599 0.881497 -0.348947
N6    N     N_R   0.899790 0.139931 0.219216 0.104505
O19   O     O_R   0.973701 0.162718 0.294556 -0.384535
O20   O     O_R   0.911947 0.200609 0.126955 -0.380678
O21   O     O_3   0.939209 0.028523 0.655850 -0.553195
C61   C     C_3   0.897783 0.933288 0.727263 -0.168406
H33   H     H_    0.891519 0.867579 0.707464 0.179274
H34   H     H_    0.799516 0.934007 0.734959 0.184278
H35   H     H_    0.965029 0.920057 0.802677 0.174162
O22   O     O_3   0.053025 0.921509 0.377137 -0.527625
C62   C     C_3   0.028927 0.815046 0.421318 -0.198492
H36   H     H_    0.935491 0.786511 0.447196 0.119694
H37   H     H_    0.109499 0.783568 0.486726 0.154689
H38   H     H_    0.023338 0.785152 0.363434 0.184303
O23   O     O_3   0.326761 0.688122 0.799590 -0.545267
C63   C     C_3   0.278742 0.710082 0.694874 -0.196106
H39   H     H_    0.338261 0.685795 0.662099 0.169455
H40   H     H_    0.265825 0.790617 0.652857 0.183847
H41   H     H_    0.180583 0.667219 0.685050 0.182792
O24   O     O_3   0.631994 0.311264 0.254964 -0.589823
C64   C     C_3   0.750252 0.282972 0.260868 -0.229217
H42   H     H_    0.777352 0.316524 0.185187 0.181166
H43   H     H_    0.745411 0.199629 0.293659 0.154237
H44   H     H_    0.828269 0.311321 0.313117 0.213402

loop_
_geom_bond_atom_site_label_1
_geom_bond_atom_site_label_2
_geom_bond_distance
_ccdc_geom_bond_type
C14   H8    1.082628 S    
O22   C62   1.415714 S    
C29   O24   1.380330 S    
C42   C50   1.401153 A    
N2    C46   1.386368 A    
C41   C49   1.398804 A    
C60   H30   1.106814 S    
C7    N5    1.445533 S    
C58   H26   1.109403 S    
C25   H13   1.084394 S    
C29   C31   1.422502 A    
C35   C36   1.427904 A    
C26   H14   1.084251 S    
O5    C3    1.298524 A    
C64   H43   1.110250 S    
C32   C36   1.426402 A    
C46   C48   1.430056 A    
O1    C1    1.306394 A    
C17   C19   1.406679 A    
C48   C50   1.409532 A    
C31   C35   1.440694 A    
C39   H9    1.084730 S    
C59   H27   1.108487 S    
C49   C55   1.406593 A    
C40   H10   1.084916 S    
C9    C22   1.487247 S    
C43   O16   1.393106 S    
C13   C15   1.391531 A    
C27   H12   1.079150 S    
O4    Cu1   1.933214 S    
C10   C21   1.493660 S    
C24   C28   1.401061 A    
C4    C19   1.449622 S    
C41   C43   1.412611 A    
N6    O19   1.300707 A    
C59   H29   1.113834 S    
H2    C16   1.082686 S    
O16   C60   1.415072 S    
C58   H24   1.111357 S    
C63   H39   1.107166 S    
N5    O18   1.301842 A    
C32   C34   1.414581 A    
Cu2   N1    2.031663 S    
C30   O23   1.397005 S    
N1    C45   1.389030 A    
N1    C43   1.365562 A    
C54   H20   1.073419 S    
O6    C4    1.304463 A    
C26   C34   1.395040 A    
C30   C32   1.416130 A    
C6    C8    1.410588 A    
Cu1   Cu2   2.704618 S    
C45   C47   1.431807 A    
O2    C2    1.309626 A    
C5    C15   1.395221 A    
C53   C55   1.398748 A    
C26   C28   1.383709 A    
C6    C16   1.394945 A    
C11   C13   1.394069 A    
C55   O9    1.386098 S    
C64   H44   1.109232 S    
C14   C16   1.391159 A    
C28   H11   1.079259 S    
C17   O21   1.384375 S    
O4    C2    1.301424 A    
C52   C53   1.405144 A    
C56   O10   1.386435 S    
C31   C33   1.425382 A    
C5    C7    1.411084 A    
C3    C20   1.458027 S    
O7    Cu2   1.961613 S    
C62   H37   1.110265 S    
C25   C27   1.385610 A    
C57   H22   1.111451 S    
N3    O11   1.300171 A    
N2    C44   1.363436 A    
C23   C29   1.411850 A    
O10   C58   1.411158 S    
C60   H31   1.114083 S    
C37   C39   1.379887 A    
C24   C30   1.425739 A    
C34   C40   1.386288 A    
N4    O14   1.300527 A    
C47   C49   1.409347 A    
O21   C61   1.417749 S    
C53   H19   1.075774 S    
O3    Cu2   1.933214 S    
O8    C4    1.291742 A    
C33   C39   1.388316 A    
C63   H40   1.104502 S    
C45   N4    1.436589 S    
N3    O12   1.298594 A    
C12   C14   1.393723 A    
C54   C56   1.400951 A    
O7    C3    1.301955 A    
C8    C10   1.426864 A    
O1    Cu1   1.949170 S    
C61   H34   1.106163 S    
C62   H36   1.112203 S    
C42   H18   1.080301 S    
C41   H17   1.080333 S    
C57   H23   1.109367 S    
C64   H42   1.114179 S    
C35   C38   1.419228 A    
C8    N6    1.447674 S    
C1    C23   1.470105 S    
C36   C37   1.407820 A    
O6    Cu2   1.968721 S    
C37   H15   1.072551 S    
C18   C21   1.394530 A    
C18   O22   1.383613 S    
C48   C52   1.441105 A    
C10   C12   1.407912 A    
O24   C64   1.406903 S    
O3    C1    1.301028 A    
O8    Cu1   1.961613 S    
C51   C54   1.406661 A    
C58   H25   1.114444 S    
C46   N3    1.438552 S    
C11   H5    1.083042 S    
O15   C59   1.412500 S    
C12   H6    1.081191 S    
C61   H35   1.109486 S    
C7    C9    1.425211 A    
C17   C22   1.394631 A    
C61   H33   1.116417 S    
C62   H38   1.108476 S    
C19   C21   1.413125 A    
C20   C22   1.415821 A    
C25   C33   1.401613 A    
C57   H21   1.114434 S    
C59   H28   1.109915 S    
C63   H41   1.109189 S    
C38   H16   1.067432 S    
C18   C20   1.412271 A    
C5    H3    1.082446 S    
C38   C40   1.384693 A    
C60   H32   1.110627 S    
C6    H4    1.082493 S    
C9    C11   1.405751 A    
N4    O13   1.298954 A    
O2    Cu2   1.949171 S    
N6    O20   1.301745 A    
C51   C52   1.425629 A    
C50   C56   1.406147 A    
O5    Cu1   1.968720 S    
C44   O15   1.392299 S    
C13   H7    1.082062 S    
C2    C24   1.471540 S    
C23   C27   1.393452 A    
C42   C44   1.411332 A    
N5    O17   1.299565 A    
O9    C57   1.411004 S    
C47   C51   1.443969 A    
H1    C15   1.082686 S    
O23   C63   1.405440 S    
Cu1   N2    2.031663 S    
