data_mof_unit_840.cif
_audit_creation_date              2012-12-11T17:14:58-0500
_audit_creation_method            fapswitch 2.2
_symmetry_space_group_name_H-M    P1
_symmetry_Int_Tables_number       1
_space_group_crystal_system       triclinic
_cell_length_a                    7.21984
_cell_length_b                    12.141602
_cell_length_c                    21.403179
_cell_angle_alpha                 90.000912
_cell_angle_beta                  90.114028
_cell_angle_gamma                 89.999456
_cell_volume                      1876.20802553

loop_
_atom_site_label
_atom_site_type_symbol
_atom_type_description
_atom_site_fract_x
_atom_site_fract_y
_atom_site_fract_z
_atom_type_partial_charge
O1    O     O_R   0.354460 0.152320 0.595720 -0.540108
O2    O     O_R   0.645540 0.847680 0.404280 -0.540108
O3    O     O_R   0.145540 0.652320 0.404280 -0.540110
O4    O     O_R   0.854460 0.347680 0.595720 -0.540110
O5    O     O_R   0.683670 0.140090 0.727290 -0.520373
O6    O     O_R   0.316330 0.859910 0.272710 -0.520373
O7    O     O_R   0.816330 0.640090 0.272710 -0.520338
O8    O     O_R   0.183670 0.359910 0.727290 -0.520344
O9    O     O_R   0.854010 0.349340 0.727750 -0.521164
O10   O     O_R   0.145990 0.650660 0.272250 -0.521163
O11   O     O_R   0.645990 0.849340 0.272250 -0.521187
O12   O     O_R   0.354010 0.150660 0.727750 -0.521182
C1    C     C_R   0.515860 0.113305 0.747489 0.779846
C2    C     C_R   0.484140 0.886695 0.252511 0.779850
C3    C     C_R   0.984144 0.613299 0.252512 0.779795
C4    C     C_R   0.015854 0.386700 0.747488 0.779801
O13   O     O_R   0.684170 0.139420 0.596190 -0.542793
O14   O     O_R   0.315830 0.860580 0.403810 -0.542793
O15   O     O_R   0.815830 0.639420 0.403810 -0.542792
O16   O     O_R   0.184170 0.360580 0.596190 -0.542792
C5    C     C_R   0.515415 0.113083 0.574424 0.686358
C6    C     C_R   0.484585 0.886917 0.425576 0.686357
C7    C     C_R   0.984586 0.613082 0.425576 0.686351
C8    C     C_R   0.015414 0.386917 0.574424 0.686351
O17   O     O_3   0.520730 0.319480 0.661730 -0.377716
O18   O     O_3   0.479270 0.680520 0.338270 -0.377712
O19   O     O_3   0.979270 0.819480 0.338270 -0.377739
O20   O     O_3   0.020730 0.180520 0.661730 -0.377736
V1    V     V_3+5 0.795560 0.238090 0.661730 1.493141
V2    V     V_3+5 0.204440 0.761910 0.338270 1.493141
V3    V     V_3+5 0.704440 0.738090 0.338270 1.493164
V4    V     V_3+5 0.295560 0.261910 0.661730 1.493157
C9    C     C_R   0.005506 0.464450 0.799454 -0.068516
C10   C     C_R   0.994484 0.535538 0.200551 -0.068512
C11   C     C_R   0.494446 0.964436 0.200545 -0.068515
C12   C     C_R   0.505549 0.035566 0.799455 -0.068506
C13   C     C_R   0.904014 0.640688 0.838665 -0.155130
C14   C     C_R   0.095964 0.359290 0.161347 -0.155130
C15   C     C_R   0.595485 0.140778 0.161357 -0.155196
C16   C     C_R   0.404498 0.859229 0.838645 -0.155195
C17   C     C_R   0.922673 0.566970 0.789469 -0.223066
C18   C     C_R   0.077325 0.433021 0.210538 -0.223042
C19   C     C_R   0.576992 0.067032 0.210546 -0.223210
C20   C     C_R   0.422995 0.932973 0.789456 -0.223203
C21   C     C_R   0.062182 0.432988 0.859802 0.219991
C22   C     C_R   0.937769 0.566979 0.140204 0.219950
C23   C     C_R   0.437876 0.932936 0.140192 0.220009
C24   C     C_R   0.562116 0.067069 0.859808 0.220021
C25   C     C_R   0.007931 0.498352 0.911856 0.040222
C26   C     C_R   0.992016 0.501609 0.088152 0.040230
C27   C     C_R   0.491995 0.998357 0.088148 0.040133
C28   C     C_R   0.507996 0.001650 0.911853 0.040144
C29   C     C_R   0.946923 0.607493 0.899618 0.093181
C30   C     C_R   0.053033 0.392473 0.100394 0.093185
C31   C     C_R   0.552713 0.107550 0.100398 0.093132
C32   C     C_R   0.447275 0.892456 0.899604 0.093131
C33   C     C_R   0.012794 0.461355 0.975250 0.065908
C34   C     C_R   0.987146 0.538602 0.024759 0.065905
C35   C     C_R   0.487253 0.961367 0.024752 0.065885
C36   C     C_R   0.512738 0.038640 0.975249 0.065893
C37   C     C_R   0.968704 0.650791 0.009157 -0.116466
C38   C     C_R   0.031234 0.349165 0.990855 -0.116472
C39   C     C_R   0.530892 0.150843 0.990859 -0.116577
C40   C     C_R   0.469093 0.849165 0.009142 -0.116583
C41   C     C_R   0.935583 0.683540 0.948124 -0.194563
C42   C     C_R   0.064362 0.316420 0.051889 -0.194573
C43   C     C_R   0.563889 0.183614 0.051897 -0.194591
C44   C     C_R   0.436097 0.816394 0.948105 -0.194592
H1    H     H_    0.906442 0.769559 0.938634 0.150083
H2    H     H_    0.093501 0.230402 0.061382 0.150089
H3    H     H_    0.592801 0.269657 0.061394 0.150138
H4    H     H_    0.407181 0.730351 0.938608 0.150133
H5    H     H_    0.120733 0.408573 0.257007 0.117036
H6    H     H_    0.879284 0.591429 0.743001 0.117036
H7    H     H_    0.379727 0.908476 0.742981 0.117027
H8    H     H_    0.620255 0.091529 0.257022 0.117028
H9    H     H_    0.851252 0.722683 0.829365 0.134255
H10   H     H_    0.148733 0.277298 0.170651 0.134257
H11   H     H_    0.648008 0.222822 0.170668 0.134285
H12   H     H_    0.351968 0.777186 0.829335 0.134279
H13   H     H_    0.980922 0.715090 0.043465 0.212510
H14   H     H_    0.019010 0.284863 0.956550 0.212528
H15   H     H_    0.518543 0.215132 0.956554 0.212613
H16   H     H_    0.481436 0.784875 0.043448 0.212617
C45   C     C_1   0.994977 0.533090 0.478100 -0.174100
C46   C     C_1   0.005022 0.466910 0.521900 -0.174100
C47   C     C_1   0.505023 0.033090 0.521900 -0.174104
C48   C     C_1   0.494977 0.966909 0.478100 -0.174105
Br1   Br    Br    0.750630 0.680976 0.134086 -0.558418
Br2   Br    Br    0.249256 0.318952 0.865919 -0.558415
Br3   Br    Br    0.748961 0.181237 0.865946 -0.558318
Br4   Br    Br    0.251016 0.818775 0.134055 -0.558316

loop_
_geom_bond_atom_site_label_1
_geom_bond_atom_site_label_2
_ccdc_geom_bond_type
C47   C48   T    
C5    C47   S    
O1    C5    A    
O3    V2    S    
C9    C21   A    
C23   Br4   S    
O3    C7    A    
C10   C18   A    
C11   C23   A    
C25   C33   A    
C33   C38   A    
C22   Br1   S    
C45   C46   T    
C35   C40   A    
C26   C30   A    
C36   C39   A    
C40   C44   A    
O20   V1    S    
O9    C4    A    
C14   C18   A    
O10   C3    A    
O4    C8    A    
O11   C2    A    
C25   C29   A    
C43   H3    S    
O13   V1    S    
C40   H16   S    
C28   C36   A    
C17   H6    S    
C15   C31   A    
O16   C8    A    
C16   C32   A    
C24   Br3   S    
O2    C6    A    
C16   H12   S    
C10   C22   A    
C6    C48   S    
C11   C19   A    
C3    C10   S    
O5    C1    A    
O4    V1    S    
O9    V1    S    
C13   C29   A    
C34   C37   A    
O7    C3    A    
C38   H14   S    
O15   V3    S    
C35   C36   A    
O8    C4    A    
O12   V4    S    
O19   V2    S    
O5    V1    S    
C39   C43   A    
O7    V3    S    
C38   C42   A    
O8    V4    S    
C1    C12   S    
C2    C11   S    
C23   C27   A    
C14   H10   S    
C32   C44   A    
C13   H9    S    
O1    V4    S    
O13   C5    A    
C39   H15   S    
O2    V3    S    
C26   C34   A    
C20   H7    S    
O15   C7    A    
C4    C9    S    
O6    C2    A    
O10   V2    S    
C31   C43   A    
C14   C30   A    
C21   C25   A    
C44   H4    S    
C21   Br2   S    
O14   V2    S    
O6    V2    S    
C16   C20   A    
C12   C20   A    
C27   C35   A    
C29   C41   A    
O16   V4    S    
C19   H8    S    
C18   H5    S    
O14   C6    A    
O18   V3    S    
C15   C19   A    
C30   C42   A    
C22   C26   A    
C9    C17   A    
C37   H13   S    
C33   C34   A    
C42   H2    S    
O17   V4    S    
C41   H1    S    
C12   C24   A    
C27   C31   A    
C13   C17   A    
O11   V3    S    
C37   C41   A    
C24   C28   A    
O12   C1    A    
C7    C45   S    
C8    C46   S    
C28   C32   A    
C15   H11   S    
