data_mof_unit_791.cif
_audit_creation_date              2012-12-10T20:57:53-0500
_audit_creation_method            fapswitch 2.2
_symmetry_space_group_name_H-M    P1
_symmetry_Int_Tables_number       1
_space_group_crystal_system       triclinic
_cell_length_a                    18.21524
_cell_length_b                    18.259134
_cell_length_c                    18.367907
_cell_angle_alpha                 120.061817
_cell_angle_beta                  89.99414
_cell_angle_gamma                 119.916434
_cell_volume                      4321.39463407

loop_
_atom_site_label
_atom_site_type_symbol
_atom_type_description
_atom_site_fract_x
_atom_site_fract_y
_atom_site_fract_z
_atom_type_partial_charge
C1    C     C_R   0.358565 0.220055 0.361056 0.795969
C2    C     C_3   0.767171 0.942589 0.658322 -0.355874
C3    C     C_2   0.161535 0.346802 0.291017 0.396125
C4    C     C_2   0.834324 0.503125 0.559123 0.392543
C5    C     C_2   0.962595 0.931338 0.815574 0.399604
C6    C     C_2   0.150520 0.495164 0.558082 0.437772
C7    C     C_3   0.697335 0.897531 0.698808 0.016599
C8    C     C_R   0.640648 0.780879 0.638855 0.777227
C9    C     C_3   0.798828 0.102770 0.804364 0.041345
C10   C     C_3   0.814668 0.059307 0.853003 -0.233085
C11   C     C_3   0.821944 0.062260 0.716967 -0.380808
C12   C     C_3   0.679785 0.392711 0.242856 -0.546082
C13   C     C_3   0.740993 0.391852 0.183390 0.745985
C14   C     C_3   0.680013 0.533856 0.243407 0.276003
C15   C     C_3   0.798725 0.580471 0.360327 -0.517977
C16   C     C_3   0.339305 0.610720 0.331127 -0.389254
C17   C     C_3   0.697828 0.501174 0.301847 -0.057603
C18   C     C_3   0.799683 0.501593 0.200377 -0.052821
C19   C     C_3   0.736439 0.528390 0.179088 -0.346692
C20   C     C_R   0.359401 0.500687 0.640839 0.821842
C21   C     C_3   0.859063 0.583689 0.301747 0.243128
C22   C     C_R   0.341842 0.167665 0.590761 0.525772
C23   C     C_R   0.335701 0.121154 0.499807 0.004006
C24   C     C_R   0.267657 0.100120 0.438925 -0.110204
C25   C     C_R   0.206988 0.125890 0.469497 0.026769
C26   C     C_R   0.214339 0.171198 0.559732 -0.140726
C27   C     C_3   0.298970 0.498649 0.301675 0.060860
C28   C     C_R   0.280462 0.191600 0.619343 -0.328742
C29   C     C_R   0.207551 0.944156 0.287098 -0.247765
C30   C     C_R   0.195422 0.892353 0.195901 -0.051172
C31   C     C_R   0.236395 0.948976 0.159235 -0.036589
C32   C     C_R   0.640605 0.500602 0.359473 0.858509
C33   C     C_R   0.288882 0.055940 0.215092 -0.255792
C34   C     C_R   0.301378 0.107750 0.306330 -0.052555
C35   C     C_R   0.259911 0.051194 0.342965 -0.040751
C36   C     C_R   0.290449 0.878050 0.035132 -0.126016
C37   C     C_R   0.285513 0.832498 0.945871 -0.127321
C38   C     C_3   0.196292 0.498739 0.200716 0.124488
C39   C     C_R   0.218594 0.808922 0.884120 -0.164606
C40   C     C_R   0.156096 0.830507 0.911312 -0.104027
C41   C     C_R   0.160055 0.876652 0.001148 0.039846
C42   C     C_R   0.228281 0.900449 0.063622 0.057903
C43   C     C_R   0.911835 0.684754 0.604265 -0.202211
C44   C     C_R   0.641868 0.500174 0.640110 0.819736
C45   C     C_R   0.864040 0.611846 0.623532 0.043264
C46   C     C_R   0.844210 0.643446 0.703833 -0.013227
C47   C     C_R   0.875311 0.747199 0.764247 -0.069981
C48   C     C_R   0.924186 0.820675 0.745582 0.020256
C49   C     C_3   0.141391 0.449180 0.248099 -0.235683
C50   C     C_R   0.939724 0.787669 0.662646 -0.054497
C51   C     C_R   0.842216 0.568457 0.783215 -0.217292
C52   C     C_R   0.799370 0.499181 0.806620 -0.056300
C53   C     C_R   0.704601 0.430292 0.774954 -0.038977
C54   C     C_R   0.655405 0.432358 0.719992 -0.203631
C55   C     C_R   0.698283 0.501359 0.696284 -0.063890
C56   C     C_R   0.358620 0.500551 0.359342 0.795972
C57   C     C_R   0.793048 0.569956 0.727721 -0.021606
C58   C     C_R   0.623938 0.250853 0.732834 -0.082756
C59   C     C_R   0.576621 0.176180 0.749695 -0.097098
C60   C     C_3   0.280180 0.610578 0.270796 -0.349662
C61   C     C_R   0.558439 0.203438 0.829620 -0.216570
C62   C     C_R   0.586788 0.305287 0.892658 -0.104752
C63   C     C_R   0.634065 0.381413 0.876956 0.495720
C64   C     C_R   0.653665 0.353854 0.795910 0.014845
C65   C     C_R   0.389484 0.805666 0.727098 -0.156717
C66   C     C_R   0.367922 0.736112 0.749092 -0.112056
C67   C     C_R   0.290369 0.634173 0.694566 0.056600
C68   C     C_3   0.291647 0.434395 0.202227 -0.400917
C69   C     C_R   0.233486 0.601962 0.616854 -0.011761
C70   C     C_R   0.256784 0.673087 0.595444 -0.095640
C71   C     C_3   0.638263 0.940682 0.712984 -0.117267
C72   C     C_R   0.334237 0.774104 0.650259 -0.171354
C73   C     C_R   0.215402 0.559774 0.774137 -0.265357
C74   C     C_R   0.194206 0.497290 0.804380 -0.042652
C75   C     C_R   0.227893 0.436084 0.780495 -0.006705
C76   C     C_R   0.282330 0.440096 0.727934 -0.242221
C77   C     C_R   0.303276 0.502326 0.697473 -0.043919
C78   C     C_R   0.269771 0.563670 0.721487 -0.038259
C79   C     C_R   0.272088 0.400823 0.881753 -0.147563
C80   C     C_3   0.230771 0.433320 0.143252 -0.421178
C81   C     C_R   0.253681 0.336320 0.909234 -0.147948
C82   C     C_3   0.697904 0.060182 0.777551 -0.401523
C83   C     C_R   0.172326 0.238327 0.864125 -0.101274
C84   C     C_R   0.109568 0.204335 0.790988 -0.101900
C85   C     C_R   0.127885 0.268290 0.762923 -0.123017
C86   C     C_R   0.208928 0.367395 0.808864 0.134411
C87   C     C_R   0.857267 0.500042 0.142818 0.864584
C88   C     C_R   0.138288 0.499235 0.861288 0.790601
C89   C     C_R   0.856846 0.219211 0.862044 0.788182
C90   C     C_R   0.138924 0.779987 0.141186 0.791065
C91   C     C_R   0.855871 0.499915 0.862223 0.807618
C92   C     C_3   0.203429 0.452960 0.310708 -0.174964
C93   C     C_3   0.751573 0.937507 0.791837 -0.246346
C94   C     C_R   0.139429 0.499617 0.142854 0.751860
C95   C     C_2   0.093109 0.495838 0.297604 0.490123
C96   C     C_2   0.580166 0.904096 0.626815 0.387960
C97   C     C_2   0.691018 0.890041 0.834446 0.431898
C98   C     C_2   0.808241 0.107927 0.946001 0.449703
C99   C     C_2   0.786361 0.624049 0.178334 0.620474
C100  C     C_2   0.400661 0.095771 0.467864 0.441755
C101  C     C_2   0.135956 0.106334 0.407978 0.441232
C102  C     C_2   0.092534 0.898188 0.028608 0.383476
C103  C     C_2   0.982635 0.855689 0.632069 0.334603
H1    H     H_    0.264657 0.353456 0.177609 0.180250
H2    H     H_    0.807312 0.087966 0.678764 0.203755
H3    H     H_    0.894806 0.095161 0.732720 0.175457
H4    H     H_    0.796140 0.910507 0.779591 0.209936
H5    H     H_    0.885119 0.082184 0.861767 0.200280
H6    H     H_    0.607593 0.332217 0.201833 0.174208
H7    H     H_    0.693143 0.372417 0.286894 0.204504
H8    H     H_    0.269119 0.464835 0.107164 0.187109
H9    H     H_    0.689879 0.465381 0.109512 0.146212
H10   H     H_    0.813803 0.658923 0.407338 0.220794
H11   H     H_    0.814148 0.558251 0.401519 0.211492
H12   H     H_    0.260368 0.662628 0.312581 0.225949
H13   H     H_    0.903492 0.564177 0.316962 0.175458
H14   H     H_    0.700933 0.614692 0.291019 0.197513
H15   H     H_    0.283993 0.226809 0.688555 0.154568
H16   H     H_    0.173214 0.351822 0.092022 0.199045
H17   H     H_    0.168718 0.191388 0.584699 0.190712
H18   H     H_    0.175464 0.901354 0.315479 0.187659
H19   H     H_    0.320861 0.098741 0.186682 0.176255
H20   H     H_    0.342743 0.895804 0.082291 0.129019
H21   H     H_    0.333615 0.815321 0.924569 0.133451
H22   H     H_    0.214975 0.773566 0.814918 0.146320
H23   H     H_    0.211767 0.505510 0.381641 0.212549
H24   H     H_    0.104551 0.810947 0.861910 0.161302
H25   H     H_    0.926466 0.661004 0.542348 0.163573
H26   H     H_    0.861975 0.770651 0.826857 0.218671
H27   H     H_    0.914876 0.621422 0.807174 0.187610
H28   H     H_    0.582765 0.379222 0.695824 0.212002
H29   H     H_    0.637935 0.228578 0.670629 0.171584
H30   H     H_    0.554133 0.097055 0.700756 0.157630
H31   H     H_    0.522051 0.145459 0.842669 0.149444
H32   H     H_    0.571753 0.325236 0.954192 0.139591
H33   H     H_    0.087210 0.366878 0.194128 0.115642
H34   H     H_    0.590602 0.911080 0.744708 0.079151
H35   H     H_    0.351342 0.828135 0.633195 0.143469
H36   H     H_    0.449043 0.884246 0.769784 0.118943
H37   H     H_    0.411718 0.761614 0.808785 0.122958
H38   H     H_    0.215009 0.650715 0.536303 0.203976
H39   H     H_    0.189559 0.606336 0.791474 0.178019
H40   H     H_    0.308568 0.393955 0.710932 0.174883
H41   H     H_    0.335071 0.476860 0.917450 0.136183
H42   H     H_    0.302354 0.362397 0.965654 0.139296
H43   H     H_    0.344431 0.659443 0.401616 0.195510
H44   H     H_    0.157970 0.188738 0.885793 0.130656
H45   H     H_    0.687919 0.095332 0.746934 0.211084
H46   H     H_    0.046653 0.128604 0.756251 0.171276
H47   H     H_    0.078736 0.241349 0.706312 0.132511
H48   H     H_    0.408524 0.646624 0.327770 0.179606
H49   H     H_    0.320285 0.643147 0.236112 0.154912
H50   H     H_    0.020420 0.450867 0.271539 0.105541
H51   H     H_    0.508476 0.845229 0.602094 0.087784
H52   H     H_    0.642049 0.906302 0.854734 0.034389
H53   H     H_    0.746108 0.098453 0.955489 0.058313
H54   H     H_    0.761745 0.299292 0.188783 0.368700
H55   H     H_    0.636206 0.311583 0.077572 0.298564
H56   H     H_    0.677203 0.084565 0.837717 0.150127
H57   H     H_    0.567289 0.402586 0.151509 0.330644
H58   H     H_    0.960809 0.727955 0.380545 0.340468
H59   H     H_    0.821454 0.624035 0.130577 0.034828
H60   H     H_    0.403309 0.222423 0.711078 0.322820
H61   H     H_    0.396319 0.060860 0.398410 0.056217
H62   H     H_    0.128025 0.070236 0.337658 0.079097
H63   H     H_    0.094628 0.933430 0.097497 0.084350
H64   H     H_    0.017126 0.839087 0.584332 0.085640
H65   H     H_    0.142975 0.281283 0.224213 0.087359
H66   H     H_    0.798042 0.446173 0.573452 0.073223
H67   H     H_    0.813934 0.919346 0.654005 0.208088
H68   H     H_    0.012304 0.992024 0.809983 0.097606
H69   H     H_    0.691481 0.526511 0.923139 0.341905
H70   H     H_    0.133834 0.438251 0.571562 0.091861
H71   H     H_    0.359611 0.468585 0.195749 0.205737
H72   H     H_    0.733844 0.910664 0.588986 0.216423
O1    O     O_3   0.500000 0.500000 0.500000 -0.490037
O2    O     O_R   0.113800 0.731630 0.056520 -0.641767
O3    O     O_R   0.819390 0.439310 0.886160 -0.649744
O4    O     O_R   0.383400 0.268380 0.323710 -0.649343
O5    O     O_R   0.115110 0.560720 0.179280 -0.635850
O6    O     O_R   0.941380 0.560750 0.885620 -0.648241
O7    O     O_R   0.115110 0.439270 0.057830 -0.633414
O8    O     O_R   0.942690 0.268390 0.886930 -0.636710
O9    O     O_R   0.114340 0.731630 0.178520 -0.640550
O10   O     O_R   0.820160 0.439310 0.057830 -0.621586
O11   O     O_R   0.113800 0.560730 0.885620 -0.641908
O12   O     O_R   0.383400 0.560740 0.616060 -0.633845
O13   O     O_R   0.555060 0.731630 0.615290 -0.663260
O14   O     O_R   0.383950 0.439280 0.616600 -0.641329
O15   O     O_R   0.677590 0.560710 0.444390 -0.658111
O16   O     O_R   0.556370 0.439260 0.616600 -0.648139
O17   O     O_R   0.382640 0.439290 0.322940 -0.636973
O18   O     O_R   0.678360 0.560700 0.616060 -0.635598
O19   O     O_R   0.382640 0.560750 0.444390 -0.645575
O20   O     O_2   0.134358 0.583755 0.365659 -0.586107
O21   O     O_2   0.612382 0.938625 0.583914 -0.581278
O22   O     O_2   0.697006 0.833067 0.846636 -0.540030
O23   O     O_R   0.555060 0.439270 0.322940 -0.610146
O24   O     O_2   0.873205 0.158700 0.011318 -0.544441
O25   O     O_3   0.799031 0.372079 0.207574 -0.771977
O26   O     O_3   0.689138 0.312491 0.092100 -0.762374
O27   O     O_3   0.588179 0.475245 0.195730 -0.744914
O28   O     O_3   0.913528 0.683995 0.322074 -0.731550
O29   O     O_2   0.787383 0.700652 0.228830 -0.533145
O30   O     O_3   0.408016 0.189250 0.650670 -0.731709
O31   O     O_2   0.460267 0.113529 0.518304 -0.525317
O32   O     O_2   0.085123 0.130639 0.435204 -0.542172
O33   O     O_2   0.033319 0.876560 0.974412 -0.562497
O34   O     O_R   0.383950 0.268380 0.445700 -0.646211
O35   O     O_2   0.975389 0.926395 0.654864 -0.625154
O36   O     O_2   0.147895 0.333689 0.349929 -0.526077
O37   O     O_2   0.849988 0.475542 0.488884 -0.558187
O38   O     O_2   0.940619 0.956723 0.882273 -0.532805
O39   O     O_3   0.659941 0.480447 0.942357 -0.788276
O40   O     O_2   0.099328 0.469319 0.493737 -0.516662
O41   O     O_R   0.677590 0.731610 0.615290 -0.625170
O42   O     O_3   0.997750 0.500010 0.002220 -0.493713
O43   O     O_R   0.942690 0.560750 0.179280 -0.617506
O44   O     O_R   0.114340 0.439270 0.886160 -0.639046
O45   O     O_R   0.820160 0.268410 0.886930 -0.635297
Zn1   Zn    Zn3+2 0.456040 0.586770 0.543190 0.993920
Zn2   Zn    Zn3+2 0.456820 0.413240 0.543960 0.993239
Zn3   Zn    Zn3+2 0.631110 0.586750 0.543190 0.996513
Zn4   Zn    Zn3+2 0.456040 0.413240 0.369660 0.991316
Zn5   Zn    Zn3+2 0.041710 0.413240 0.959030 0.987620
Zn6   Zn    Zn3+2 0.866640 0.413270 0.959030 0.999838
Zn7   Zn    Zn3+2 0.040930 0.586780 0.958260 0.971109
Zn8   Zn    Zn3+2 0.041710 0.586770 0.132560 1.005426

loop_
_geom_bond_atom_site_label_1
_geom_bond_atom_site_label_2
_ccdc_geom_bond_type
C68   C80   S    
C6    C69   S    
C56   O17   A    
C103  H64   S    
C39   H22   S    
C13   O25   S    
C99   O29   D    
C18   C21   S    
C41   C42   A    
C21   O28   S    
C10   H5    S    
C2    C7    S    
C30   C90   S    
O8    Zn5   S    
C12   H7    S    
C7    C8    S    
C71   H34   S    
C38   C49   S    
C77   C78   A    
O6    Zn7   S    
C68   H71   S    
C54   H28   S    
C44   O18   A    
C62   C63   A    
O1    Zn2   S    
C98   O24   D    
C47   H26   S    
C89   O8    A    
C36   C37   A    
O1    Zn3   S    
C26   H17   S    
C34   C35   A    
C44   O16   A    
H57   O27   S    
C30   C31   A    
C53   C64   S    
C37   H21   S    
C91   O3    A    
C41   C102  S    
C16   H43   S    
C18   C19   S    
C16   C60   S    
C87   O43   A    
C10   C98   S    
C85   H47   S    
C32   O23   A    
C27   C68   S    
C101  O32   D    
C46   C47   A    
C36   C42   A    
C96   H51   S    
C6    O40   D    
C47   C48   A    
C58   H29   S    
C29   H18   S    
C12   C17   S    
C61   H31   S    
C73   C78   A    
C15   H10   S    
C51   C57   A    
C9    C10   S    
O42   Zn6   S    
C73   H39   S    
C71   C82   S    
C82   H56   S    
O13   Zn1   S    
C16   C27   S    
C88   O11   A    
C66   C67   A    
C90   O2    A    
C50   C103  S    
C102  H63   S    
C22   C28   A    
C58   C64   A    
O34   Zn2   S    
C49   C95   S    
C14   C17   S    
C69   C70   A    
C67   C78   S    
C21   H13   S    
H69   O39   S    
C2    C11   S    
C103  O35   D    
O43   Zn8   S    
C12   H6    S    
C81   C83   A    
C51   H27   S    
C1    C34   S    
C4    C45   S    
C73   C74   A    
C3    O36   D    
C7    C93   S    
C5    C48   S    
C98   H53   S    
C59   C61   A    
C24   C35   S    
O1    Zn1   S    
O11   Zn7   S    
C1    O34   A    
C51   C52   A    
C97   O22   D    
H55   O26   S    
C36   H20   S    
C24   C25   A    
O17   Zn4   S    
C87   O10   A    
C4    H66   S    
C9    C89   S    
C39   C40   A    
C79   C81   A    
C19   C99   S    
O14   Zn2   S    
C60   H49   S    
C71   C96   S    
O12   Zn1   S    
C10   C93   S    
C58   C59   A    
C19   H9    S    
C40   H24   S    
O5    Zn8   S    
C95   H50   S    
O44   Zn5   S    
C22   O30   S    
C3    C92   S    
C67   C69   A    
C62   H32   S    
O23   Zn4   S    
C75   C76   A    
C11   H2    S    
C29   C30   A    
C2    H72   S    
O2    Zn7   S    
C99   H59   S    
C43   C45   A    
C75   C86   S    
C83   C84   A    
O18   Zn3   S    
C23   C24   A    
C14   H14   S    
C5    O38   D    
C38   C94   S    
C11   H3    S    
C31   C33   A    
C33   C34   A    
C5    H68   S    
C15   H11   S    
C32   O15   A    
C27   C92   S    
C100  H61   S    
C94   O5    A    
C84   C85   A    
C101  H62   S    
C9    C11   S    
O16   Zn2   S    
C85   C86   A    
H60   O30   S    
O42   Zn7   S    
O19   Zn1   S    
C56   O19   A    
C20   C77   S    
C40   C41   A    
C49   H33   S    
C90   O9    A    
C81   H42   S    
C91   O6    A    
C46   C57   S    
C33   H19   S    
C38   C60   S    
C15   C21   S    
C45   C46   A    
O9    Zn8   S    
C49   C92   S    
C43   C50   A    
C93   C97   S    
C20   O14   A    
C52   C53   A    
C12   C13   S    
C15   C17   S    
C29   C35   A    
C54   C55   A    
C70   H38   S    
C95   O20   D    
O1    Zn4   S    
C13   C18   S    
C27   C56   S    
C59   H30   S    
C14   C19   S    
H58   O28   S    
C68   H1    S    
C83   H44   S    
C8    O41   A    
C92   H23   S    
C43   H25   S    
C82   H45   S    
C88   O44   A    
O7    Zn5   S    
C53   C54   A    
C6    H70   S    
C65   C72   A    
C9    C82   S    
C26   C28   A    
C18   C87   S    
C4    O37   D    
C79   H41   S    
O4    Zn4   S    
H54   O25   S    
C55   C57   A    
C25   C26   A    
O41   Zn3   S    
C2    H67   S    
C28   H15   S    
O15   Zn3   S    
C84   H46   S    
C89   O45   A    
C7    C71   S    
C76   C77   A    
C1    O4    A    
C44   C55   S    
C25   C101  S    
C31   C42   S    
C38   C80   S    
O10   Zn6   S    
C14   O27   S    
C80   H8    S    
C48   C50   A    
C13   O26   S    
C23   C100  S    
C16   H48   S    
C97   H52   S    
C63   O39   S    
C61   C62   A    
C72   H35   S    
O3    Zn6   S    
C100  O31   D    
O42   Zn8   S    
C63   C64   A    
C65   H36   S    
C76   H40   S    
C80   H16   S    
C96   O21   D    
O45   Zn6   S    
C66   H37   S    
C74   C75   A    
C37   C39   A    
C65   C66   A    
C17   C32   S    
C22   C23   A    
C60   H12   S    
C70   C72   A    
C94   O7    A    
C52   C91   S    
C74   C88   S    
C102  O33   D    
C8    O13   A    
C79   C86   A    
C93   H4    S    
O42   Zn5   S    
C3    H65   S    
C20   O12   A    
