data_mof_unit_3638.cif
_audit_creation_date              2012-10-26T20:36:02-0400
_audit_creation_method            fapswitch 2.2
_symmetry_space_group_name_H-M    P1
_symmetry_Int_Tables_number       1
_space_group_crystal_system       triclinic
_cell_length_a                    10.777668
_cell_length_b                    15.805043
_cell_length_c                    17.091832
_cell_angle_alpha                 96.28956
_cell_angle_beta                  90.922319
_cell_angle_gamma                 92.123133
_cell_volume                      2891.34215028

loop_
_atom_site_label
_atom_site_type_symbol
_atom_type_description
_atom_site_fract_x
_atom_site_fract_y
_atom_site_fract_z
_atom_type_partial_charge
C1    C     C_R   0.498761 0.489599 0.348605 0.530000
C2    C     C_R   0.493831 0.527195 0.902410 0.217533
C3    C     C_R   0.524736 0.400773 0.135964 -0.000797
C4    C     C_R   0.511198 0.601800 0.865037 0.004642
C5    C     C_R   0.522671 0.406501 0.218181 -0.154636
C6    C     C_R   0.512874 0.595732 0.782765 -0.158486
C7    C     C_R   0.440854 0.751696 0.460539 0.021441
C8    C     C_R   0.559307 0.248298 0.539363 0.019409
C9    C     C_R   0.444234 0.841042 0.462857 -0.119298
C10   C     C_R   0.555923 0.158952 0.537051 -0.120192
C11   C     C_R   0.525243 0.891184 0.516515 0.208928
C12   C     C_R   0.500616 0.510408 0.651475 0.529926
C13   C     C_R   0.474738 0.108817 0.483502 0.208883
C14   C     C_R   0.600322 0.848529 0.566149 -0.138585
C15   C     C_R   0.399493 0.151477 0.433968 -0.139092
C16   C     C_R   0.262741 0.500322 0.498856 0.531956
C17   C     C_R   0.737275 0.499662 0.500818 0.532614
C18   C     C_R   0.594040 0.759101 0.561879 0.025955
C19   C     C_R   0.405781 0.240905 0.438232 0.025307
C20   C     C_R   0.122647 0.476188 0.353651 -0.097296
C21   C     C_R   0.877634 0.523887 0.646027 -0.096934
C22   C     C_R   0.054781 0.464172 0.282356 0.010042
C23   C     C_R   0.498358 0.483756 0.262656 -0.018090
C24   C     C_R   0.945897 0.538062 0.717131 0.011253
C25   C     C_R   0.925174 0.463456 0.283808 -0.111165
C26   C     C_R   0.075506 0.542114 0.715269 -0.111163
C27   C     C_R   0.864176 0.474143 0.355197 -0.108567
C28   C     C_R   0.136180 0.529858 0.643959 -0.109499
C29   C     C_R   0.931452 0.486609 0.427602 0.005205
C30   C     C_R   0.068646 0.514566 0.571824 0.005117
C31   C     C_R   0.061997 0.487649 0.426844 -0.008673
C32   C     C_R   0.938086 0.512506 0.572714 -0.008614
C33   C     C_R   0.870951 0.498835 0.500465 -0.011182
C34   C     C_R   0.498633 0.516270 0.737552 -0.019400
C35   C     C_R   0.129072 0.501231 0.499082 -0.011129
C36   C     C_3   0.120181 0.454486 0.204635 -0.257193
C37   C     C_3   0.098940 0.364350 0.162186 -0.297149
C38   C     C_3   0.161954 0.355508 0.082550 -0.450499
C39   C     C_3   0.881360 0.550236 0.795061 -0.260478
C40   C     C_3   0.906728 0.477010 0.844431 -0.293582
C41   C     C_3   0.849245 0.491917 0.925464 -0.456537
C42   C     C_3   0.556322 0.317491 0.089801 -0.246183
C43   C     C_3   0.691103 0.321223 0.062628 -0.288642
C44   C     C_3   0.724910 0.237788 0.015830 -0.459854
C45   C     C_R   0.474352 0.555596 0.224701 -0.177502
C46   C     C_3   0.530770 0.688048 0.912246 -0.243818
C47   C     C_3   0.663423 0.699467 0.946646 -0.293550
C48   C     C_3   0.684192 0.786439 0.994184 -0.457585
C49   C     C_R   0.481592 0.442393 0.774966 -0.172183
C50   C     C_R   0.474296 0.550506 0.143196 -0.111603
C51   C     C_R   0.478563 0.447598 0.856424 -0.116071
C52   C     C_R   0.500030 0.473240 0.097831 0.221189
Cu1   Cu    Cu3+1 0.493970 0.415220 0.496180 0.925799
Cu2   Cu    Cu3+1 0.506030 0.584780 0.503820 0.927431
H1    H     H_    0.130154 0.554507 0.769338 0.111735
H2    H     H_    0.777338 0.521542 0.648622 0.111537
H3    H     H_    0.763848 0.473086 0.352850 0.129119
H4    H     H_    0.236540 0.532806 0.646159 0.131250
H5    H     H_    0.469781 0.380358 0.741312 0.134398
H6    H     H_    0.454344 0.615708 0.257991 0.128203
H7    H     H_    0.464008 0.389125 0.883200 0.132462
H8    H     H_    0.453963 0.607274 0.115980 0.133375
H9    H     H_    0.542704 0.351001 0.247522 0.128612
H10   H     H_    0.527113 0.653081 0.754117 0.125925
H11   H     H_    0.621905 0.286131 0.580527 0.124168
H12   H     H_    0.870923 0.455153 0.229401 0.106551
H13   H     H_    0.378388 0.713857 0.419293 0.121796
H14   H     H_    0.124025 0.401143 0.044172 0.155255
H15   H     H_    0.263648 0.367766 0.090437 0.168940
H16   H     H_    0.144792 0.289833 0.053146 0.135133
H17   H     H_    0.137128 0.317319 0.199075 0.164808
H18   H     H_    0.997916 0.349491 0.152376 0.155112
H19   H     H_    0.085048 0.502076 0.167225 0.141782
H20   H     H_    0.221689 0.467844 0.213756 0.148996
H21   H     H_    0.884470 0.553561 0.956928 0.147258
H22   H     H_    0.746665 0.492151 0.919711 0.179284
H23   H     H_    0.616303 0.129896 0.576766 0.119516
H24   H     H_    0.874755 0.440052 0.960791 0.135344
H25   H     H_    0.867506 0.416148 0.813383 0.166653
H26   H     H_    0.008350 0.470904 0.852761 0.161413
H27   H     H_    0.915206 0.611835 0.827436 0.135334
H28   H     H_    0.779399 0.553695 0.785902 0.145664
H29   H     H_    0.714765 0.184335 0.052662 0.151081
H30   H     H_    0.664061 0.224388 0.962496 0.151403
H31   H     H_    0.822887 0.242693 0.997132 0.139111
H32   H     H_    0.704651 0.373534 0.024920 0.181685
H33   H     H_    0.754802 0.334153 0.114752 0.150795
H34   H     H_    0.383993 0.870094 0.423060 0.119449
H35   H     H_    0.543901 0.264145 0.126711 0.127390
H36   H     H_    0.491610 0.303430 0.038301 0.150363
H37   H     H_    0.669736 0.838046 0.956169 0.149332
H38   H     H_    0.619183 0.793267 0.044069 0.152724
H39   H     H_    0.780840 0.792862 0.018190 0.141204
H40   H     H_    0.681488 0.649376 0.985739 0.184578
H41   H     H_    0.730947 0.693562 0.898039 0.152451
H42   H     H_    0.514309 0.739592 0.874330 0.127129
H43   H     H_    0.462118 0.694993 0.960174 0.154342
H44   H     H_    0.663723 0.884526 0.608181 0.100802
H45   H     H_    0.335950 0.115486 0.392023 0.100723
H46   H     H_    0.652483 0.727255 0.600576 0.122095
H47   H     H_    0.347192 0.272755 0.399621 0.124013
H48   H     H_    0.222938 0.477096 0.351274 0.111270
N1    N     N_2   0.500763 0.465808 0.014348 -0.274795
N2    N     N_2   0.492036 0.534626 0.985834 -0.271302
N3    N     N_R   0.515100 0.712130 0.509560 -0.219683
N4    N     N_R   0.484900 0.287870 0.490440 -0.220592
N5    N     N_2   0.534723 0.982851 0.522911 -0.243438
N6    N     N_2   0.465257 0.017150 0.477108 -0.243341
O1    O     O_R   0.494360 0.420530 0.382500 -0.512069
O2    O     O_R   0.505640 0.579470 0.617500 -0.512034
O3    O     O_R   0.504550 0.563720 0.388950 -0.504234
O4    O     O_R   0.495450 0.436280 0.611050 -0.505816
O5    O     O_R   0.314560 0.428400 0.496770 -0.498530
O6    O     O_R   0.685440 0.571600 0.503230 -0.498148
O7    O     O_R   0.324750 0.571590 0.503220 -0.502743
O8    O     O_R   0.675250 0.428410 0.496780 -0.502243

loop_
_geom_bond_atom_site_label_1
_geom_bond_atom_site_label_2
_ccdc_geom_bond_type
C38   H16   S    
C3    C42   S    
C23   C45   A    
C27   C29   A    
C14   C18   A    
C51   H7    S    
C44   H29   S    
C16   O5    A    
C12   O2    A    
C52   N1    S    
C4    C46   S    
Cu1   Cu2   S    
C15   C19   A    
C5    H9    S    
C18   H46   S    
C30   C35   A    
C36   C37   S    
C24   C26   A    
C9    H34   S    
C11   C14   A    
C20   H48   S    
C29   C33   A    
C24   C39   S    
Cu2   O2    S    
C6    H10   S    
C45   H6    S    
C1    O1    A    
Cu1   N4    S    
C49   C51   A    
C22   C25   A    
C50   C52   A    
N5    N6    D    
C40   H26   S    
Cu1   O8    S    
C38   H15   S    
C8    H11   S    
C26   H1    S    
C17   C33   S    
C13   N6    S    
C10   H23   S    
Cu1   O5    S    
C17   O6    A    
C14   H44   S    
C21   C32   A    
C48   H39   S    
C39   H27   S    
C4    C6    A    
C27   H3    S    
C15   H45   S    
C41   H24   S    
C44   H30   S    
C48   H37   S    
C6    C34   A    
C42   H36   S    
C2    C4    A    
C43   C44   S    
C37   C38   S    
C41   H21   S    
C47   C48   S    
C5    C23   A    
C2    N2    S    
Cu2   O7    S    
C7    N3    A    
C40   H25   S    
C9    C11   A    
C36   H20   S    
Cu1   O4    S    
C8    C10   A    
C40   C41   S    
C46   H43   S    
C20   C22   A    
C1    C23   S    
C37   H17   S    
C11   N5    S    
C50   H8    S    
C31   C35   A    
C21   C24   A    
C42   C43   S    
C12   C34   S    
C44   H31   S    
C16   O7    A    
C12   O4    A    
Cu1   O1    S    
C7    C9    A    
C46   C47   S    
C34   C49   A    
Cu2   N3    S    
C43   H32   S    
C25   H12   S    
C39   H28   S    
C38   H14   S    
C3    C5    A    
C10   C13   A    
C8    N4    A    
C21   H2    S    
C3    C52   A    
C28   H4    S    
C25   C27   A    
C22   C36   S    
C26   C28   A    
C49   H5    S    
C42   H35   S    
C43   H33   S    
C32   C33   A    
C13   C15   A    
C18   N3    A    
C16   C35   S    
C1    O3    A    
C41   H22   S    
C30   C32   A    
C19   H47   S    
C45   C50   A    
Cu2   O6    S    
C28   C30   A    
C47   H40   S    
Cu2   O3    S    
C2    C51   A    
C7    H13   S    
C39   C40   S    
C19   N4    A    
C46   H42   S    
C29   C31   A    
C48   H38   S    
C37   H18   S    
N1    N2    D    
C47   H41   S    
C36   H19   S    
C17   O8    A    
C20   C31   A    
