data_mof_unit_2957.cif
_audit_creation_date              2012-12-10T21:07:45-0500
_audit_creation_method            fapswitch 2.2
_symmetry_space_group_name_H-M    P1
_symmetry_Int_Tables_number       1
_space_group_crystal_system       triclinic
_cell_length_a                    8.574806
_cell_length_b                    17.510862
_cell_length_c                    16.803897
_cell_angle_alpha                 90.573312
_cell_angle_beta                  99.063144
_cell_angle_gamma                 90.619843
_cell_volume                      2491.32126572

loop_
_atom_site_label
_atom_site_type_symbol
_atom_type_description
_atom_site_fract_x
_atom_site_fract_y
_atom_site_fract_z
_atom_type_partial_charge
C1    C     C_R   0.498627 0.353235 0.499609 0.868199
C2    C     C_R   0.383005 0.463801 0.239751 0.127481
C3    C     C_R   0.597184 0.545618 0.842715 -0.318296
C4    C     C_R   0.383875 0.465357 0.156037 -0.324189
C5    C     C_R   0.496207 0.496036 0.875467 0.090317
C6    C     C_R   0.507117 0.500717 0.124605 0.090550
C7    C     C_1   0.497989 0.498213 0.963338 -0.039292
C8    C     C_1   0.502432 0.500032 0.036522 -0.045434
C9    C     C_R   0.200609 0.500674 0.478942 0.988543
C10   C     C_R   0.799434 0.500235 0.521136 0.989282
C11   C     C_2   0.035607 0.503571 0.467837 -0.378023
C12   C     C_R   0.498402 0.646718 0.500122 0.869098
C13   C     C_2   0.964604 0.499173 0.532601 -0.393375
C14   C     C_R   0.392384 0.844848 0.553877 -0.179515
C15   C     C_R   0.512779 0.150227 0.431379 -0.176882
C16   C     C_R   0.411583 0.766339 0.557236 -0.219807
C17   C     C_R   0.533200 0.228891 0.434769 -0.223526
C18   C     C_R   0.484594 0.728993 0.499015 -0.015731
C19   C     C_R   0.484998 0.270735 0.497908 -0.020472
C20   C     C_R   0.536441 0.770282 0.436916 -0.205800
C21   C     C_R   0.417512 0.233493 0.557974 -0.202826
C22   C     C_R   0.517031 0.848681 0.433646 -0.170555
C23   C     C_1   0.435197 0.965640 0.491068 -0.076299
C24   C     C_R   0.397293 0.154820 0.554470 -0.168524
C25   C     C_R   0.445155 0.885432 0.492065 0.168915
C26   C     C_R   0.444701 0.113761 0.491128 0.166123
C27   C     C_R   0.281699 0.393675 0.851147 0.118242
C28   C     C_R   0.330150 0.344987 0.916288 -0.141895
C29   C     C_R   0.220967 0.296536 0.944674 -0.150479
C30   C     C_R   0.063096 0.295447 0.907784 -0.115282
C31   C     C_R   0.014426 0.342283 0.841939 -0.130729
C32   C     C_R   0.123249 0.390793 0.813411 -0.168955
C33   C     C_R   0.774063 0.567684 0.152109 0.109656
C34   C     C_1   0.435091 0.033422 0.490663 -0.075936
C35   C     C_R   0.856535 0.525289 0.100834 -0.150593
C36   C     C_R   0.993475 0.555213 0.076915 -0.152047
C37   C     C_R   0.050647 0.627210 0.104648 -0.107850
C38   C     C_R   0.970604 0.669529 0.156102 -0.138478
C39   C     C_R   0.833052 0.640010 0.179854 -0.174189
C40   C     C_R   0.708124 0.601348 0.729703 0.166348
C41   C     C_R   0.664661 0.677581 0.715418 -0.133680
C42   C     C_R   0.771906 0.729869 0.691169 -0.141531
C43   C     C_R   0.924519 0.706828 0.683512 -0.121721
C44   C     C_R   0.970689 0.631793 0.701243 -0.157437
C45   C     C_R   0.395181 0.447231 0.821831 -0.060749
C46   C     C_R   0.863321 0.579461 0.725234 -0.126619
C47   C     C_R   0.257667 0.418270 0.267791 0.163342
C48   C     C_R   0.284786 0.341729 0.288834 -0.118678
C49   C     C_R   0.163129 0.296356 0.310247 -0.152729
C50   C     C_R   0.012242 0.326456 0.307991 -0.115909
C51   C     C_R   0.982854 0.401769 0.283896 -0.161962
C52   C     C_R   0.105067 0.447655 0.263746 -0.153142
C53   C     C_R   0.631168 0.535052 0.179580 -0.056536
C54   C     C_R   0.400126 0.450919 0.737717 -0.076775
C55   C     C_R   0.621401 0.535544 0.263362 -0.093671
C56   C     C_R   0.598196 0.547318 0.759040 0.115255
H1    H     H_    0.972929 0.509963 0.406894 0.172245
H2    H     H_    0.346249 0.126025 0.601231 0.133685
H3    H     H_    0.324303 0.413672 0.696301 0.136497
H4    H     H_    0.714873 0.562230 0.305590 0.136347
H5    H     H_    0.675580 0.583547 0.882375 0.162387
H6    H     H_    0.289606 0.436937 0.115425 0.155618
H7    H     H_    0.452424 0.344062 0.944867 0.126259
H8    H     H_    0.258905 0.259683 0.995196 0.127267
H9    H     H_    0.978722 0.257969 0.929893 0.122438
H10   H     H_    0.892325 0.341074 0.813000 0.133094
H11   H     H_    0.083834 0.426506 0.762246 0.110307
H12   H     H_    0.027151 0.493551 0.593786 0.167525
H13   H     H_    0.817067 0.468372 0.080710 0.135011
H14   H     H_    0.056300 0.522166 0.037630 0.142678
H15   H     H_    0.157359 0.650040 0.086565 0.133407
H16   H     H_    0.015287 0.725239 0.177707 0.130818
H17   H     H_    0.772398 0.673664 0.219639 0.122243
H18   H     H_    0.547765 0.696233 0.722764 0.114270
H19   H     H_    0.736941 0.788295 0.678713 0.140817
H20   H     H_    0.007495 0.747299 0.664776 0.125877
H21   H     H_    0.089612 0.614214 0.696567 0.136074
H22   H     H_    0.899976 0.521715 0.739488 0.115646
H23   H     H_    0.337300 0.873829 0.599312 0.131174
H24   H     H_    0.399751 0.317195 0.287903 0.117377
H25   H     H_    0.185386 0.237637 0.327625 0.141592
H26   H     H_    0.917776 0.291242 0.324125 0.125220
H27   H     H_    0.865580 0.424627 0.281278 0.142896
H28   H     H_    0.081627 0.506137 0.245933 0.150665
H29   H     H_    0.551815 0.117800 0.383039 0.130535
H30   H     H_    0.367173 0.734791 0.604213 0.142821
H31   H     H_    0.587839 0.256837 0.388791 0.139900
H32   H     H_    0.592442 0.742026 0.391381 0.147099
H33   H     H_    0.378809 0.265188 0.606869 0.150270
H34   H     H_    0.559148 0.880681 0.386211 0.130412
N1    N     N_R   0.500040 0.500030 0.707230 -0.109984
N2    N     N_R   0.499960 0.499970 0.292770 -0.107564
O1    O     O_R   0.500000 0.389130 0.566570 -0.627919
O2    O     O_R   0.500000 0.610870 0.433430 -0.623991
O3    O     O_R   0.499990 0.389100 0.433480 -0.621811
O4    O     O_R   0.500010 0.610900 0.566520 -0.617735
O5    O     O_R   0.271750 0.500010 0.550980 -0.627771
O6    O     O_R   0.728250 0.499990 0.449020 -0.627925
O7    O     O_R   0.271740 0.499980 0.417890 -0.614904
O8    O     O_R   0.728260 0.500020 0.582110 -0.620344
Zn1   Zn    Zn3+2 0.500010 0.500020 0.588860 0.935570
Zn2   Zn    Zn3+2 0.499990 0.499980 0.411140 0.938671

loop_
_geom_bond_atom_site_label_1
_geom_bond_atom_site_label_2
_ccdc_geom_bond_type
C31   H10   S    
C41   C42   A    
C35   C36   A    
C7    C8    T    
C21   H33   S    
C40   C46   A    
C28   C29   A    
C42   H19   S    
C33   C39   A    
C36   C37   A    
C19   C21   A    
C24   C26   A    
C30   C31   A    
C4    H6    S    
C10   O6    A    
C49   H25   S    
C52   H28   S    
C17   C19   A    
C41   H18   S    
C26   C34   S    
C56   N1    A    
C10   O8    A    
C44   C46   A    
C40   C56   S    
C22   C25   A    
C29   C30   A    
O3    Zn2   S    
N2    Zn2   S    
C15   H29   S    
C27   C45   S    
C3    H5    S    
C29   H8    S    
C9    O7    A    
C55   H4    S    
C16   H30   S    
C12   O2    A    
N1    Zn1   S    
C36   H14   S    
C54   H3    S    
C53   C55   A    
C33   C53   S    
C38   H16   S    
C1    C19   S    
C51   C52   A    
C47   C48   A    
O4    Zn1   S    
C4    C6    A    
O1    Zn1   S    
C5    C7    S    
C15   C26   A    
C6    C8    S    
O6    Zn2   S    
C5    C45   A    
C1    O1    A    
C2    C4    A    
C43   C44   A    
C37   C38   A    
C3    C56   A    
C31   C32   A    
C1    O3    A    
C23   C34   T    
C50   C51   A    
C22   H34   S    
C14   H23   S    
C2    N2    A    
C9    C11   S    
O2    Zn2   S    
C32   H11   S    
C39   H17   S    
C24   H2    S    
C40   C41   A    
C55   N2    A    
C20   C22   A    
C45   C54   A    
C37   H15   S    
C14   C16   A    
C42   C43   A    
C6    C53   A    
C51   H27   S    
C50   H26   S    
C46   H22   S    
C43   H20   S    
C15   C17   A    
C44   H21   S    
C9    O5    A    
C27   C32   A    
C17   H31   S    
C3    C5    A    
C10   C13   S    
C47   C52   A    
C2    C47   S    
C48   H24   S    
C54   N1    A    
C11   C13   D    
C38   C39   A    
C48   C49   A    
C20   H32   S    
O8    Zn1   S    
C33   C35   A    
C18   C20   A    
C23   C25   S    
C14   C25   A    
C30   H9    S    
C28   H7    S    
O7    Zn2   S    
C35   H13   S    
C16   C18   A    
C49   C50   A    
C21   C24   A    
C12   C18   S    
C27   C28   A    
C12   O4    A    
C11   H1    S    
O5    Zn1   S    
C13   H12   S    
