data_mof_unit_1818.cif
_audit_creation_date              2012-12-10T19:31:24-0500
_audit_creation_method            fapswitch 2.2
_symmetry_space_group_name_H-M    P1
_symmetry_Int_Tables_number       1
_space_group_crystal_system       triclinic
_cell_length_a                    19.223811
_cell_length_b                    15.73606
_cell_length_c                    14.938003
_cell_angle_alpha                 89.199024
_cell_angle_beta                  89.771817
_cell_angle_gamma                 90.364905
_cell_volume                      4518.2804688

loop_
_atom_site_label
_atom_site_type_symbol
_atom_type_description
_atom_site_fract_x
_atom_site_fract_y
_atom_site_fract_z
_atom_type_partial_charge
C1    C     C_R   0.500030 0.337517 0.500625 0.872742
C2    C     C_R   0.500456 0.662403 0.499385 0.916715
C3    C     C_3   0.560104 0.970890 0.548757 -0.433368
C4    C     C_3   0.450305 0.028309 0.450607 -0.421643
C5    C     C_3   0.564975 0.030086 0.465221 0.329063
C6    C     C_3   0.445478 0.969483 0.534173 0.351428
C7    C     C_1   0.501245 0.248765 0.502154 -0.173328
C8    C     C_1   0.502941 0.751016 0.497852 -0.116226
C9    C     C_3   0.498709 0.024342 0.583685 0.460393
C10   C     C_3   0.511622 0.975017 0.415827 0.487326
C11   C     C_3   0.504080 0.082927 0.501328 -0.070267
C12   C     C_3   0.506105 0.916660 0.498206 -0.074122
C13   C     C_1   0.502527 0.173597 0.502640 0.065097
C14   C     C_1   0.505010 0.826099 0.497167 0.112521
C15   C     C_3   0.526422 0.421902 0.974170 0.464777
C16   C     C_3   0.476300 0.570877 0.026938 0.464580
C17   C     C_3   0.564798 0.487258 0.032060 0.490641
C18   C     C_3   0.437785 0.505720 0.969256 0.483306
C19   C     C_3   0.460330 0.431767 0.032801 -0.469680
C20   C     C_3   0.542795 0.561440 0.968318 -0.530512
C21   C     C_3   0.499324 0.498003 0.090322 -0.141529
C22   C     C_3   0.503389 0.495225 0.909990 -0.190570
C23   C     C_R   0.365146 0.501494 0.500245 0.989710
C24   C     C_R   0.634732 0.501044 0.499646 0.999995
C25   C     C_1   0.499617 0.499412 0.189996 0.214092
C26   C     C_1   0.501274 0.498399 0.810067 0.177632
C27   C     C_R   0.252279 0.540403 0.571100 0.300128
C28   C     C_R   0.747342 0.544854 0.430435 0.294112
C29   C     C_R   0.179810 0.535319 0.573334 0.317235
C30   C     C_R   0.819670 0.539551 0.427006 0.321155
C31   C     C_R   0.144431 0.493859 0.504378 -0.244108
C32   C     C_R   0.854925 0.493060 0.493418 -0.243119
C33   C     C_R   0.180340 0.458466 0.432252 0.368679
C34   C     C_R   0.818756 0.451918 0.563553 0.365216
C35   C     C_R   0.253071 0.459259 0.432188 0.299669
C36   C     C_R   0.745982 0.451870 0.563453 0.294833
C37   C     C_R   0.289205 0.501126 0.501033 -0.378620
C38   C     C_R   0.710393 0.500191 0.498299 -0.371980
C39   C     C_R   0.930069 0.492376 0.493722 0.394482
C40   C     C_R   0.069337 0.492703 0.503621 0.398178
H1    H     H_    0.578173 0.612154 0.942419 0.170958
H2    H     H_    0.427014 0.379028 0.058708 0.175237
H3    H     H_    0.604617 0.945733 0.587866 0.195178
H4    H     H_    0.405683 0.051470 0.410582 0.195635
N1    N     N_R   0.034324 0.566985 0.501491 -0.130315
N2    N     N_R   0.965025 0.417934 0.496079 -0.118507
N3    N     N_R   0.965545 0.566815 0.496748 -0.131373
N4    N     N_R   0.033980 0.418113 0.500233 -0.121094
N5    N     N_1   0.500020 0.500000 0.268010 -0.086303
N6    N     N_1   0.499980 0.500000 0.731990 -0.086943
O1    O     O_R   0.500000 0.376780 0.574460 -0.642181
O2    O     O_R   0.500000 0.623220 0.425540 -0.600633
O3    O     O_R   0.500010 0.376780 0.425520 -0.616434
O4    O     O_R   0.499990 0.623220 0.574480 -0.602449
O5    O     O_R   0.398130 0.499990 0.574490 -0.573764
O6    O     O_R   0.601870 0.500010 0.425510 -0.573155
O7    O     O_R   0.398140 0.499990 0.425550 -0.583537
O8    O     O_R   0.601860 0.500010 0.574450 -0.589397
Zn1   Zn    Zn3+2 0.499990 0.500000 0.599450 1.017097
Zn2   Zn    Zn3+2 0.500010 0.500000 0.400550 1.036435
Cl1   Cl    Cl    0.295110 0.600273 0.654344 -0.452506
Cl2   Cl    Cl    0.704448 0.611051 0.351400 -0.498627
Cl3   Cl    Cl    0.133373 0.579170 0.664204 -0.514347
Cl4   Cl    Cl    0.865917 0.589654 0.337799 -0.521991
O9    O     O_3   0.143939 0.416211 0.366144 -0.617011
C41   C     C_3   0.144618 0.463975 0.285067 0.095280
H5    H     H_    0.140228 0.417981 0.229650 0.182378
H6    H     H_    0.193763 0.500504 0.273226 0.164773
C42   C     C_3   0.082290 0.524059 0.280674 -0.356407
H7    H     H_    0.033796 0.488382 0.297664 0.265222
H8    H     H_    0.089402 0.575529 0.329956 0.234023
C43   C     C_3   0.074921 0.564201 0.187659 -0.872337
H9    H     H_    0.122840 0.600326 0.169255 0.258690
H10   H     H_    0.030215 0.608542 0.187261 0.299064
H11   H     H_    0.065360 0.514352 0.137160 0.259693
O10   O     O_3   0.854824 0.406504 0.628458 -0.617163
C44   C     C_3   0.855237 0.451130 0.710192 0.099935
H12   H     H_    0.859770 0.403132 0.765046 0.174679
H13   H     H_    0.806291 0.486698 0.723180 0.154536
C45   C     C_3   0.918056 0.511482 0.714170 -0.355923
H14   H     H_    0.966125 0.476660 0.696048 0.265860
H15   H     H_    0.910773 0.564667 0.665601 0.231088
C46   C     C_3   0.926847 0.548755 0.807119 -0.875929
H16   H     H_    0.879993 0.585602 0.825631 0.255080
H17   H     H_    0.972663 0.592086 0.807212 0.301076
H18   H     H_    0.935410 0.497324 0.857464 0.266934
O11   O     O_3   0.288463 0.424216 0.360994 -0.624891
C47   C     C_3   0.300237 0.337429 0.379510 0.136634
H19   H     H_    0.250043 0.302430 0.388464 0.173526
H20   H     H_    0.332341 0.329470 0.441036 0.119428
C48   C     C_3   0.339420 0.299762 0.300436 -0.317301
H21   H     H_    0.307402 0.306116 0.238926 0.221083
H22   H     H_    0.388965 0.335354 0.289541 0.239702
C49   C     C_3   0.355664 0.206270 0.317035 -0.967363
H23   H     H_    0.388981 0.199262 0.377047 0.268313
H24   H     H_    0.383858 0.180771 0.258484 0.271165
H25   H     H_    0.306910 0.169047 0.327131 0.278142
O12   O     O_3   0.709702 0.408653 0.630365 -0.626438
C50   C     C_3   0.702758 0.322508 0.606548 0.153486
H26   H     H_    0.754690 0.291634 0.603815 0.188102
H27   H     H_    0.676693 0.316530 0.540313 0.129866
C51   C     C_3   0.658149 0.276637 0.677277 -0.391960
H28   H     H_    0.680735 0.287015 0.744676 0.226176
H29   H     H_    0.604826 0.303398 0.676239 0.236674
C52   C     C_3   0.653886 0.181334 0.660541 -0.875830
H30   H     H_    0.632472 0.169330 0.593074 0.299861
H31   H     H_    0.619261 0.150646 0.711305 0.263593
H32   H     H_    0.706307 0.152452 0.665608 0.275308
Cl5   Cl    Cl    0.643993 0.072184 0.419639 -0.606932
Cl6   Cl    Cl    0.366505 0.927756 0.580231 -0.542322
O13   O     O_3   0.518798 0.942213 0.328859 -0.614571
C53   C     C_3   0.522244 0.008679 0.264152 0.150825
H33   H     H_    0.569980 0.999228 0.223392 0.192567
H34   H     H_    0.525890 0.073857 0.292458 0.150477
C54   C     C_3   0.458788 0.004155 0.203021 -0.382194
H35   H     H_    0.453684 0.939070 0.175773 0.241978
H36   H     H_    0.411127 0.017924 0.242404 0.231131
C55   C     C_3   0.465015 0.067942 0.125370 -0.965695
H37   H     H_    0.470685 0.133579 0.150803 0.275564
H38   H     H_    0.417575 0.064724 0.083371 0.272357
H39   H     H_    0.510953 0.053090 0.083188 0.273045
O14   O     O_3   0.489305 0.054994 0.671223 -0.633973
C56   C     C_3   0.503757 0.989530 0.733933 0.097091
H40   H     H_    0.560991 0.980436 0.738658 0.135640
H41   H     H_    0.478665 0.928291 0.714983 0.182276
C57   C     C_3   0.476081 0.014312 0.825905 -0.300533
H42   H     H_    0.503234 0.072695 0.848574 0.216587
H43   H     H_    0.419529 0.027876 0.821072 0.253549
C58   C     C_3   0.487246 0.943165 0.894850 -0.977312
H44   H     H_    0.461076 0.883749 0.873342 0.278728
H45   H     H_    0.464801 0.961712 0.960172 0.271311
H46   H     H_    0.543688 0.931079 0.903645 0.265611
O15   O     O_3   0.630524 0.474135 0.071349 -0.607125
C59   C     C_3   0.683103 0.483141 0.005848 0.103801
H47   H     H_    0.688972 0.551276 0.986103 0.140087
H48   H     H_    0.671363 0.444857 0.945419 0.151726
C60   C     C_3   0.751668 0.452249 0.045586 -0.259686
H49   H     H_    0.763523 0.488616 0.107029 0.262845
H50   H     H_    0.746717 0.383852 0.064326 0.237503
C61   C     C_3   0.811473 0.463704 0.979100 -0.978136
H51   H     H_    0.800871 0.427704 0.917150 0.257300
H52   H     H_    0.860333 0.439705 0.009394 0.282450
H53   H     H_    0.818513 0.532091 0.961898 0.273094
O16   O     O_3   0.371250 0.518352 0.931852 -0.606032
C62   C     C_3   0.319033 0.512431 0.998659 0.161158
H54   H     H_    0.283028 0.566654 0.988666 0.187705
H55   H     H_    0.338892 0.517333 0.068569 0.140734
C63   C     C_3   0.277958 0.429626 0.987994 -0.354913
H56   H     H_    0.252003 0.429887 0.921626 0.258974
H57   H     H_    0.313850 0.374651 0.990876 0.213183
C64   C     C_3   0.223144 0.418936 0.061445 -0.973934
H58   H     H_    0.248441 0.416119 0.128138 0.262022
H59   H     H_    0.193709 0.358896 0.051517 0.279501
H60   H     H_    0.186122 0.472820 0.059383 0.272126
O17   O     O_3   0.557094 0.341504 0.960370 -0.622986
C65   C     C_3   0.542610 0.309528 0.874688 0.080323
H61   H     H_    0.576358 0.253301 0.865127 0.167961
H62   H     H_    0.558351 0.354966 0.821006 0.126351
C66   C     C_3   0.466718 0.279654 0.865901 -0.414499
H63   H     H_    0.456885 0.226209 0.913826 0.230792
H64   H     H_    0.430273 0.331763 0.881793 0.236961
C67   C     C_3   0.451691 0.250395 0.770990 -0.870897
H65   H     H_    0.453359 0.305593 0.724015 0.280626
H66   H     H_    0.399100 0.220995 0.768347 0.277009
H67   H     H_    0.490667 0.203109 0.749536 0.290683
O18   O     O_3   0.442140 0.643929 0.059043 -0.641983
C68   C     C_3   0.479966 0.718940 0.038569 0.099725
H68   H     H_    0.443293 0.772984 0.043422 0.175475
H69   H     H_    0.499529 0.720553 0.968335 0.145038
C69   C     C_3   0.538522 0.732998 0.106408 -0.348815
H70   H     H_    0.515743 0.737604 0.174675 0.253062
H71   H     H_    0.574928 0.678483 0.106166 0.241183
C70   C     C_3   0.579365 0.814199 0.084708 -0.900269
H72   H     H_    0.604698 0.809455 0.018014 0.256651
H73   H     H_    0.620243 0.823736 0.135968 0.297001
H74   H     H_    0.544389 0.870052 0.084645 0.258591

loop_
_geom_bond_atom_site_label_1
_geom_bond_atom_site_label_2
_ccdc_geom_bond_type
C7    C13   T    
C41   H6    S    
O11   C47   S    
C29   Cl3   S    
C16   C21   S    
O5    Zn1   S    
C27   C29   A    
C11   C13   S    
O13   C53   S    
C61   H53   S    
C6    C9    S    
C53   H34   S    
C62   H54   S    
C33   O9    S    
C56   H40   S    
C68   H69   S    
C44   H12   S    
C15   C19   S    
C60   H50   S    
C3    H3    S    
C57   H42   S    
N5    Zn2   S    
C69   H71   S    
N6    Zn1   S    
C65   H61   S    
C35   C37   A    
C61   H52   S    
C5    C11   S    
C30   Cl4   S    
C26   N6    T    
C6    C12   S    
C56   H41   S    
C41   C42   S    
C69   H70   S    
C54   H35   S    
C17   C20   S    
C31   C40   S    
C51   C52   S    
C23   O7    A    
C18   C19   S    
C32   C39   S    
C42   H8    S    
C1    O3    A    
C55   H37   S    
C3    C12   S    
C27   Cl1   S    
C62   H55   S    
C35   O11   S    
C15   C22   S    
C66   H63   S    
C16   O18   S    
C54   H36   S    
C24   C38   S    
C64   H58   S    
C66   H64   S    
O2    Zn2   S    
C15   O17   S    
C46   H17   S    
C19   H2    S    
C43   H9    S    
C58   H46   S    
N1    N3    A    
C41   H5    S    
C1    C7    S    
C6    Cl6   S    
C42   H7    S    
C59   C60   S    
C45   C46   S    
C10   C12   S    
C5    C10   S    
C53   H33   S    
C52   H32   S    
O3    Zn2   S    
C20   H1    S    
C68   C69   S    
C67   H66   S    
O4    Zn1   S    
C44   H13   S    
C40   N1    A    
C60   C61   S    
N2    N4    A    
C63   C64   S    
O10   C44   S    
C43   H10   S    
C2    O4    A    
C48   H21   S    
O16   C62   S    
C56   C57   S    
C59   H48   S    
C4    H4    S    
C49   H25   S    
O8    Zn1   S    
C70   H72   S    
C17   C21   S    
O6    Zn2   S    
C55   H39   S    
C32   C34   A    
C42   C43   S    
C51   H29   S    
C3    C9    S    
C48   H22   S    
C67   H67   S    
C52   H31   S    
C46   H16   S    
C47   C48   S    
C28   C38   A    
C16   C20   S    
C54   C55   S    
C46   H18   S    
C31   C33   A    
C9    O14   S    
C66   C67   S    
C10   O13   S    
C16   C18   S    
C61   H51   S    
C4    C11   S    
C49   H24   S    
C1    O1    A    
C70   H73   S    
C2    O2    A    
C64   H60   S    
C39   N2    A    
C55   H38   S    
C45   H15   S    
C50   H27   S    
C47   H20   S    
O12   C50   S    
C49   H23   S    
C9    C11   S    
C17   O15   S    
O18   C68   S    
C4    C6    S    
O1    Zn1   S    
C20   C22   S    
C4    C10   S    
C68   H68   S    
C62   C63   S    
C57   H43   S    
C39   N3    A    
C67   H65   S    
C60   H49   S    
C70   H74   S    
C40   N4    A    
C21   C25   S    
C8    C14   T    
C19   C21   S    
C18   C22   S    
C18   O16   S    
C65   C66   S    
C2    C8    S    
C63   H57   S    
C45   H14   S    
C3    C5    S    
C23   O5    A    
C59   H47   S    
C24   O6    A    
C52   H30   S    
C57   C58   S    
C50   H26   S    
C65   H62   S    
C58   H44   S    
C28   C30   A    
C29   C31   A    
C23   C37   S    
C48   C49   S    
C30   C32   A    
C44   C45   S    
C43   H11   S    
O15   C59   S    
C5    Cl5   S    
C27   C37   A    
C36   C38   A    
C33   C35   A    
C34   C36   A    
C63   H56   S    
C64   H59   S    
C51   H28   S    
C25   N5    T    
C12   C14   S    
O7    Zn2   S    
C50   C51   S    
C47   H19   S    
C24   O8    A    
O9    C41   S    
C22   C26   S    
O17   C65   S    
C36   O12   S    
O14   C56   S    
C15   C17   S    
C53   C54   S    
C34   O10   S    
C58   H45   S    
C69   C70   S    
C28   Cl2   S    
