data_mof_unit_3582.cif
_audit_creation_date              2012-10-26T18:47:35-0400
_audit_creation_method            fapswitch 2.2
_symmetry_space_group_name_H-M    P1
_symmetry_Int_Tables_number       1
_space_group_crystal_system       triclinic
_cell_length_a                    10.837195
_cell_length_b                    12.999385
_cell_length_c                    11.844848
_cell_angle_alpha                 99.709076
_cell_angle_beta                  93.570614
_cell_angle_gamma                 94.317365
_cell_volume                      1635.31861617

loop_
_atom_site_label
_atom_site_type_symbol
_atom_type_description
_atom_site_fract_x
_atom_site_fract_y
_atom_site_fract_z
_atom_type_partial_charge
C1    C     C_R   0.498167 0.299470 0.478579 0.531069
C2    C     C_R   0.471112 0.981286 0.650476 -0.006055
C3    C     C_R   0.522143 0.126686 0.360803 -0.119912
C4    C     C_R   0.477819 0.873310 0.639190 -0.119902
C5    C     C_R   0.481725 0.137929 0.561139 -0.150261
C6    C     C_R   0.518223 0.862067 0.438852 -0.150248
C7    C     C_R   0.487963 0.030163 0.553510 0.045928
C8    C     C_R   0.511983 0.969833 0.446480 0.045928
C9    C     C_R   0.382846 0.397861 0.022146 -0.157494
C10   C     C_R   0.617215 0.602089 0.977847 -0.157483
C11   C     C_R   0.392392 0.406840 0.142213 0.136545
C12   C     C_R   0.501823 0.700529 0.521420 0.531084
C13   C     C_R   0.607670 0.593108 0.857781 0.136557
C14   C     C_R   0.554095 0.544052 0.155245 0.246418
C15   C     C_R   0.445899 0.455956 0.844758 0.246405
C16   C     C_R   0.262862 0.502636 0.500184 0.537379
C17   C     C_R   0.737137 0.497353 0.499814 0.537379
C18   C     C_R   0.543065 0.536700 0.033582 0.000451
C19   C     C_R   0.456948 0.463291 0.966418 0.000452
C20   C     C_R   0.249278 0.713925 0.249410 -0.087899
C21   C     C_R   0.750675 0.285988 0.750497 -0.087894
C22   C     C_R   0.194381 0.674470 0.338859 -0.045338
C23   C     C_R   0.871071 0.494792 0.500126 -0.002126
C24   C     C_R   0.805556 0.325482 0.661064 -0.045291
C25   C     C_R   0.114441 0.581943 0.315310 0.053984
C26   C     C_R   0.885556 0.417972 0.684649 0.053983
C27   C     C_R   0.087935 0.531145 0.200916 -0.101698
C28   C     C_R   0.912153 0.468679 0.799062 -0.101789
C29   C     C_R   0.143626 0.570603 0.111836 -0.117130
C30   C     C_R   0.856469 0.429190 0.888125 -0.117157
C31   C     C_R   0.224695 0.661659 0.136131 -0.098318
C32   C     C_R   0.775330 0.338178 0.863795 -0.098330
C33   C     C_R   0.930038 0.531394 0.411056 -0.156025
C34   C     C_R   0.128926 0.505176 0.499863 -0.002124
C35   C     C_R   0.069959 0.468564 0.588927 -0.156021
C36   C     C_3   0.693047 0.670796 0.812156 -0.333419
C37   C     C_3   0.307177 0.329027 0.187829 -0.333399
C38   C     C_3   0.554932 0.958361 0.234114 -0.414451
C39   C     C_3   0.445009 0.041634 0.765874 -0.414453
C40   C     C_R   0.941667 0.461973 0.590044 -0.031294
C41   C     C_R   0.058328 0.537978 0.409936 -0.031307
C42   C     C_R   0.500177 0.813871 0.533861 -0.024410
C43   C     C_R   0.499791 0.186126 0.466134 -0.024414
C44   C     C_R   0.528836 0.018709 0.349514 -0.006055
Cu1   Cu    Cu3+1 0.509250 0.507730 0.615930 0.920404
Cu2   Cu    Cu3+1 0.490750 0.492270 0.384070 0.920401
H1    H     H_    0.268164 0.691873 0.067171 0.105592
H2    H     H_    0.974203 0.539696 0.818942 0.094506
H3    H     H_    0.124532 0.530254 0.024057 0.099911
H4    H     H_    0.875625 0.469478 0.975918 0.099923
H5    H     H_    0.876321 0.558612 0.343647 0.120558
H6    H     H_    0.123678 0.441340 0.656329 0.120549
H7    H     H_    0.536930 0.814465 0.358723 0.141177
H8    H     H_    0.463016 0.185531 0.641267 0.141157
H9    H     H_    0.463687 0.835142 0.712527 0.132009
H10   H     H_    0.536282 0.164856 0.287468 0.131971
H11   H     H_    0.351023 0.372438 0.695264 0.290883
H12   H     H_    0.731870 0.307938 0.932741 0.105584
H13   H     H_    0.264286 0.413163 0.802334 0.197426
H14   H     H_    0.648969 0.627564 0.304742 0.290886
H15   H     H_    0.735701 0.586876 0.197669 0.197403
H16   H     H_    0.790163 0.665219 0.844877 0.092340
H17   H     H_    0.693333 0.661554 0.719089 0.198408
H18   H     H_    0.667757 0.751285 0.843807 0.091518
H19   H     H_    0.210051 0.334190 0.154769 0.092050
H20   H     H_    0.332949 0.248604 0.156516 0.091759
H21   H     H_    0.306579 0.338512 0.280904 0.198415
H22   H     H_    0.566012 0.010121 0.169108 0.121370
H23   H     H_    0.316304 0.338182 0.972720 0.131186
H24   H     H_    0.642208 0.919716 0.242341 0.138460
H25   H     H_    0.476909 0.898361 0.201367 0.124887
H26   H     H_    0.433930 0.989873 0.830880 0.121380
H27   H     H_    0.523029 0.101637 0.798624 0.124882
H28   H     H_    0.357731 0.080274 0.757644 0.138452
H29   H     H_    0.683808 0.661728 0.027265 0.131167
H30   H     H_    0.310895 0.784996 0.267937 0.104419
H31   H     H_    0.689014 0.214945 0.731944 0.104438
H32   H     H_    0.214819 0.715349 0.426363 0.100187
H33   H     H_    0.785064 0.284659 0.573548 0.100191
H34   H     H_    0.025949 0.460088 0.181066 0.094532
N1    N     N_R   0.523180 0.519350 0.790130 -0.201285
N2    N     N_R   0.476820 0.480650 0.209870 -0.201282
N3    N     N_3   0.348664 0.383002 0.782967 -0.652543
N4    N     N_3   0.651316 0.617019 0.217040 -0.652515
O1    O     O_R   0.506570 0.354460 0.582000 -0.513665
O2    O     O_R   0.493430 0.645540 0.418000 -0.513654
O3    O     O_R   0.490940 0.341410 0.386200 -0.519460
O4    O     O_R   0.509060 0.658590 0.613800 -0.519482
O5    O     O_R   0.327460 0.506540 0.597900 -0.523466
O6    O     O_R   0.672540 0.493460 0.402100 -0.523478
O7    O     O_R   0.311830 0.493480 0.402100 -0.500719
O8    O     O_R   0.688170 0.506520 0.597900 -0.500693

loop_
_geom_bond_atom_site_label_1
_geom_bond_atom_site_label_2
_ccdc_geom_bond_type
C1    O3    A    
C38   H24   S    
C27   C29   A    
C14   C18   A    
Cu1   O1    S    
C2    C7    A    
C14   N4    S    
C7    C8    A    
C15   N1    A    
C29   H3    S    
Cu1   Cu2   S    
C15   C19   A    
C17   O8    A    
C3    C43   A    
C17   C23   S    
H13   N3    S    
C18   C19   A    
C38   H22   S    
C23   C40   A    
C13   N1    A    
C20   H30   S    
C34   C35   A    
C10   H29   S    
C39   H28   S    
C11   C37   S    
Cu1   O8    S    
C12   C42   S    
C16   C34   S    
Cu2   N2    S    
C2    C39   S    
C1    C43   S    
C23   C33   A    
C22   C25   A    
C37   H19   S    
C39   H26   S    
H11   N3    S    
C32   H12   S    
C36   H17   S    
Cu1   O5    S    
C5    C43   A    
C16   O5    A    
C31   H1    S    
C34   C41   A    
C36   H16   S    
C9    C19   A    
C11   N2    A    
C1    O1    A    
C21   C32   A    
C3    C44   A    
C12   O4    A    
C5    H8    S    
Cu1   O4    S    
C22   H32   S    
C13   C36   S    
C27   H34   S    
C25   C41   S    
C5    C7    A    
C6    C8    A    
Cu2   O7    S    
C10   C13   A    
C2    C4    A    
C38   C44   S    
C3    H10   S    
C24   H33   S    
C37   H20   S    
C9    C11   A    
C20   C22   A    
C4    H9    S    
C25   C27   A    
C14   N2    A    
C6    H7    S    
Cu2   O3    S    
C38   H25   S    
C28   H2    S    
Cu1   N1    S    
C17   O6    A    
C8    C44   A    
C9    H23   S    
H15   N4    S    
C15   N3    S    
Cu2   O6    S    
C33   H5    S    
C26   C28   A    
C12   O2    A    
C33   C41   A    
C28   C30   A    
C35   C40   A    
C29   C31   A    
C30   C32   A    
H14   N4    S    
C24   C26   A    
C26   C40   S    
C4    C42   A    
C10   C18   A    
C37   H21   S    
C39   H27   S    
C30   H4    S    
C16   O7    A    
C6    C42   A    
C21   C24   A    
C21   H31   S    
C35   H6    S    
C36   H18   S    
Cu2   O2    S    
C20   C31   A    
