data_mof_unit_4229.cif
_audit_creation_date              2012-12-10T21:30:27-0500
_audit_creation_method            fapswitch 2.2
_symmetry_space_group_name_H-M    P1
_symmetry_Int_Tables_number       1
_space_group_crystal_system       triclinic
_cell_length_a                    13.076147
_cell_length_b                    16.126766
_cell_length_c                    16.768612
_cell_angle_alpha                 92.007481
_cell_angle_beta                  88.518071
_cell_angle_gamma                 108.583868
_cell_volume                      3349.25834131

loop_
_atom_site_label
_atom_site_type_symbol
_atom_type_description
_atom_site_fract_x
_atom_site_fract_y
_atom_site_fract_z
_atom_type_partial_charge
C1    C     C_R   0.497538 0.488586 0.347034 0.847540
C2    C     C_R   0.017140 0.460078 0.501978 0.111960
C3    C     C_R   0.120450 0.465356 0.472059 0.029725
C4    C     C_R   0.970272 0.523418 0.478635 0.071248
C5    C     C_R   0.021391 0.584606 0.419528 -0.027394
C6    C     C_R   0.116766 0.580238 0.382887 -0.208996
C7    C     C_R   0.165057 0.520979 0.408211 -0.176909
C8    C     C_R   0.874168 0.528099 0.513245 -0.337963
C9    C     C_R   0.867952 0.638902 0.421244 0.390136
C10   C     C_R   0.179647 0.418504 0.509306 -0.287691
C11   C     C_R   0.485454 0.480577 0.261091 -0.053283
C12   C     C_R   0.297654 0.450963 0.502636 0.936198
C13   C     C_R   0.447849 0.540907 0.222951 -0.317920
C14   C     C_R   0.437312 0.537281 0.140706 0.241418
C15   C     C_R   0.461861 0.469456 0.095975 0.291330
C16   C     C_R   0.498818 0.409257 0.134655 -0.253904
C17   C     C_R   0.510199 0.414299 0.216903 -0.230920
C18   C     C_R   0.417781 0.421500 0.856496 -0.176458
C19   C     C_R   0.449340 0.427426 0.777162 -0.201900
C20   C     C_R   0.406105 0.495023 0.897974 0.326244
C21   C     C_R   0.467939 0.506444 0.737820 -0.025244
C22   C     C_R   0.450212 0.578437 0.778166 -0.225212
C23   C     C_R   0.494645 0.509184 0.653029 0.877721
C24   C     C_R   0.418732 0.572367 0.858174 -0.185212
C25   C     C_R   0.547320 0.776177 0.542588 -0.002427
C26   C     C_R   0.545367 0.862655 0.541575 -0.275166
C27   C     C_R   0.480724 0.885740 0.485898 0.333266
C28   C     C_R   0.419913 0.820210 0.433043 -0.314273
C29   C     C_R   0.424128 0.734562 0.436199 0.007614
C30   C     C_R   0.479799 0.140100 0.453593 -0.330934
C31   C     C_R   0.475905 0.225887 0.448348 0.345606
C32   C     C_R   0.520865 0.114518 0.521976 0.313009
C33   C     C_R   0.555710 0.263163 0.575415 -0.083384
C34   C     C_R   0.702147 0.548784 0.495708 0.913424
C35   C     C_R   0.560313 0.177876 0.582691 -0.318818
C36   C     C_R   0.974254 0.647604 0.396547 0.380153
C37   C     C_R   0.818275 0.578248 0.480321 -0.242868
C38   C     C_R   0.128842 0.353905 0.565296 0.418339
C39   C     C_R   0.019507 0.338912 0.585250 0.179779
C40   C     C_R   0.965339 0.392458 0.554784 -0.332413
H1    H     H_    0.406562 0.360833 0.886655 0.142431
H2    H     H_    0.519668 0.358508 0.100498 0.153936
H3    H     H_    0.540036 0.367645 0.245567 0.167757
H4    H     H_    0.461527 0.639256 0.748283 0.160601
H5    H     H_    0.409652 0.629141 0.890252 0.146874
H6    H     H_    0.428159 0.592447 0.256801 0.157388
H7    H     H_    0.450859 0.094327 0.404073 0.156717
H8    H     H_    0.369611 0.835563 0.389338 0.133514
H9    H     H_    0.155137 0.623141 0.334958 0.165737
H10   H     H_    0.377105 0.684494 0.395169 0.119646
H11   H     H_    0.586165 0.311107 0.622945 0.147328
H12   H     H_    0.594412 0.910584 0.583466 0.152408
H13   H     H_    0.594008 0.161170 0.635793 0.152452
H14   H     H_    0.597171 0.758571 0.585114 0.129569
H15   H     H_    0.836073 0.488451 0.562861 0.173218
H16   H     H_    0.882536 0.379201 0.573902 0.163456
H17   H     H_    0.238813 0.519856 0.377972 0.141824
H18   H     H_    0.459206 0.369932 0.746901 0.155409
N1    N     N_2   0.458929 0.462734 0.012037 -0.203134
N2    N     N_2   0.396433 0.496331 0.981433 -0.160908
N3    N     N_R   0.487340 0.714070 0.490410 -0.083282
N4    N     N_2   0.475818 0.972803 0.479267 -0.188395
N5    N     N_2   0.525868 0.027639 0.531000 -0.183332
N6    N     N_R   0.512670 0.285920 0.509580 -0.099115
O1    O     O_R   0.504530 0.423560 0.387290 -0.584906
O2    O     O_R   0.496400 0.561030 0.381140 -0.646046
O3    O     O_R   0.352460 0.397130 0.504630 -0.585276
O4    O     O_R   0.344330 0.534610 0.498470 -0.611482
O5    O     O_R   0.503600 0.438970 0.618860 -0.631727
O6    O     O_R   0.495470 0.576440 0.612710 -0.623754
O7    O     O_R   0.655670 0.465390 0.501530 -0.612637
O8    O     O_R   0.647540 0.602870 0.495370 -0.583566
Zn1   Zn    Zn3+2 0.505430 0.408200 0.504110 0.950670
Zn2   Zn    Zn3+2 0.494570 0.591800 0.495890 0.945976
O9    O     O_3   0.814560 0.690725 0.388240 -0.630302
C41   C     C_3   0.752396 0.645530 0.322760 0.140036
H19   H     H_    0.679661 0.666790 0.320980 0.183603
H20   H     H_    0.723052 0.572946 0.328433 0.090173
C42   C     C_3   0.815025 0.669216 0.243845 -0.341878
H21   H     H_    0.848700 0.741564 0.240029 0.244105
H22   H     H_    0.882424 0.641314 0.240865 0.250303
C43   C     C_3   0.742724 0.632632 0.172516 -0.974511
H23   H     H_    0.711139 0.560103 0.173879 0.279198
H24   H     H_    0.789808 0.651716 0.116282 0.270611
H25   H     H_    0.674192 0.659125 0.173374 0.273574
N7    N     N_2   0.404258 0.602737 0.104037 -0.293419
H26   H     H_    0.347904 0.622295 0.137119 0.218127
C44   C     C_3   0.492210 0.676512 0.076400 -0.799139
H27   H     H_    0.536095 0.715612 0.128061 0.228695
H28   H     H_    0.459505 0.718978 0.041006 0.237210
H29   H     H_    0.549066 0.654115 0.037643 0.259828
N8    N     N_2   0.438694 0.250621 0.377129 -0.268417
H30   H     H_    0.471861 0.230466 0.326557 0.198064
C45   C     C_3   0.322760 0.226633 0.372110 -0.790268
H31   H     H_    0.301289 0.250416 0.315555 0.238255
H32   H     H_    0.290227 0.257477 0.422143 0.259368
H33   H     H_    0.285386 0.154346 0.373244 0.217128
O10   O     O_3   0.025629 0.710897 0.342264 -0.655082
C46   C     C_3   0.105583 0.780131 0.381163 0.060230
H34   H     H_    0.171047 0.808074 0.336791 0.157779
H35   H     H_    0.144064 0.758708 0.431820 0.130855
C47   C     C_3   0.058733 0.851934 0.409766 -0.294576
H36   H     H_    0.020366 0.872402 0.358894 0.237457
H37   H     H_    0.996050 0.826080 0.456610 0.231701
C48   C     C_3   0.146153 0.931489 0.443978 -0.997622
H38   H     H_    0.184268 0.912912 0.495976 0.280700
H39   H     H_    0.109465 0.982182 0.463898 0.267470
H40   H     H_    0.209130 0.959662 0.397915 0.264855
O11   O     O_3   0.190945 0.318937 0.611064 -0.627799
C49   C     C_3   0.171270 0.229751 0.589841 0.107820
H41   H     H_    0.169312 0.218551 0.523944 0.115521
H42   H     H_    0.093625 0.188929 0.616082 0.172925
C50   C     C_3   0.260612 0.200243 0.624071 -0.316766
H43   H     H_    0.339954 0.245344 0.604973 0.250524
H44   H     H_    0.256021 0.203526 0.690345 0.217726
C51   C     C_3   0.251546 0.107126 0.596327 -0.973682
H45   H     H_    0.171908 0.060952 0.614171 0.264689
H46   H     H_    0.315907 0.087087 0.624006 0.278338
H47   H     H_    0.261395 0.103776 0.530464 0.277125
N9    N     N_2   0.967430 0.277056 0.643692 -0.293570
H48   H     H_    0.940973 0.305352 0.692744 0.233847
C52   C     C_3   0.883492 0.201388 0.612640 -0.840765
H49   H     H_    0.854495 0.152974 0.660337 0.244515
H50   H     H_    0.915112 0.169877 0.562023 0.242906
H51   H     H_    0.814205 0.220498 0.592183 0.247766

loop_
_geom_bond_atom_site_label_1
_geom_bond_atom_site_label_2
_ccdc_geom_bond_type
C34   O8    A    
C35   H13   S    
C34   C37   S    
C23   O5    A    
C1    C11   S    
C41   C42   S    
C4    C8    A    
C48   H39   S    
C26   C27   A    
C24   H5    S    
C28   C29   A    
C19   C21   A    
C41   H20   S    
C3    C7    A    
C30   C31   A    
O10   C46   S    
N7    C44   S    
O4    Zn2   S    
C39   N9    S    
O2    Zn2   S    
C5    C36   A    
O1    Zn1   S    
C51   H45   S    
C47   C48   S    
C18   C19   A    
C49   H41   S    
C22   H4    S    
C20   C24   A    
C16   C17   A    
C40   H16   S    
O6    Zn2   S    
C9    C36   A    
C1    O1    A    
N6    Zn1   S    
O5    Zn1   S    
O3    Zn1   S    
C20   N2    S    
C45   H32   S    
C50   C51   S    
N1    N2    D    
C21   C22   A    
C23   O6    A    
C47   H36   S    
C8    H15   S    
N8    C45   S    
C48   H40   S    
N9    C52   S    
C29   H10   S    
C19   H18   S    
C38   C39   A    
C12   O3    A    
C29   N3    A    
C32   C35   A    
C30   H7    S    
C25   H14   S    
C14   N7    S    
O8    Zn2   S    
C18   H1    S    
C39   C40   A    
O7    Zn1   S    
N7    H26   S    
C45   H33   S    
C25   C26   A    
C2    C4    A    
O9    C41   S    
C17   H3    S    
N4    N5    D    
C27   N4    S    
C26   H12   S    
C12   O4    A    
C46   H34   S    
C44   H29   S    
C9    C37   A    
C1    O2    A    
C25   N3    A    
C41   H19   S    
C38   O11   S    
C47   H37   S    
C49   C50   S    
C10   C12   S    
C46   H35   S    
C44   H28   S    
C43   H23   S    
C43   H24   S    
C21   C23   S    
C22   C24   A    
C8    C37   A    
C52   H50   S    
C16   H2    S    
N9    H48   S    
C42   H22   S    
C50   H43   S    
C13   H6    S    
C28   H8    S    
C15   N1    S    
C31   N6    A    
C32   N5    S    
C4    C5    A    
C11   C17   A    
C42   C43   S    
C6    C7    A    
N3    Zn2   S    
C33   H11   S    
C43   H25   S    
C48   H38   S    
C51   H47   S    
C10   C38   A    
C52   H51   S    
C2    C3    A    
C3    C10   A    
O11   C49   S    
C30   C32   A    
C11   C13   A    
C5    C6    A    
C33   N6    A    
N8    H30   S    
C33   C35   A    
C51   H46   S    
C18   C20   A    
C6    H9    S    
C45   H31   S    
C49   H42   S    
C42   H21   S    
C2    C40   A    
C46   C47   S    
C44   H27   S    
C31   N8    S    
C27   C28   A    
C14   C15   A    
C36   O10   S    
C9    O9    S    
C52   H49   S    
C13   C14   A    
C34   O7    A    
C7    H17   S    
C15   C16   A    
C50   H44   S    
