data_mof_unit_1017.cif
_audit_creation_date              2012-12-11T18:37:39-0500
_audit_creation_method            fapswitch 2.2
_symmetry_space_group_name_H-M    P1
_symmetry_Int_Tables_number       1
_space_group_crystal_system       triclinic
_cell_length_a                    8.310791
_cell_length_b                    14.328365
_cell_length_c                    26.847895
_cell_angle_alpha                 93.001338
_cell_angle_beta                  92.541385
_cell_angle_gamma                 88.704041
_cell_volume                      3188.86306996

loop_
_atom_site_label
_atom_site_type_symbol
_atom_type_description
_atom_site_fract_x
_atom_site_fract_y
_atom_site_fract_z
_atom_type_partial_charge
Ba1   Ba    Ba6+2 0.849670 0.455410 0.524690 1.793017
Ba2   Ba    Ba6+2 0.340150 0.544510 0.475310 1.826827
C1    C     C_3   0.665772 0.103015 0.661328 -0.297057
C2    C     C_R   0.914248 0.588533 0.176944 0.658704
C3    C     C_2   0.735533 0.525349 0.269123 -0.108948
C4    C     C_3   0.176202 0.185649 0.662786 0.276055
C5    C     C_3   0.689614 0.516134 0.322867 -0.078479
C6    C     C_1   0.974430 0.481334 0.343282 -0.041244
C7    C     C_2   0.014782 0.486442 0.296032 -0.136113
C8    C     C_2   0.889772 0.509215 0.255912 0.215363
C9    C     C_R   0.020957 0.505580 0.103118 -0.073267
C10   C     C_R   0.039209 0.424930 0.130677 -0.072108
C11   C     C_R   0.113817 0.345290 0.108837 -0.043214
C12   C     C_3   0.641726 0.199243 0.640419 0.429149
C13   C     C_R   0.958515 0.588153 0.126501 0.001399
C14   C     C_2   0.838268 0.520092 0.357912 0.105947
C15   C     C_2   0.341929 0.465563 0.639694 -0.187633
C16   C     C_3   0.135800 0.162928 0.715380 -0.276611
C17   C     C_R   0.136445 0.413841 0.975806 0.038529
C18   C     C_R   0.097842 0.584161 0.974286 0.025056
C19   C     C_R   0.134144 0.497048 0.949349 0.053318
C20   C     C_R   0.139464 0.328064 0.947691 -0.005135
C21   C     C_R   0.167460 0.323649 0.896816 -0.037105
C22   C     C_R   0.186424 0.405459 0.871352 -0.033562
C23   C     C_3   0.484478 0.703406 0.626444 0.604419
C24   C     C_R   0.165517 0.492569 0.897266 -0.082358
C25   C     C_R   0.173943 0.574904 0.871072 -0.041547
C26   C     C_R   0.210928 0.569115 0.819832 0.632495
C27   C     C_R   0.221358 0.401750 0.820233 0.593946
C28   C     C_3   0.199105 0.251502 0.358101 0.535412
C29   C     C_2   0.415254 0.428983 0.728978 -0.034160
C30   C     C_3   0.435709 0.402230 0.674453 -0.064507
C31   C     C_1   0.213325 0.513366 0.655163 -0.002278
C32   C     C_2   0.171653 0.516459 0.702698 -0.073121
C33   C     C_2   0.281085 0.477139 0.742871 0.216815
C34   C     C_3   0.396989 0.766171 0.664314 -0.188142
C35   C     C_R   0.123042 0.418705 0.028757 -0.042101
C36   C     C_R   0.064414 0.503422 0.052099 0.027566
C37   C     C_R   0.050389 0.586204 0.024970 0.039074
C38   C     C_R   0.166327 0.343416 0.059954 0.310921
C39   C     C_R   0.942423 0.668710 0.099045 -0.022094
C40   C     C_3   0.115687 0.243200 0.305657 0.313141
C41   C     C_R   0.107606 0.665768 0.947103 -0.087421
C42   C     C_R   0.146222 0.661141 0.896836 -0.034297
C43   C     C_R   0.987603 0.667975 0.049543 -0.080440
C44   C     C_R   0.689859 0.065213 0.474761 0.024355
C45   C     C_3   0.981751 0.778778 0.341201 0.244931
C46   C     C_R   0.511529 0.198714 0.502593 0.065535
C47   C     C_R   0.375211 0.229910 0.527702 -0.203178
C48   C     C_R   0.276442 0.167097 0.549012 0.026437
C49   C     C_R   0.319717 0.072369 0.548625 -0.106230
C50   C     C_R   0.460146 0.039625 0.525410 0.024453
C51   C     C_R   0.555351 0.101954 0.500588 0.003432
C52   C     C_3   0.961825 0.750292 0.621454 0.740898
C53   C     C_R   0.640836 0.909061 0.501900 0.002039
C54   C     C_R   0.736320 0.970384 0.476609 0.026515
C55   C     C_R   0.688031 0.813858 0.503077 0.022989
C56   C     C_3   0.971835 0.812664 0.288454 -0.216135
C57   C     C_R   0.831893 0.782711 0.482955 -0.221709
C58   C     C_R   0.927549 0.842019 0.458547 -0.019593
C59   C     C_R   0.878828 0.935962 0.454380 -0.119096
C60   C     C_R   0.503440 0.944725 0.525915 -0.032757
C61   C     C_3   0.974932 0.843515 0.596820 -0.346383
C62   C     C_3   0.676106 0.324722 0.378098 0.266040
C63   C     C_3   0.688407 0.289063 0.323982 -0.348533
C64   C     C_3   0.442992 0.760590 0.300330 0.674586
C65   C     C_3   0.437793 0.750054 0.242948 0.118995
C66   C     C_R   0.990560 0.426824 0.180577 0.675461
Cl1   Cl    Cl    0.604971 0.623361 0.660032 -0.643973
Cl2   Cl    Cl    0.349322 0.643206 0.219879 -0.710707
Cl3   Cl    Cl    0.841330 0.589871 0.413174 -0.697895
H1    H     H_    0.693981 0.197914 0.603002 0.055510
H2    H     H_    0.795983 0.084699 0.665248 0.154532
H3    H     H_    0.737082 0.216219 0.322180 0.152442
H4    H     H_    0.768890 0.333069 0.303883 0.048348
H5    H     H_    0.567562 0.290412 0.305055 0.185550
H6    H     H_    0.509912 0.213498 0.636416 -0.201187
H7    H     H_    0.605971 0.049767 0.635716 0.056997
H8    H     H_    0.396592 0.663526 0.602138 0.000503
H9    H     H_    0.322915 0.819476 0.644741 0.089508
H10   H     H_    0.319518 0.723383 0.686417 0.147387
H11   H     H_    0.483595 0.803221 0.690527 0.180703
H12   H     H_    0.017288 0.192087 0.304231 0.060983
H13   H     H_    0.612063 0.102162 0.698445 0.120475
H14   H     H_    0.246918 0.164516 0.739913 0.119961
H15   H     H_    0.994571 0.701317 0.338903 0.057255
H16   H     H_    0.867389 0.800078 0.359083 0.070641
H17   H     H_    0.076108 0.785121 0.267399 0.130841
H18   H     H_    0.859086 0.787878 0.268991 0.157115
H19   H     H_    0.971123 0.890264 0.289522 0.183992
H20   H     H_    0.327386 0.739374 0.314768 0.038996
H21   H     H_    0.561243 0.753650 0.229011 0.132504
H22   H     H_    0.363437 0.807142 0.226649 0.107018
H23   H     H_    0.057744 0.310091 0.296671 -0.050706
H24   H     H_    0.226985 0.256814 0.664051 -0.000344
H25   H     H_    0.137637 0.471134 0.285733 0.161901
H26   H     H_    0.141525 0.285689 0.131159 0.196503
H27   H     H_    0.495680 0.398092 0.756832 0.092444
H28   H     H_    0.173510 0.255513 0.877414 0.133605
H29   H     H_    0.115749 0.263436 0.964470 0.149635
H30   H     H_    0.641973 0.537300 0.240608 0.160003
H31   H     H_    0.894165 0.733241 0.115809 0.132471
H32   H     H_    0.089592 0.734832 0.964092 0.086785
H33   H     H_    0.266588 0.132786 0.649518 -0.012065
H34   H     H_    0.859173 0.712525 0.603532 0.009676
H35   H     H_    0.153032 0.725915 0.878018 0.133304
H36   H     H_    0.050455 0.536889 0.712184 0.164014
H37   H     H_    0.967657 0.732341 0.030938 0.083099
H38   H     H_    0.366491 0.459115 0.600301 0.069512
H39   H     H_    0.339674 0.303038 0.527828 0.048869
H40   H     H_    0.242306 0.024220 0.565558 0.048681
H41   H     H_    0.952438 0.981813 0.434583 0.121493
H42   H     H_    0.874743 0.712414 0.489002 0.105431
H43   H     H_    0.761599 0.109410 0.453615 0.089916
H44   H     H_    0.046755 0.214917 0.730336 0.165814
H45   H     H_    0.059835 0.890438 0.618518 0.140989
H46   H     H_    0.429267 0.899610 0.545856 0.075564
H47   H     H_    0.084306 0.092019 0.715117 0.124007
H48   H     H_    0.316752 0.286119 0.356881 0.015982
H49   H     H_    0.465180 0.125803 0.247377 0.376044
H50   H     H_    0.067459 0.843066 0.748848 0.378363
H51   H     H_    0.648070 0.984102 0.314197 0.381428
H52   H     H_    0.164164 0.139854 0.053396 0.343301
H53   H     H_    0.065627 0.143245 0.440288 0.333173
H54   H     H_    0.855401 0.879475 0.593996 0.083654
H55   H     H_    0.023293 0.831945 0.559222 0.021905
H56   H     H_    0.798420 0.338770 0.393979 0.037164
H57   H     H_    0.599696 0.389130 0.380110 0.021493
N1    N     N_R   0.931932 0.508449 0.203635 -0.420899
N2    N     N_R   0.237133 0.483055 0.795128 -0.430085
O1    O     O_2   0.918080 0.549800 0.616640 -0.421264
O2    O     O_2   0.265473 0.833584 0.454010 -0.423985
O3    O     O_3   0.115807 0.818553 0.367338 -0.542088
O4    O     O_3   0.150070 0.549720 0.556460 -0.477978
O5    O     O_3   0.546340 0.387390 0.478340 -0.481283
O6    O     O_2   0.398940 0.728800 0.517420 -0.476341
O7    O     O_3   0.584480 0.759186 0.600412 -0.660517
O8    O     O_2   0.358477 0.577751 0.324368 -0.487220
O9    O     O_3   0.578337 0.712239 0.320460 -0.633403
O10   O     O_2   0.998196 0.355189 0.203302 -0.533486
O11   O     O_2   0.237097 0.325792 0.797949 -0.618373
O12   O     O_3   0.604936 0.255950 0.403731 -0.591762
O13   O     O_2   0.860746 0.660294 0.197104 -0.602869
O14   O     O_2   0.221588 0.640689 0.797471 -0.550313
O15   O     O_3   0.658250 0.379560 0.591530 -0.483813
O16   O     O_2   0.773538 0.446342 0.679756 -0.405780
O17   O     O_3   0.106564 0.700295 0.614280 -0.701580
O18   O     O_3   0.719297 0.266576 0.672584 -0.585102
O19   O     O_2   0.790750 0.271170 0.482550 -0.472632
O20   O     O_3   0.062300 0.331660 0.568480 -0.471638
O21   O     O_2   0.944401 0.166439 0.538726 -0.495796
O22   O     O_2   0.328242 0.299536 0.241372 -0.309813
O23   O     O_3   0.035336 0.181663 0.632106 -0.585132
O24   O     O_2   0.157662 0.168045 0.213390 -0.220311
O25   O     O_3   0.395858 0.136655 0.276260 -0.445308
O26   O     O_2   0.782508 0.835475 0.692288 -0.299796
O27   O     O_2   0.915612 0.688058 0.713641 -0.251019
O28   O     O_3   0.088956 0.836153 0.712826 -0.553560
O29   O     O_2   0.320564 0.935587 0.299500 -0.208132
O30   O     O_2   0.474308 0.891741 0.375248 -0.239051
O31   O     O_3   0.632083 0.922428 0.296396 -0.552113
O32   O     O_2   0.425377 0.289218 0.006801 -0.253864
O33   O     O_2   0.420360 0.240432 0.092317 -0.224397
O34   O     O_2   0.271610 0.450170 0.383330 -0.500210
O35   O     O_3   0.232594 0.156155 0.025972 -0.490550
O36   O     O_2   0.133492 0.064691 0.352126 -0.254082
O37   O     O_2   0.408585 0.108112 0.377946 -0.192739
O38   O     O_3   0.184587 0.136873 0.441073 -0.541390
O39   O     O_3   0.039630 0.450200 0.443530 -0.388045
O40   O     O_3   0.531440 0.620360 0.408460 -0.382980
O41   O     O_3   0.098320 0.299215 0.392366 -0.684291
O42   O     O_3   0.643350 0.612530 0.521650 -0.424995
O43   O     O_3   0.127390 0.668260 0.431510 -0.424001
P1    P     P_3+3 0.090020 0.577590 0.608380 1.026465
P2    P     P_3+3 0.614340 0.285150 0.467650 1.036707
P3    P     P_3+3 0.081787 0.210328 0.571995 0.976209
P4    P     P_3+3 0.099670 0.422330 0.391610 1.013436
P5    P     P_3+3 0.109765 0.790927 0.429801 1.087262
P6    P     P_3+3 0.648191 0.377121 0.656036 1.048447
P7    P     P_3+3 0.580306 0.728439 0.536284 0.963732
P8    P     P_3+3 0.531613 0.603431 0.343165 1.071951
S1    S     S_3+6 0.251610 0.212410 0.257171 -0.012681
S2    S     S_3+6 0.932571 0.776169 0.686760 -0.043894
S3    S     S_3+6 0.464061 0.881247 0.319215 -0.012429
S4    S     S_3+6 0.318022 0.257428 0.045938 -0.042990
S5    S     S_3+6 0.234172 0.136372 0.381168 0.003903

loop_
_geom_bond_atom_site_label_1
_geom_bond_atom_site_label_2
_ccdc_geom_bond_type
O20   P3    S    
C19   C24   A    
Ba1   O15   S    
C53   C54   A    
C2    O13   D    
O25   S1    S    
C40   S1    S    
C10   C66   A    
O23   P3    S    
C24   C25   A    
Ba2   O4    S    
C63   H5    S    
C32   H36   S    
C28   S5    S    
C17   C19   A    
C22   C24   A    
C32   C33   S    
C35   C38   A    
Ba2   O43   S    
C36   C37   A    
O3    P5    S    
C55   C57   A    
C28   H48   S    
C58   P5    S    
C53   C60   A    
C12   O18   S    
C39   H31   S    
C48   P3    S    
Ba1   Ba2   S    
C29   H27   S    
C64   H20   S    
O8    P8    D    
C22   C27   A    
C60   H46   S    
C17   C35   A    
H53   O38   S    
C9    C13   A    
C25   C42   A    
Ba1   P2    S    
C64   O9    S    
C29   C30   S    
C34   H11   S    
C6    C7    D    
C62   H57   S    
C21   C22   A    
C30   P6    S    
Ba1   O19   S    
C26   O14   D    
Ba2   P4    S    
C4    H33   S    
O29   S3    D    
C7    C8    S    
C16   H47   S    
O9    P8    S    
C43   H37   S    
C37   C43   A    
C46   P2    S    
O42   P7    S    
C64   C65   S    
C57   C58   A    
C6    C14   D    
O36   S5    D    
C45   O3    S    
C14   Cl3   S    
C15   C31   D    
C6    P4    S    
O39   P4    S    
O26   S2    D    
C31   C32   D    
C41   H32   S    
C46   C51   A    
C4    C16   S    
C3    H30   S    
Ba1   P1    S    
O17   P1    S    
C16   H14   S    
C20   H29   S    
C5    P8    S    
C49   C50   A    
C4    O23   S    
C45   H15   S    
C17   C20   A    
O38   S5    S    
C13   C39   A    
C34   H9    S    
Ba2   O34   S    
C12   H6    S    
C18   C37   A    
C44   H43   S    
C38   S4    S    
Ba2   O39   S    
O2    P5    D    
O37   S5    D    
H49   O25   S    
Ba2   O6    S    
C63   H3    S    
C15   H38   S    
C58   C59   A    
O19   P2    D    
O1    P1    D    
C45   H16   S    
C9    C36   A    
C23   O7    S    
C41   C42   A    
C35   C36   A    
C55   P7    S    
C56   H19   S    
C21   H28   S    
C27   N2    Am   
C7    H25   S    
C34   H10   S    
C57   H42   S    
C62   H56   S    
C27   O11   D    
O15   P6    S    
C48   C49   A    
Ba1   O20   S    
C54   C59   A    
C10   C11   A    
C31   P1    S    
H51   O31   S    
C33   N2    S    
C61   H54   S    
C1    C12   S    
Ba2   O40   S    
C61   H45   S    
C46   C47   A    
C4    H24   S    
O18   P6    S    
H50   O28   S    
C53   C55   A    
O40   P8    S    
C29   C33   D    
C66   O10   D    
C23   Cl1   S    
O22   S1    D    
Ba1   O4    S    
C11   C38   A    
C25   C26   A    
C18   C41   A    
C52   O17   S    
C50   C51   A    
C3    C5    S    
O28   S2    S    
C64   S3    S    
C5    C14   S    
C49   H40   S    
O21   P3    D    
O4    P1    S    
C52   H34   S    
C40   H23   S    
C12   H1    S    
C28   C40   S    
C40   H12   S    
Ba1   O1    S    
C56   H17   S    
C16   H44   S    
O32   S4    D    
C9    C10   A    
C52   S2    S    
C2    N1    Am   
C42   H35   S    
O6    P7    D    
Ba1   O42   S    
Ba2   O5    S    
C63   H4    S    
O33   S4    D    
C65   Cl2   S    
C62   C63   S    
C2    C13   A    
C8    N1    S    
C3    C8    D    
C50   C60   A    
C45   C56   S    
C59   H41   S    
O7    P7    S    
C62   O12   S    
O43   P5    S    
O31   S3    S    
O24   S1    D    
C44   C51   A    
Ba1   O39   S    
C65   H21   S    
O16   P6    D    
C26   N2    Am   
O12   P2    S    
C11   H26   S    
C66   N1    Am   
C1    H2    S    
C56   H18   S    
O35   S4    S    
C28   O41   S    
C23   H8    S    
C61   H55   S    
C23   C34   S    
H52   O35   S    
C18   C19   A    
C47   C48   A    
C52   C61   S    
C44   C54   A    
C1    H13   S    
C65   H22   S    
C15   C30   S    
C39   C43   A    
C20   C21   A    
O41   P4    S    
O27   S2    D    
Ba1   O5    S    
C1    H7    S    
O30   S3    D    
O34   P4    D    
Ba2   O42   S    
C47   H39   S    
O5    P2    S    
