data_mof_unit_3439.cif
_audit_creation_date              2012-12-11T17:04:46-0500
_audit_creation_method            fapswitch 2.2
_symmetry_space_group_name_H-M    P1
_symmetry_Int_Tables_number       1
_space_group_crystal_system       triclinic
_cell_length_a                    17.476091
_cell_length_b                    24.20678
_cell_length_c                    14.979756
_cell_angle_alpha                 90.488717
_cell_angle_beta                  126.393331
_cell_angle_gamma                 89.35334
_cell_volume                      5100.73918333

loop_
_atom_site_label
_atom_site_type_symbol
_atom_type_description
_atom_site_fract_x
_atom_site_fract_y
_atom_site_fract_z
_atom_type_partial_charge
C1    C     C_R   0.807911 0.625310 0.906098 -0.127668
C2    C     C_R   0.150443 0.652593 0.093526 -0.171264
C3    C     C_R   0.307911 0.125310 0.906098 -0.127667
C4    C     C_R   0.650443 0.152593 0.093526 -0.171261
C5    C     C_R   0.815641 0.362378 0.001831 0.038945
C6    C     C_R   0.116578 0.315703 0.998848 0.065542
C7    C     C_R   0.315641 0.862378 0.001831 0.038947
C8    C     C_R   0.616578 0.815703 0.998848 0.065539
C9    C     C_R   0.079291 0.502079 0.376697 -0.022708
C10   C     C_R   0.018729 0.499306 0.691481 -0.040549
C11   C     C_R   0.579291 0.002079 0.376697 -0.022708
C12   C     C_R   0.518729 0.999306 0.691480 -0.040548
C13   C     C_R   0.696624 0.499511 0.630324 0.109908
C14   C     C_R   0.323489 0.498148 0.265873 0.090840
C15   C     C_R   0.196625 0.999511 0.630324 0.109907
C16   C     C_R   0.823489 0.998147 0.265873 0.090841
C17   C     C_3   0.533760 0.452555 0.496167 -0.351439
C18   C     C_3   0.498704 0.450978 0.373947 -0.360186
C19   C     C_3   0.033760 0.952556 0.496168 -0.351437
C20   C     C_3   0.998704 0.950977 0.373949 -0.360184
C21   C     C_3   0.462605 0.498584 0.468425 0.702210
C22   C     C_3   0.571092 0.496601 0.401135 0.699262
C23   C     C_3   0.962605 0.998586 0.468424 0.702211
C24   C     C_3   0.071093 0.996599 0.401134 0.699258
C25   C     C_3   0.426450 0.497368 0.347149 0.011291
C26   C     C_3   0.604781 0.498316 0.521629 0.037756
C27   C     C_3   0.926451 0.997368 0.347148 0.011288
C28   C     C_3   0.104781 0.998317 0.521628 0.037757
C29   C     C_3   0.497586 0.542919 0.370901 -0.357076
C30   C     C_3   0.532011 0.544321 0.492990 -0.360816
C31   C     C_3   0.997587 0.042917 0.370898 -0.357072
C32   C     C_3   0.032012 0.044322 0.492987 -0.360814
C33   C     C_R   0.764739 0.312236 0.103488 -0.059662
C34   C     C_R   0.095168 0.222151 0.908321 -0.006056
C35   C     C_R   0.264740 0.812235 0.103489 -0.059658
C36   C     C_R   0.595169 0.722152 0.908319 -0.006056
C37   C     C_R   0.744858 0.332411 0.004223 0.054088
C38   C     C_R   0.136511 0.256255 0.002380 -0.010370
C39   C     C_R   0.244858 0.832410 0.004223 0.054088
C40   C     C_R   0.636511 0.756255 0.002379 -0.010367
C41   C     C_R   0.659171 0.315633 0.904771 -0.167910
C42   C     C_R   0.211722 0.232696 0.103797 -0.157058
C43   C     C_R   0.159170 0.815634 0.904772 -0.167915
C44   C     C_R   0.711721 0.732695 0.103795 -0.157053
C45   C     C_R   0.904158 0.377947 0.093728 -0.091272
C46   C     C_R   0.058047 0.349100 0.907199 -0.126011
C47   C     C_R   0.404158 0.877947 0.093728 -0.091251
C48   C     C_R   0.558047 0.849100 0.907199 -0.126009
C49   C     C_R   0.109710 0.770531 0.904733 -0.199277
C50   C     C_R   0.761381 0.687108 0.103886 -0.197995
C51   C     C_R   0.609711 0.270530 0.904732 -0.199276
C52   C     C_R   0.261382 0.187108 0.103887 -0.197994
C53   C     C_R   0.145140 0.742383 0.004411 0.069343
C54   C     C_R   0.737908 0.665941 0.002518 0.056397
C55   C     C_R   0.645140 0.242383 0.004410 0.069344
C56   C     C_R   0.237908 0.165941 0.002519 0.056398
C57   C     C_R   0.213548 0.769379 0.103754 0.087988
C58   C     C_R   0.647730 0.679709 0.907531 0.113811
C59   C     C_R   0.713547 0.269380 0.103753 0.087985
C60   C     C_R   0.147730 0.179708 0.907533 0.113811
C61   C     C_3   0.294750 0.749691 0.216735 -0.660512
C62   C     C_3   0.600777 0.684679 0.786243 -0.587715
C63   C     C_3   0.794747 0.249693 0.216736 -0.660498
C64   C     C_3   0.100774 0.184677 0.786244 -0.587715
C65   C     C_3   0.852095 0.296486 0.216728 0.452510
C66   C     C_3   0.036757 0.228790 0.784454 0.439945
C67   C     C_3   0.352098 0.796484 0.216726 0.452509
C68   C     C_3   0.536760 0.728792 0.784452 0.439944
C69   C     C_R   0.079741 0.552082 0.606383 0.049175
C70   C     C_R   0.111321 0.554340 0.539252 0.088980
C71   C     C_R   0.579740 0.052082 0.606382 0.049175
C72   C     C_R   0.611321 0.054340 0.539252 0.088982
C73   C     C_R   0.065464 0.500266 0.636079 -0.022430
C74   C     C_R   0.121648 0.504717 0.496915 -0.021886
C75   C     C_R   0.565464 0.000266 0.636078 -0.022430
C76   C     C_R   0.621648 0.004717 0.496915 -0.021887
C77   C     C_R   0.109718 0.453189 0.626289 -0.014154
C78   C     C_R   0.138192 0.455789 0.556034 -0.025256
C79   C     C_R   0.609717 0.953189 0.626287 -0.014153
C80   C     C_R   0.638193 0.955789 0.556034 -0.025256
C81   C     C_3   0.190155 0.593659 0.622026 -0.105869
C82   C     C_3   0.150454 0.594292 0.689189 -0.054899
C83   C     C_3   0.690155 0.093659 0.622027 -0.105876
C84   C     C_3   0.650452 0.094293 0.689188 -0.054896
C85   C     C_R   0.059016 0.546650 0.309406 0.527156
C86   C     C_R   0.991289 0.545320 0.722797 0.550102
C87   C     C_R   0.559016 0.046650 0.309406 0.527155
C88   C     C_R   0.491289 0.045320 0.722797 0.550104
C89   C     C_R   0.744622 0.454264 0.694525 -0.149476
C90   C     C_R   0.267891 0.453235 0.245993 -0.076880
C91   C     C_R   0.244622 0.954264 0.694525 -0.149473
C92   C     C_R   0.767891 0.953235 0.245992 -0.076884
C93   C     C_R   0.057044 0.455944 0.309192 -0.255856
C94   C     C_R   0.998778 0.453626 0.729989 -0.222000
C95   C     C_R   0.557044 0.955944 0.309192 -0.255858
C96   C     C_R   0.498777 0.953626 0.729989 -0.222001
C97   C     C_R   0.741396 0.545727 0.693826 -0.189211
C98   C     C_R   0.268348 0.545053 0.240061 -0.130685
C99   C     C_R   0.241397 0.045727 0.693826 -0.189213
C100  C     C_R   0.768348 0.045053 0.240060 -0.130679
C101  C     C_R   0.811397 0.375499 0.908557 -0.159158
C102  C     C_R   0.146342 0.348037 0.090556 -0.132548
C103  C     C_R   0.311397 0.875499 0.908558 -0.159167
C104  C     C_R   0.646342 0.848037 0.090556 -0.132546
C105  C     C_R   0.902085 0.625534 0.091265 -0.158979
C106  C     C_R   0.059889 0.652407 0.910263 -0.102866
C107  C     C_R   0.402085 0.125534 0.091265 -0.158978
C108  C     C_R   0.559889 0.152407 0.910263 -0.102866
C109  C     C_R   0.811540 0.639004 0.998956 0.071440
C110  C     C_R   0.122613 0.684150 0.002741 0.062261
C111  C     C_R   0.311540 0.139003 0.998956 0.071439
C112  C     C_R   0.622613 0.184150 0.002741 0.062263
H1    H     H_    0.748157 0.628950 0.820450 0.104459
H2    H     H_    0.185239 0.667382 0.176961 0.105068
H3    H     H_    0.248157 0.128950 0.820450 0.104458
H4    H     H_    0.685239 0.167382 0.176961 0.105066
H5    H     H_    0.548169 0.416063 0.548623 0.142394
H6    H     H_    0.483166 0.413527 0.322708 0.145943
H7    H     H_    0.048169 0.916065 0.548627 0.142393
H8    H     H_    0.983165 0.913525 0.322711 0.145943
H9    H     H_    0.481364 0.578781 0.316744 0.155676
H10   H     H_    0.544880 0.582021 0.542719 0.139562
H11   H     H_    0.981366 0.078779 0.316738 0.155665
H12   H     H_    0.044881 0.082024 0.542713 0.139562
H13   H     H_    0.635984 0.332445 0.825664 0.128451
H14   H     H_    0.241489 0.252970 0.182364 0.121620
H15   H     H_    0.135983 0.832446 0.825665 0.128455
H16   H     H_    0.741487 0.752969 0.182363 0.121617
H17   H     H_    0.050939 0.754599 0.825525 0.129339
H18   H     H_    0.825054 0.674593 0.182807 0.130883
H19   H     H_    0.550941 0.254598 0.825524 0.129339
H20   H     H_    0.325056 0.174594 0.182808 0.130884
H21   H     H_    0.320933 0.707684 0.217347 0.199957
H22   H     H_    0.563333 0.646228 0.740157 0.211606
H23   H     H_    0.820933 0.207686 0.217350 0.199953
H24   H     H_    0.063330 0.146225 0.740159 0.211606
H25   H     H_    0.279944 0.755946 0.278783 0.178826
H26   H     H_    0.648124 0.702451 0.767442 0.157919
H27   H     H_    0.779938 0.255948 0.278781 0.178824
H28   H     H_    0.148120 0.202449 0.767440 0.157919
H29   H     H_    0.869090 0.328715 0.279234 0.060352
H30   H     H_    0.041225 0.268551 0.751679 0.033751
H31   H     H_    0.369098 0.828712 0.279235 0.060351
H32   H     H_    0.541229 0.768553 0.751678 0.033753
H33   H     H_    0.930098 0.377144 0.179158 0.136021
H34   H     H_    0.016647 0.337993 0.821359 0.067524
H35   H     H_    0.430099 0.877143 0.179158 0.136015
H36   H     H_    0.516647 0.837994 0.821359 0.067524
H37   H     H_    0.733194 0.411723 0.666996 0.097395
H38   H     H_    0.290080 0.410422 0.262719 0.096676
H39   H     H_    0.233194 0.911723 0.666996 0.097395
H40   H     H_    0.790080 0.910422 0.262719 0.096677
H41   H     H_    0.073389 0.413443 0.335304 0.156480
H42   H     H_    0.999891 0.410636 0.712132 0.140832
H43   H     H_    0.573389 0.913443 0.335304 0.156479
H44   H     H_    0.499889 0.910636 0.712131 0.140832
H45   H     H_    0.724315 0.588039 0.666070 0.098205
H46   H     H_    0.291637 0.587102 0.249508 0.118410
H47   H     H_    0.224315 0.088039 0.666071 0.098205
H48   H     H_    0.791638 0.087101 0.249508 0.118407
H49   H     H_    0.752695 0.369403 0.822652 0.104422
H50   H     H_    0.181294 0.333960 0.174669 0.091460
H51   H     H_    0.252695 0.869403 0.822653 0.104425
H52   H     H_    0.681294 0.833959 0.174669 0.091459
H53   H     H_    0.929663 0.629542 0.176913 0.149654
H54   H     H_    0.013240 0.667234 0.826505 0.120159
H55   H     H_    0.429663 0.129541 0.176913 0.149654
H56   H     H_    0.513240 0.167234 0.826505 0.120159
N1    N     N_R   0.892620 0.603790 0.941770 -0.043911
N2    N     N_R   0.107380 0.603790 0.058230 -0.045097
N3    N     N_R   0.392620 0.103790 0.941770 -0.043912
N4    N     N_R   0.607380 0.103790 0.058230 -0.045097
N5    N     N_R   0.952270 0.397640 0.058010 -0.042466
N6    N     N_R   0.047730 0.397640 0.941990 -0.033390
N7    N     N_R   0.452270 0.897640 0.058010 -0.042467
N8    N     N_R   0.547730 0.897640 0.941990 -0.033390
N9    N     N_R   0.026310 0.529110 0.206760 -0.102076
N10   N     N_R   0.973690 0.529110 0.793240 -0.103537
N11   N     N_R   0.526310 0.029110 0.206760 -0.102076
N12   N     N_R   0.473690 0.029110 0.793240 -0.103537
N13   N     N_R   0.818570 0.472310 0.793020 -0.035194
N14   N     N_R   0.181430 0.472310 0.206980 -0.045546
N15   N     N_R   0.318570 0.972310 0.793020 -0.035194
N16   N     N_R   0.681430 0.972310 0.206980 -0.045546
N17   N     N_R   0.026930 0.472300 0.207330 -0.066205
N18   N     N_R   0.973070 0.472300 0.792670 -0.065793
N19   N     N_R   0.526930 0.972300 0.207330 -0.066206
N20   N     N_R   0.473070 0.972300 0.792670 -0.065793
N21   N     N_R   0.817960 0.529130 0.792460 -0.042506
N22   N     N_R   0.182040 0.529130 0.207540 -0.064363
N23   N     N_R   0.317960 0.029130 0.792460 -0.042506
N24   N     N_R   0.682040 0.029130 0.207540 -0.064364
N25   N     N_R   0.894850 0.397640 0.943830 -0.039213
N26   N     N_R   0.105150 0.397640 0.056170 -0.040532
N27   N     N_R   0.394850 0.897640 0.943830 -0.039213
N28   N     N_R   0.605150 0.897640 0.056170 -0.040532
N29   N     N_R   0.950040 0.603780 0.055950 -0.046816
N30   N     N_R   0.049960 0.603780 0.944050 -0.045497
N31   N     N_R   0.450040 0.103780 0.055950 -0.046816
N32   N     N_R   0.549960 0.103780 0.944050 -0.045497
Ni1   Ni    Ni4+2 0.934160 0.565860 0.869070 0.203122
Ni2   Ni    Ni4+2 0.065840 0.565860 0.130930 0.205895
Ni3   Ni    Ni4+2 0.434160 0.065860 0.869070 0.203121
Ni4   Ni    Ni4+2 0.565840 0.065860 0.130930 0.205894
Ni5   Ni    Ni4+2 0.067260 0.435560 0.132230 0.214481
Ni6   Ni    Ni4+2 0.932740 0.435560 0.867770 0.202415
Ni7   Ni    Ni4+2 0.567260 0.935560 0.132230 0.214482
Ni8   Ni    Ni4+2 0.432740 0.935560 0.867770 0.202415
O1    O     O_3   0.935630 0.279896 0.226767 -0.661970
C113  C     C_3   0.922730 0.240339 0.148551 0.237366
H57   H     H_    0.947129 0.258976 0.102095 0.122516
H58   H     H_    0.848122 0.227174 0.086528 0.107742
C114  C     C_3   0.985089 0.189777 0.210559 -0.291931
H59   H     H_    0.060950 0.202241 0.264389 0.212758
H60   H     H_    0.966952 0.172949 0.264475 0.198460
C115  C     C_3   0.971775 0.144785 0.130658 -1.036709
H61   H     H_    0.895937 0.132617 0.073991 0.278113
H62   H     H_    0.014654 0.107884 0.178143 0.260049
H63   H     H_    0.996041 0.159634 0.081524 0.276996
O2    O     O_3   0.943275 0.207887 0.728192 -0.643244
C116  C     C_3   0.888968 0.237670 0.754738 0.200988
H64   H     H_    0.818904 0.247291 0.676378 0.123093
H65   H     H_    0.918738 0.277828 0.795259 0.068089
C117  C     C_3   0.875641 0.202854 0.829197 -0.263252
H66   H     H_    0.843924 0.162883 0.788969 0.216223
H67   H     H_    0.945595 0.194389 0.908842 0.194470
C118  C     C_3   0.811718 0.231969 0.852795 -1.052441
H68   H     H_    0.848950 0.268380 0.906071 0.273031
H69   H     H_    0.795083 0.203435 0.896645 0.276496
H70   H     H_    0.744209 0.245635 0.774573 0.272402
O3    O     O_3   0.435629 0.779894 0.226756 -0.661969
C119  C     C_3   0.422724 0.740334 0.148542 0.237375
H71   H     H_    0.447120 0.758969 0.102080 0.122504
H72   H     H_    0.348115 0.727170 0.086522 0.107753
C120  C     C_3   0.485082 0.689772 0.210551 -0.291942
H73   H     H_    0.560946 0.702232 0.264350 0.212744
H74   H     H_    0.466970 0.672957 0.264498 0.198482
C121  C     C_3   0.471733 0.644768 0.130651 -1.036724
H75   H     H_    0.395894 0.632597 0.074028 0.278113
H76   H     H_    0.514627 0.607872 0.178139 0.260049
H77   H     H_    0.495958 0.659607 0.081469 0.277003
O4    O     O_3   0.443277 0.707888 0.728187 -0.643245
C122  C     C_3   0.388969 0.737670 0.754731 0.200999
H78   H     H_    0.318904 0.747290 0.676371 0.123094
H79   H     H_    0.418735 0.777830 0.795248 0.068085
C123  C     C_3   0.375645 0.702855 0.829193 -0.263262
H80   H     H_    0.343932 0.662882 0.788970 0.216226
H81   H     H_    0.445599 0.694393 0.908840 0.194460
C124  C     C_3   0.311717 0.731969 0.852787 -1.052449
H82   H     H_    0.348945 0.768381 0.906060 0.273032
H83   H     H_    0.295084 0.703434 0.896640 0.276502
H84   H     H_    0.244207 0.745632 0.774563 0.272404
C125  C     C_1   0.131996 0.403646 0.691410 0.068745
N33   N     N_1   0.150792 0.363938 0.743414 -0.103342
C126  C     C_1   0.184344 0.408808 0.545271 0.054398
N34   N     N_1   0.221361 0.371215 0.537124 -0.095483
C127  C     C_1   0.631992 0.903645 0.691405 0.068743
N35   N     N_1   0.650784 0.863935 0.743405 -0.103345
C128  C     C_1   0.684346 0.908809 0.545272 0.054398
N36   N     N_1   0.721364 0.871216 0.537126 -0.095483
C129  C     C_1   0.182959 0.647789 0.572214 0.144519
N37   N     N_1   0.175804 0.690602 0.534090 -0.104967
C130  C     C_1   0.213869 0.573547 0.804732 0.076495
N38   N     N_1   0.263159 0.557351 0.894849 -0.091126
C131  C     C_1   0.682962 0.147789 0.572215 0.144519
N39   N     N_1   0.675808 0.190602 0.534093 -0.104965
C132  C     C_1   0.713867 0.073548 0.804732 0.076488
N40   N     N_1   0.763156 0.057353 0.894850 -0.091128
C133  C     C_1   0.286669 0.569476 0.682638 0.041713
N41   N     N_1   0.362529 0.550941 0.733297 -0.092485
C134  C     C_1   0.108593 0.648280 0.687327 0.198276
N42   N     N_1   0.076372 0.690690 0.685462 -0.109285
C135  C     C_1   0.786669 0.069474 0.682640 0.041717
N43   N     N_1   0.862529 0.050939 0.733300 -0.092484
C136  C     C_1   0.608591 0.148280 0.687324 0.198276
N44   N     N_1   0.576370 0.190691 0.685457 -0.109286
O5    O     O_3   0.079520 0.600839 0.346996 -0.691302
C137  C     C_3   0.147380 0.624809 0.336713 0.131821
H85   H     H_    0.145069 0.670048 0.347362 0.149836
H86   H     H_    0.128176 0.620630 0.253183 0.096454
C138  C     C_3   0.249128 0.603321 0.424415 -0.304202
H87   H     H_    0.260958 0.595268 0.503169 0.224064
H88   H     H_    0.260056 0.562666 0.400443 0.228561
C139  C     C_3   0.324865 0.644061 0.446871 -0.939333
H89   H     H_    0.315511 0.655098 0.369403 0.240801
H90   H     H_    0.396479 0.625371 0.505353 0.275113
H91   H     H_    0.320664 0.682401 0.485074 0.281888
O6    O     O_3   0.974416 0.597515 0.678751 -0.695042
C140  C     C_3   0.881495 0.616461 0.633310 0.103677
H92   H     H_    0.881188 0.661843 0.622635 0.144531
H93   H     H_    0.861869 0.610717 0.690551 0.092130
C141  C     C_3   0.809438 0.590445 0.519081 -0.257828
H94   H     H_    0.839366 0.589941 0.471093 0.211397
H95   H     H_    0.796051 0.547129 0.529794 0.219905
C142  C     C_3   0.715818 0.622824 0.453311 -0.966023
H96   H     H_    0.681856 0.622680 0.496574 0.262235
H97   H     H_    0.666469 0.603761 0.370365 0.282637
H98   H     H_    0.728151 0.666191 0.441485 0.252619
O7    O     O_3   0.579520 0.100839 0.346996 -0.691302
C143  C     C_3   0.647380 0.124809 0.336713 0.131820
H99   H     H_    0.645070 0.170048 0.347363 0.149837
H100  H     H_    0.628176 0.120630 0.253183 0.096453
C144  C     C_3   0.749128 0.103321 0.424416 -0.304198
H101  H     H_    0.760958 0.095267 0.503169 0.224062
H102  H     H_    0.760055 0.062665 0.400442 0.228562
C145  C     C_3   0.824866 0.144061 0.446872 -0.939331
H103  H     H_    0.815511 0.155098 0.369404 0.240801
H104  H     H_    0.896479 0.125370 0.505353 0.275112
H105  H     H_    0.820665 0.182400 0.485077 0.281889
O8    O     O_3   0.474416 0.097515 0.678751 -0.695043
C146  C     C_3   0.381495 0.116461 0.633310 0.103678
H106  H     H_    0.381187 0.161842 0.622633 0.144532
H107  H     H_    0.361870 0.110717 0.690552 0.092129
C147  C     C_3   0.309438 0.090444 0.519083 -0.257830
H108  H     H_    0.339365 0.089938 0.471094 0.211398
H109  H     H_    0.296051 0.047128 0.529798 0.219903
C148  C     C_3   0.215818 0.122822 0.453311 -0.966026
H110  H     H_    0.181857 0.122681 0.496576 0.262233
H111  H     H_    0.166468 0.103757 0.370368 0.282638
H112  H     H_    0.228151 0.166189 0.441480 0.252621
O9    O     O_3   0.405517 0.498693 0.506175 -0.683125
C149  C     C_3   0.464048 0.498574 0.623790 0.141152
H113  H     H_    0.449656 0.537109 0.651782 0.139741
H114  H     H_    0.542129 0.498623 0.664424 0.099684
C150  C     C_3   0.441029 0.448192 0.664562 -0.254906
H115  H     H_    0.367863 0.452573 0.640807 0.215101
H116  H     H_    0.444159 0.410346 0.624254 0.196712
C151  C     C_3   0.511103 0.441565 0.790237 -0.998074
H117  H     H_    0.584245 0.434788 0.814804 0.263237
H118  H     H_    0.491002 0.405322 0.816960 0.278137
H119  H     H_    0.510522 0.478876 0.833395 0.277457
O10   O     O_3   0.636240 0.495349 0.374692 -0.683998
C152  C     C_3   0.588621 0.489252 0.259086 0.152697
H120  H     H_    0.614415 0.522116 0.231883 0.130530
H121  H     H_    0.509693 0.494053 0.208365 0.094668
C153  C     C_3   0.614040 0.433045 0.235287 -0.280861
H122  H     H_    0.692598 0.429134 0.283811 0.207722
H123  H     H_    0.588367 0.399608 0.261539 0.191779
C154  C     C_3   0.569844 0.426009 0.112228 -0.990336
H124  H     H_    0.491105 0.428645 0.062084 0.272292
H125  H     H_    0.589980 0.384951 0.098049 0.271785
H126  H     H_    0.595908 0.458462 0.084547 0.269897
O11   O     O_3   0.905518 0.998697 0.506174 -0.683126
C155  C     C_3   0.964048 0.998579 0.623789 0.141151
H127  H     H_    0.949651 0.037113 0.651780 0.139743
H128  H     H_    0.042129 0.998633 0.664424 0.099685
C156  C     C_3   0.941036 0.948195 0.664563 -0.254909
H129  H     H_    0.867870 0.952572 0.640810 0.215100
H130  H     H_    0.944170 0.910350 0.624255 0.196710
C157  C     C_3   0.011113 0.941568 0.790238 -0.998076
H131  H     H_    0.084254 0.934794 0.814803 0.263238
H132  H     H_    0.991016 0.905324 0.816962 0.278137
H133  H     H_    0.010529 0.978879 0.833396 0.277458
O12   O     O_3   0.136240 0.995345 0.374691 -0.683997
C158  C     C_3   0.088620 0.989250 0.259084 0.152700
H134  H     H_    0.114415 0.022114 0.231883 0.130528
H135  H     H_    0.009692 0.994052 0.208364 0.094667
C159  C     C_3   0.114036 0.933043 0.235281 -0.280859
H136  H     H_    0.192594 0.929130 0.283805 0.207723
H137  H     H_    0.088360 0.899606 0.261531 0.191780
C160  C     C_3   0.069839 0.926010 0.112221 -0.990335
H138  H     H_    0.991101 0.928646 0.062077 0.272292
H139  H     H_    0.089973 0.884951 0.098039 0.271785
H140  H     H_    0.095905 0.958463 0.084543 0.269896

loop_
_geom_bond_atom_site_label_1
_geom_bond_atom_site_label_2
_ccdc_geom_bond_type
C149  H114  S    
C63   C65   S    
C22   C29   S    
C55   C59   A    
C19   C20   S    
C115  H63   S    
N7    Ni7   S    
C98   N22   A    
C67   H31   S    
C61   H21   S    
C144  H102  S    
C152  H120  S    
C138  C139  S    
C106  H54   S    
C139  H89   S    
C5    C37   S    
C11   C76   S    
C149  C150  S    
C10   C94   A    
C134  N42   T    
C86   N10   A    
C159  C160  S    
C20   C24   S    
C14   C90   A    
C121  H75   S    
C2    C110  A    
C30   H10   S    
C70   C74   A    
C46   N6    A    
C18   H6    S    
N26   Ni5   S    
C105  N29   A    
C67   O3    S    
C33   C59   A    
C34   C60   A    
C18   C25   S    
C1    H1    S    
C102  N26   A    
N7    N27   A    
C114  H60   S    
C25   C29   S    
C160  H140  S    
C5    C101  A    
C27   C31   S    
C52   H20   S    
C41   H13   S    
C28   C32   S    
C43   H15   S    
C51   H19   S    
C147  H108  S    
C77   C78   A    
C17   C21   S    
C84   C132  S    
C64   C66   S    
C148  H112  S    
C19   C23   S    
C45   N5    A    
C118  H68   S    
C119  H72   S    
C145  H103  S    
N24   Ni4   S    
C8    C104  A    
N6    N26   A    
N31   Ni4   S    
C85   O5    S    
C20   H8    S    
C143  H99   S    
C64   H28   S    
C152  C153  S    
C44   C50   A    
C63   H27   S    
C139  H91   S    
C16   C100  A    
C153  H122  S    
C104  H52   S    
C36   C68   S    
C57   C61   S    
C59   C63   S    
C62   C68   S    
C60   C64   S    
N8    Ni8   S    
C93   H41   S    
C2    H2    S    
C46   H34   S    
C49   C53   A    
C141  H95   S    
C51   C55   A    
C6    C102  A    
C13   C97   A    
C157  H131  S    
N2    Ni2   S    
C42   H14   S    
C15   C91   A    
N10   N18   A    
O9    C149  S    
C12   C75   S    
N19   Ni7   S    
N6    Ni6   S    
C7    C39   S    
N14   N22   A    
C75   C79   A    
C41   C51   A    
C42   C52   A    
C64   H24   S    
C81   C129  S    
C99   H47   S    
C90   H38   S    
N12   Ni3   S    
C34   C66   S    
C142  H97   S    
C96   H44   S    
C124  H82   S    
C116  H64   S    
N16   Ni7   S    
C45   H33   S    
C78   C126  S    
C115  H62   S    
C129  N37   T    
C148  H111  S    
C127  N35   T    
C150  H116  S    
C69   C82   S    
C21   O9    S    
N27   Ni8   S    
C31   C32   S    
C11   C87   A    
C6    C38   S    
C24   C28   S    
C143  C144  S    
C16   C27   S    
C97   N21   A    
C108  H56   S    
C7    C103  A    
O5    C137  S    
C100  N24   A    
C153  C154  S    
O2    C116  S    
C14   C98   A    
C47   H35   S    
N18   Ni6   S    
C79   C127  S    
C77   C125  S    
O10   C152  S    
C92   N16   A    
N22   Ni2   S    
C82   C134  S    
C29   C30   S    
C65   H29   S    
C61   C67   S    
C83   C84   S    
C35   C67   S    
C122  C123  S    
C97   H45   S    
C17   C18   S    
N29   Ni2   S    
C80   C128  S    
C159  H137  S    
C19   C28   S    
C24   O12   S    
C158  H135  S    
C26   C30   S    
C113  H58   S    
C146  H107  S    
C74   C78   A    
C120  C121  S    
C13   C26   S    
C9    C74   S    
N1    N29   A    
C158  H134  S    
C21   C25   S    
C123  H80   S    
C10   C86   A    
C124  H84   S    
C73   C77   A    
C4    N4    A    
C118  H69   S    
C18   C22   S    
C107  C111  A    
C94   N18   A    
C151  H117  S    
C132  N40   T    
C138  H88   S    
C113  C114  S    
C8    C40   S    
C139  H90   S    
N13   Ni6   S    
C71   C72   A    
C23   O11   S    
C156  C157  S    
C107  N31   A    
C68   H32   S    
C37   C41   A    
C40   C44   A    
C154  H126  S    
C155  H127  S    
O12   C158  S    
N10   Ni1   S    
C137  H85   S    
C83   C135  S    
C47   N7    A    
C126  N34   T    
C48   N8    A    
C123  C124  S    
C58   C62   S    
C91   N15   A    
C136  N44   T    
C107  H55   S    
O11   C155  S    
C117  H66   S    
C95   N19   A    
C130  N38   T    
C114  H59   S    
C160  H139  S    
C121  H77   S    
C50   C54   A    
N23   Ni3   S    
C116  C117  S    
C69   C70   A    
C54   C58   A    
C10   C73   S    
N11   N19   A    
C147  H109  S    
C122  H78   S    
C140  C141  S    
N9    N17   A    
N4    Ni4   S    
C32   H12   S    
C66   O2    S    
N12   N20   A    
C1    C109  A    
N13   N21   A    
C98   H46   S    
C3    C111  A    
C137  C138  S    
C29   H9    S    
C145  H104  S    
C120  H73   S    
N16   N24   A    
C69   C73   A    
C56   C111  S    
C17   H5    S    
C106  N30   A    
C147  C148  S    
C89   H37   S    
C149  H113  S    
C19   H7    S    
C133  N41   T    
C103  N27   A    
C151  H119  S    
C101  N25   A    
C88   N12   A    
C144  C145  S    
C121  H76   S    
C152  H121  S    
C145  H105  S    
C76   C80   A    
C153  H123  S    
C156  H129  S    
C53   C57   A    
C157  H133  S    
C5    C45   A    
C33   C37   A    
C56   C60   A    
C117  H67   S    
C7    C47   A    
C35   C39   A    
O7    C143  S    
C8    C48   A    
C154  H124  S    
C155  C156  S    
C83   C131  S    
C102  H50   S    
C81   C133  S    
O4    C122  S    
C104  N28   A    
C62   H26   S    
C157  H132  S    
C2    N2    A    
C16   C92   A    
N5    N25   A    
C117  C118  S    
C142  H96   S    
C114  C115  S    
O8    C146  S    
N20   Ni8   S    
C103  H51   S    
C4    H4    S    
C66   H30   S    
C20   C27   S    
C21   C30   S    
C35   C57   A    
C23   C32   S    
C24   C31   S    
C3    H3    S    
C99   N23   A    
C61   H25   S    
C15   C28   S    
C125  N33   T    
C105  C109  A    
C119  H71   S    
C105  H53   S    
C14   C25   S    
N3    Ni3   S    
C150  H115  S    
C72   C83   S    
N1    Ni1   S    
C108  C112  A    
C85   N9    A    
C22   C26   S    
C84   C136  S    
C12   C96   A    
N5    Ni5   S    
C89   N13   A    
C93   N17   A    
C53   C110  S    
C71   C75   A    
C146  H106  S    
C55   C112  S    
C96   N20   A    
C72   C76   A    
C81   C82   S    
C33   C65   S    
C17   C26   S    
C141  H94   S    
C38   C42   A    
C36   C58   A    
C70   C81   S    
N3    N31   A    
C50   H18   S    
C90   N14   A    
C68   O4    S    
C122  H79   S    
C92   H40   S    
N4    N32   A    
C23   C27   S    
C143  H100  S    
C131  N39   T    
C65   O1    S    
C9    C85   A    
C4    C112  A    
C144  H101  S    
N15   Ni8   S    
C120  H74   S    
C148  H110  S    
C142  H98   S    
O1    C113  S    
C123  H81   S    
C124  H83   S    
N17   Ni5   S    
C36   C40   A    
C115  H61   S    
C151  H118  S    
C43   C49   A    
C39   C43   A    
N21   Ni1   S    
C138  H87   S    
C49   H17   S    
C119  C120  S    
C54   C109  S    
C63   H23   S    
C108  N32   A    
C150  C151  S    
C156  H130  S    
C100  H48   S    
C22   O10   S    
C94   H42   S    
C158  C159  S    
N30   Ni1   S    
C135  N43   T    
N8    N28   A    
C154  H125  S    
C155  H128  S    
C137  H86   S    
C128  N36   T    
C9    C93   A    
N2    N30   A    
C140  H92   S    
C71   C84   S    
C106  C110  A    
C11   C95   A    
C44   H16   S    
N25   Ni6   S    
C6    C46   A    
C13   C89   A    
C34   C38   A    
C86   O6    S    
C141  C142  S    
C15   C99   A    
N15   N23   A    
C160  H138  S    
C88   O8    S    
N14   Ni5   S    
C87   O7    S    
O6    C140  S    
C62   H22   S    
N28   Ni7   S    
C101  H49   S    
C31   H11   S    
C116  H65   S    
C91   H39   S    
C3    N3    A    
N32   Ni3   S    
C48   H36   S    
C1    N1    A    
C140  H93   S    
C95   H43   S    
C159  H136  S    
C87   N11   A    
C79   C80   A    
C118  H70   S    
N11   Ni4   S    
C113  H57   S    
C146  C147  S    
O3    C119  S    
N9    Ni2   S    
C12   C88   A    
C52   C56   A    
C82   C130  S    
