data_mof_unit_3312.cif
_audit_creation_date              2012-12-10T16:46:41-0500
_audit_creation_method            fapswitch 2.2
_symmetry_space_group_name_H-M    P1
_symmetry_Int_Tables_number       1
_space_group_crystal_system       triclinic
_cell_length_a                    15.832713
_cell_length_b                    8.715796
_cell_length_c                    7.580829
_cell_angle_alpha                 103.411736
_cell_angle_beta                  94.99893
_cell_angle_gamma                 90.698604
_cell_volume                      1013.14748894

loop_
_atom_site_label
_atom_site_type_symbol
_atom_type_description
_atom_site_fract_x
_atom_site_fract_y
_atom_site_fract_z
_atom_type_partial_charge
C1    C     C_R   0.497573 0.200178 0.453354 0.875450
C2    C     C_3   0.960987 0.380772 0.613728 0.162803
C3    C     C_3   0.916577 0.493290 0.501585 -0.245420
C4    C     C_3   0.947748 0.674639 0.566490 0.521730
C5    C     C_3   0.048542 0.684206 0.587302 0.104956
C6    C     C_1   0.823944 0.480988 0.496811 0.176351
C7    C     C_1   0.176392 0.524404 0.508275 0.148628
C8    C     C_1   0.251833 0.518994 0.505913 -0.058376
C9    C     C_2   0.496370 0.031844 0.427936 -0.320611
C10   C     C_2   0.503616 0.968160 0.572073 -0.317112
C11   C     C_R   0.340929 0.506161 0.502097 0.812497
C12   C     C_R   0.502421 0.799823 0.546648 0.882839
C13   C     C_R   0.659087 0.494083 0.497979 0.809900
C14   C     C_3   0.059584 0.402502 0.631107 0.137723
C15   C     C_3   0.042738 0.449353 0.313397 -0.403294
C16   C     C_3   0.944559 0.429463 0.308042 0.153349
C17   C     C_1   0.748309 0.483501 0.495231 -0.050165
C18   C     C_3   0.084140 0.516031 0.511594 -0.200689
Cu1   Cu    Cu3+1 0.509300 0.517380 0.684380 1.008639
Cu2   Cu    Cu3+1 0.490700 0.482620 0.315620 1.010866
H1    H     H_    0.946928 0.259781 0.534605 0.229978
H2    H     H_    0.081797 0.457742 0.773353 0.199041
H3    H     H_    0.489496 0.959915 0.289289 0.185741
H4    H     H_    0.510487 0.040088 0.710720 0.185120
H5    H     H_    0.435205 0.377281 0.949331 0.233088
H6    H     H_    0.564790 0.622725 0.050666 0.240940
H7    H     H_    0.058345 0.531120 0.227092 0.237931
H8    H     H_    0.069745 0.334733 0.251769 0.289877
H9    H     H_    0.915419 0.497541 0.216961 0.268000
H10   H     H_    0.070524 0.759273 0.499501 0.197279
N1    N     N_2   0.476670 0.456430 0.038530 -0.211427
N2    N     N_2   0.523330 0.543570 0.961470 -0.208681
O1    O     O_R   0.506050 0.286130 0.619770 -0.586376
O2    O     O_R   0.490330 0.256780 0.308370 -0.576632
O3    O     O_R   0.387300 0.514690 0.655770 -0.581512
O4    O     O_R   0.371580 0.485340 0.344370 -0.564189
O5    O     O_R   0.509670 0.743220 0.691630 -0.573453
O6    O     O_R   0.493950 0.713870 0.380230 -0.585255
O7    O     O_R   0.628420 0.514660 0.655630 -0.569647
O8    O     O_R   0.612700 0.485310 0.344230 -0.570832
S1    S     S_3+6 0.918842 0.362804 0.818285 0.074065
O9    O     O_2   0.851115 0.233762 0.775319 -0.222317
O10   O     O_2   0.990790 0.314665 0.933190 -0.217530
O11   O     O_3   0.876874 0.528337 0.930691 -0.456784
H11   H     H_    0.814572 0.510452 0.907705 0.376229
S2    S     S_3+6 0.906442 0.789903 0.404542 0.078807
O12   O     O_2   0.966140 0.792271 0.261464 -0.201806
O13   O     O_2   0.821695 0.723983 0.310693 -0.319119
O14   O     O_3   0.892382 0.976517 0.515995 -0.389755
H12   H     H_    0.848185 0.016528 0.439018 0.393985
S3    S     S_3+6 0.114748 0.215704 0.587950 0.072351
O15   O     O_2   0.054109 0.077365 0.560470 -0.131805
O16   O     O_2   0.163976 0.191685 0.423421 -0.303215
O17   O     O_3   0.182923 0.215534 0.770865 -0.463408
H13   H     H_    0.224958 0.301857 0.775659 0.334316
Cl1   Cl    Cl    0.905662 0.228978 0.206306 -0.428977
S4    S     S_3+6 0.097111 0.785689 0.813489 0.107433
O18   O     O_2   0.073322 0.706258 0.958948 -0.243396
O19   O     O_2   0.192049 0.791891 0.814703 -0.285056
O20   O     O_3   0.064087 0.971918 0.866740 -0.325666
H14   H     H_    0.090291 0.017235 0.991865 0.412121
Cl2   Cl    Cl    0.902451 0.771112 0.771439 -0.309532

loop_
_geom_bond_atom_site_label_1
_geom_bond_atom_site_label_2
_ccdc_geom_bond_type
H5    N1    S    
C15   C18   S    
S3    O16   D    
C16   Cl1   S    
H6    N2    S    
C7    C18   S    
C13   C17   S    
S3    O17   S    
Cu2   O6    S    
S1    O9    D    
C14   C18   S    
C15   H7    S    
N1    N2    D    
C5    S4    S    
C3    C6    S    
Cu2   O2    S    
C14   H2    S    
C2    H1    S    
C11   O3    A    
C2    C3    S    
S4    O18   D    
C1    O1    A    
C7    C8    T    
C4    S2    S    
S1    O10   D    
S2    O14   S    
C15   H8    S    
C10   C12   S    
O20   H14   S    
C8    C11   S    
C2    C14   S    
Cu1   N2    S    
Cu1   O7    S    
C11   O4    A    
C1    O2    A    
O14   H12   S    
C14   S3    S    
C12   O6    A    
Cu2   O8    S    
S1    O11   S    
S2    O13   D    
S4    O19   D    
C13   O7    A    
C15   C16   S    
C3    C16   S    
C2    S1    S    
S3    O15   D    
Cu2   O4    S    
C4    Cl2   S    
C1    C9    S    
O11   H11   S    
C5    H10   S    
C9    C10   D    
C12   O5    A    
C6    C17   T    
S2    O12   D    
C9    H3    S    
S4    O20   S    
Cu1   O3    S    
C5    C18   S    
Cu1   O5    S    
C10   H4    S    
C16   H9    S    
O17   H13   S    
C3    C4    S    
Cu1   Cu2   S    
Cu1   O1    S    
C4    C5    S    
C13   O8    A    
Cu2   N1    S    
