data_mof_unit_4730.cif
_audit_creation_date              2012-12-11T14:22:55-0500
_audit_creation_method            fapswitch 2.2
_symmetry_space_group_name_H-M    P1
_symmetry_Int_Tables_number       1
_space_group_crystal_system       triclinic
_cell_length_a                    11.008853
_cell_length_b                    10.938351
_cell_length_c                    18.826246
_cell_angle_alpha                 90.841908
_cell_angle_beta                  90.036429
_cell_angle_gamma                 61.177559
_cell_volume                      1985.91918519

loop_
_atom_site_label
_atom_site_type_symbol
_atom_type_description
_atom_site_fract_x
_atom_site_fract_y
_atom_site_fract_z
_atom_type_partial_charge
C1    C     C_R   0.288103 0.623497 0.616469 0.554745
C2    C     C_3   0.659230 0.563239 0.798837 0.229003
C3    C     C_3   0.703769 0.674599 0.811462 0.055929
C4    C     C_3   0.676122 0.648970 0.674981 -0.003296
C5    C     C_3   0.818364 0.643232 0.689363 -0.072863
C6    C     C_3   0.662095 0.535242 0.718687 -0.184228
C7    C     C_R   0.698465 0.136351 0.818931 0.026045
C8    C     C_R   0.802992 0.149490 0.781027 0.022532
C9    C     C_R   0.796673 0.154410 0.705267 -0.049860
C10   C     C_R   0.590930 0.129134 0.707444 -0.170226
C11   C     C_R   0.593339 0.129293 0.780012 -0.156598
C12   C     C_R   0.655131 0.623204 0.599963 0.557145
C13   C     C_R   0.910849 0.161969 0.815183 -0.020107
C14   C     C_R   0.008056 0.179821 0.775811 -0.042386
C15   C     C_R   0.004935 0.177453 0.701990 0.303479
C16   C     C_R   0.904698 0.158258 0.667310 -0.082049
C17   C     C_R   0.681967 0.156203 0.669661 -0.000279
C18   C     C_R   0.210181 0.656796 0.843241 -0.011912
C19   C     C_R   0.241104 0.530270 0.809427 -0.036912
C20   C     C_R   0.257946 0.516699 0.734147 -0.035610
C21   C     C_R   0.242103 0.748710 0.733192 0.057409
C22   C     C_R   0.228273 0.756706 0.806456 0.381112
C23   C     C_R   0.630922 0.224390 0.601077 0.525593
C24   C     C_R   0.253821 0.417462 0.850094 -0.064591
C25   C     C_R   0.262493 0.299810 0.817775 -0.132780
C26   C     C_R   0.268987 0.287865 0.744583 -0.122743
C27   C     C_R   0.270183 0.391937 0.703118 -0.091102
C28   C     C_R   0.257218 0.629756 0.694706 -0.056402
C29   C     C_R   0.660711 0.684582 0.172671 -0.010672
C30   C     C_R   0.704991 0.551132 0.199625 -0.017518
C31   C     C_R   0.743164 0.528464 0.271470 0.008219
C32   C     C_R   0.649305 0.776055 0.293659 0.036652
C33   C     C_R   0.638134 0.795439 0.219884 -0.133866
C34   C     C_R   0.221411 0.647606 0.401257 0.577209
C35   C     C_R   0.742395 0.435577 0.153430 0.454614
C36   C     C_R   0.855951 0.309465 0.169852 0.396002
C37   C     C_R   0.911970 0.289343 0.237586 -0.200130
C38   C     C_R   0.852770 0.394813 0.288962 -0.150788
C39   C     C_R   0.684053 0.644536 0.320246 0.096639
C40   C     C_R   0.654156 0.162313 0.175528 0.051091
C41   C     C_R   0.520588 0.234383 0.204996 0.011055
C42   C     C_R   0.507358 0.215819 0.277779 0.040517
C43   C     C_R   0.757676 0.117165 0.292157 -0.171825
C44   C     C_R   0.769687 0.098766 0.220043 -0.160794
C45   C     C_R   0.649109 0.623125 0.393998 0.595657
C46   C     C_R   0.400202 0.311059 0.163598 0.111359
C47   C     C_R   0.271035 0.339092 0.190522 -0.166416
C48   C     C_R   0.261722 0.291463 0.257124 -0.120016
C49   C     C_R   0.377548 0.230683 0.300958 0.404013
C50   C     C_R   0.627172 0.178292 0.322047 0.053158
C51   C     C_R   0.049806 0.740483 0.195222 -0.035489
C52   C     C_R   0.125618 0.802965 0.225846 -0.030487
C53   C     C_R   0.208652 0.733674 0.281880 0.035139
C54   C     C_R   0.064651 0.628001 0.307720 0.049948
C55   C     C_R   0.016032 0.656081 0.237681 -0.113042
C56   C     C_R   0.612291 0.230726 0.394484 0.572654
C57   C     C_R   0.134845 0.921180 0.200547 -0.114084
C58   C     C_R   0.232762 0.954694 0.226987 -0.183167
C59   C     C_R   0.331202 0.863962 0.272765 -0.063874
C60   C     C_R   0.329217 0.742535 0.291441 0.415052
C61   C     C_R   0.166122 0.664166 0.329271 0.024842
C62   C     C_R   0.705238 0.097508 0.894549 0.553842
C63   C     C_R   0.726187 0.688828 0.887773 0.632379
C64   C     C_R   0.124815 0.703248 0.908458 0.557918
C65   C     C_R   0.675785 0.108454 0.103383 0.613250
C66   C     C_R   0.698874 0.694562 0.099286 0.596615
C67   C     C_3   0.589577 0.813707 0.780061 0.175239
C68   C     C_R   0.023485 0.750916 0.118743 0.524388
C69   C     C_3   0.564237 0.793624 0.701591 -0.239539
C70   C     C_3   0.842475 0.634692 0.770657 -0.268296
Cr1   Cr    Cr6+3 0.392940 0.397950 0.502230 1.080286
Cr2   Cr    Cr6+3 0.398400 0.708500 0.501260 1.079709
Cr3   Cr    Cr6+3 0.708640 0.393530 0.496460 1.044208
Cr4   Cr    Cr6+3 0.937880 0.938320 0.007620 1.119371
Cr5   Cr    Cr6+3 0.625560 0.937220 0.994510 1.078056
Cr6   Cr    Cr6+3 0.938080 0.625010 0.001190 1.044597
H1    H     H_    0.629316 0.888099 0.783575 0.123983
H2    H     H_    0.750658 0.431342 0.706050 0.192645
H3    H     H_    0.922729 0.528031 0.785827 0.197459
H4    H     H_    0.509804 0.118100 0.680746 0.142083
H5    H     H_    0.917129 0.168169 0.872096 0.204389
H6    H     H_    0.514761 0.113343 0.805357 0.178677
H7    H     H_    0.088057 0.191271 0.802989 0.151319
H8    H     H_    0.917473 0.140507 0.610595 0.174890
H9    H     H_    0.259562 0.418253 0.907457 0.141072
H10   H     H_    0.271649 0.214393 0.849781 0.154846
H11   H     H_    0.284839 0.191460 0.720252 0.202303
H12   H     H_    0.278047 0.369149 0.647483 0.196617
H13   H     H_    0.617627 0.895620 0.199390 0.147836
H14   H     H_    0.000477 0.192061 0.251194 0.126035
H15   H     H_    0.463017 0.799037 0.696107 0.217884
H16   H     H_    0.906607 0.372987 0.338894 0.188657
H17   H     H_    0.849840 0.080181 0.324549 0.127801
H18   H     H_    0.870209 0.032672 0.198938 0.148484
H19   H     H_    0.178945 0.391959 0.158427 0.150952
H20   H     H_    0.163944 0.301592 0.274967 0.139614
H21   H     H_    0.067338 0.991928 0.161893 0.225912
H22   H     H_    0.951355 0.614562 0.216978 0.136848
H23   H     H_    0.563560 0.877896 0.669029 0.096188
H24   H     H_    0.235580 0.047324 0.209837 0.144706
H25   H     H_    0.402436 0.892643 0.295004 0.169217
H26   H     H_    0.883029 0.706900 0.786161 0.084917
H27   H     H_    0.811472 0.742792 0.670748 0.140071
H28   H     H_    0.552299 0.601068 0.819843 0.191537
H29   H     H_    0.566050 0.531235 0.703984 0.080517
O1    O     O_R   0.507340 0.255690 0.581430 -0.533553
O2    O     O_R   0.524510 0.695820 0.424050 -0.449306
O3    O     O_R   0.736370 0.504260 0.414810 -0.527807
O4    O     O_R   0.691220 0.277270 0.422180 -0.505306
O5    O     O_3   0.499990 0.499990 0.499980 -0.273585
O6    O     O_R   0.089570 0.825450 0.930590 -0.423506
O7    O     O_R   0.818700 0.054260 0.929860 -0.494360
O8    O     O_R   0.606310 0.077010 0.915520 -0.520730
O9    O     O_R   0.646730 0.806540 0.917560 -0.449483
O10   O     O_R   0.837290 0.593240 0.915240 -0.460490
O11   O     O_R   0.065320 0.635310 0.931580 -0.538330
O12   O     O_R   0.280360 0.527380 0.578910 -0.534183
O13   O     O_R   0.068470 0.828620 0.091850 -0.505807
O14   O     O_R   0.799150 0.057200 0.079350 -0.461466
O15   O     O_R   0.585220 0.080180 0.076770 -0.523622
O16   O     O_R   0.627170 0.809480 0.067050 -0.498749
O17   O     O_R   0.816200 0.596410 0.076500 -0.479621
O18   O     O_R   0.045770 0.638240 0.081070 -0.521707
O19   O     O_3   0.833840 0.833520 0.001110 -0.332289
O20   O     O_R   0.260600 0.739610 0.584580 -0.478184
O21   O     O_R   0.532370 0.695050 0.573830 -0.528243
O22   O     O_R   0.744850 0.503430 0.576380 -0.475189
O23   O     O_R   0.699080 0.276500 0.571950 -0.527166
O24   O     O_R   0.498860 0.256520 0.419860 -0.435646
O25   O     O_R   0.272490 0.528150 0.429140 -0.482853
O26   O     O_R   0.252110 0.740440 0.423010 -0.492924
N1    N     N_3   0.934054 0.529674 0.650812 -0.577406
H30   H     H_    0.964045 0.435645 0.676254 0.295560
H31   H     H_    0.017666 0.549626 0.651732 0.239801
F1    F     F_    0.105409 0.181889 0.662651 -0.684751
N2    N     N_3   0.224966 0.869796 0.696723 -0.563511
H32   H     H_    0.124758 0.916446 0.676634 0.252620
H33   H     H_    0.236413 0.940603 0.729985 0.321232
F2    F     F_    0.465811 0.866977 0.817723 -0.604787
F3    F     F_    0.217976 0.871543 0.840969 -0.587638
N3    N     N_3   0.629422 0.889287 0.340011 -0.614092
H34   H     H_    0.552748 0.906329 0.377486 0.277257
H35   H     H_    0.721852 0.859316 0.367477 0.223127
F4    F     F_    0.683957 0.450348 0.088277 -0.568943
F5    F     F_    0.916358 0.210986 0.118245 -0.626473
N4    N     N_3   0.408575 0.363939 0.095577 -0.548129
H36   H     H_    0.351054 0.472830 0.098404 0.264436
H37   H     H_    0.361109 0.329440 0.058145 0.236980
F6    F     F_    0.364724 0.169358 0.360522 -0.636318
N5    N     N_3   0.011511 0.563213 0.354769 -0.648450
H38   H     H_    0.967162 0.629636 0.398750 0.227828
H39   H     H_    0.093843 0.470260 0.372673 0.266680
F7    F     F_    0.440866 0.630454 0.316879 -0.646715
F8    F     F_    0.745345 0.442286 0.833946 -0.654387

loop_
_geom_bond_atom_site_label_1
_geom_bond_atom_site_label_2
_ccdc_geom_bond_type
Cr4   O19   S    
C5    H27   S    
C8    C13   A    
C64   O11   A    
C22   F3    S    
C41   C42   A    
C35   C36   A    
C67   H1    S    
C7    C8    A    
C54   N5    S    
C12   O22   A    
C7    C11   A    
Cr4   O14   S    
C26   C27   A    
C17   C23   S    
C37   H14   S    
C36   C37   A    
C9    C16   A    
C1    O20   A    
C2    C3    S    
N3    H35   S    
Cr4   O7    S    
C30   C31   A    
C6    H2    S    
C15   F1    S    
C10   C17   A    
C15   C16   A    
Cr1   O5    S    
C13   H5    S    
C16   H8    S    
Cr6   O10   S    
C18   C19   A    
C32   C39   A    
C60   F7    S    
C68   O13   A    
C54   C55   A    
C63   O9    A    
C53   C61   A    
C65   O15   A    
C5    N1    S    
C19   C20   A    
C29   C33   A    
C8    C9    A    
C1    C28   S    
C41   C46   A    
C66   O17   A    
Cr5   O8    S    
C13   C14   A    
C4    C12   S    
C67   F2    S    
C24   H9    S    
C21   N2    S    
C56   O24   A    
C45   O3    A    
C35   F4    S    
C39   C45   S    
C63   O10   A    
C59   C60   A    
C2    F8    S    
Cr5   O16   S    
C21   C22   A    
C2    C6    S    
C14   H7    S    
C68   O18   A    
C4    C69   S    
C53   C60   A    
N4    H37   S    
C11   H6    S    
Cr4   O13   S    
Cr2   O5    S    
Cr1   O12   S    
Cr5   O19   S    
Cr6   O19   S    
Cr3   O5    S    
C3    C70   S    
C58   H24   S    
C24   C25   A    
C62   O8    A    
C4    C6    S    
C10   C11   A    
Cr4   O6    S    
C10   H4    S    
C26   H11   S    
C64   O6    A    
C20   C28   A    
C25   C26   A    
Cr3   O22   S    
C23   O1    A    
C34   C61   S    
C50   C56   S    
C51   C52   A    
Cr2   O21   S    
C67   C69   S    
C59   H25   S    
C37   C38   A    
C43   C44   A    
C7    C62   S    
C29   C30   A    
C33   H13   S    
Cr1   O24   S    
C47   C48   A    
C14   C15   A    
Cr2   O2    S    
C2    H28   S    
C57   H21   S    
C65   O14   A    
C66   O16   A    
C62   O7    A    
Cr5   O9    S    
C1    O12   A    
C32   N3    S    
C42   C50   A    
C69   H23   S    
N2    H33   S    
C48   C49   A    
C54   C61   A    
C21   C28   A    
C40   C44   A    
C34   O26   A    
C40   C65   S    
N5    H39   S    
C56   O4    A    
C52   C53   A    
Cr2   O26   S    
N4    H36   S    
C9    C17   A    
C46   C47   A    
C40   C41   A    
C48   H20   S    
C70   H3    S    
C18   C22   A    
Cr6   O18   S    
C3    C67   S    
Cr5   O15   S    
N2    H32   S    
Cr3   O3    S    
C5    C70   S    
C70   H26   S    
C43   C50   A    
Cr3   O4    S    
C20   C27   A    
C3    C63   S    
Cr3   O23   S    
C30   C35   A    
C31   C38   A    
C49   F6    S    
Cr2   O20   S    
C43   H17   S    
Cr6   O17   S    
C32   C33   A    
C19   C24   A    
C58   C59   A    
N3    H34   S    
Cr1   O25   S    
C18   C64   S    
C57   C58   A    
C46   N4    S    
C55   H22   S    
C25   H10   S    
Cr6   O11   S    
C6    H29   S    
C31   C39   A    
N1    H30   S    
C51   C55   A    
C51   C68   S    
C27   H12   S    
C44   H18   S    
C52   C57   A    
C42   C49   A    
C29   C66   S    
C36   F5    S    
C4    C5    S    
C12   O21   A    
C34   O25   A    
N1    H31   S    
Cr1   O1    S    
C47   H19   S    
N5    H38   S    
C69   H15   S    
C45   O2    A    
C38   H16   S    
C23   O23   A    
