data_mof_unit_4563.cif
_audit_creation_date              2012-12-10T16:48:46-0500
_audit_creation_method            fapswitch 2.2
_symmetry_space_group_name_H-M    P1
_symmetry_Int_Tables_number       1
_space_group_crystal_system       triclinic
_cell_length_a                    7.742386
_cell_length_b                    8.586714
_cell_length_c                    10.893349
_cell_angle_alpha                 88.148765
_cell_angle_beta                  100.040232
_cell_angle_gamma                 93.292708
_cell_volume                      711.756727734

loop_
_atom_site_label
_atom_site_type_symbol
_atom_type_description
_atom_site_fract_x
_atom_site_fract_y
_atom_site_fract_z
_atom_type_partial_charge
C1    C     C_R   0.544635 0.794784 0.496786 0.967672
C2    C     C_2   0.431731 0.041909 0.504976 -0.390140
C3    C     C_3   0.080770 0.621939 0.123254 -0.717895
C4    C     C_3   0.920338 0.380660 0.877153 -0.717873
C5    C     C_R   0.455363 0.205216 0.503210 0.967672
C6    C     C_R   0.574739 0.490419 0.736167 0.885101
C7    C     C_R   0.425258 0.509603 0.263854 0.885442
C8    C     C_2   0.618100 0.471158 0.871385 0.029580
C9    C     C_2   0.381799 0.528795 0.128671 0.029278
C10   C     C_2   0.496835 0.517437 0.934550 -0.220126
C11   C     C_2   0.502479 0.481554 0.065417 -0.219828
C12   C     C_2   0.568264 0.958091 0.495013 -0.390085
H1    H     H_    0.985616 0.386267 0.407704 0.189083
H2    H     H_    0.028352 0.335332 0.947477 0.239786
H3    H     H_    0.962538 0.499866 0.847682 0.256388
H4    H     H_    0.897304 0.300931 0.796988 0.243638
H5    H     H_    0.697411 0.008864 0.485556 0.179389
H6    H     H_    0.302584 0.991136 0.514432 0.179378
H7    H     H_    0.014384 0.613732 0.592297 0.189067
H8    H     H_    0.611699 0.416261 0.112812 0.178529
H9    H     H_    0.387087 0.582036 0.887099 0.179079
H10   H     H_    0.273707 0.721194 0.028410 0.220374
H11   H     H_    0.973188 0.668205 0.053072 0.239293
H12   H     H_    0.104948 0.701547 0.203511 0.243591
H13   H     H_    0.037296 0.503085 0.152662 0.256832
H14   H     H_    0.728060 0.279580 0.971760 0.220177
N1    N     N_2   0.940600 0.458860 0.467170 -0.176265
N2    N     N_2   0.059400 0.541140 0.532830 -0.176276
N3    N     N_2   0.237145 0.616365 0.067931 -0.322601
N4    N     N_2   0.763623 0.384740 0.932271 -0.322077
O1    O     O_R   0.391630 0.738350 0.508060 -0.612630
O2    O     O_R   0.608370 0.261650 0.491940 -0.612614
O3    O     O_R   0.674540 0.711990 0.487010 -0.628430
O4    O     O_R   0.325460 0.288010 0.512990 -0.628450
O5    O     O_R   0.411370 0.508250 0.688780 -0.630451
O6    O     O_R   0.588630 0.491750 0.311220 -0.630276
O7    O     O_R   0.694270 0.481880 0.667740 -0.617329
O8    O     O_R   0.305730 0.518120 0.332260 -0.617458
Zn1   Zn    Zn3+2 0.311100 0.517600 0.514050 0.925674
Zn2   Zn    Zn3+2 0.688900 0.482400 0.485950 0.925780

loop_
_geom_bond_atom_site_label_1
_geom_bond_atom_site_label_2
_ccdc_geom_bond_type
C12   H5    S    
C4    H4    S    
O5    Zn1   S    
H10   N3    S    
C2    H6    S    
C7    O6    A    
C3    H11   S    
C9    N3    S    
N1    Zn2   S    
C5    O2    A    
C8    N4    S    
C5    O4    A    
C4    H3    S    
C1    O1    A    
C6    O7    A    
C1    O3    A    
H7    N2    S    
C9    C11   D    
C3    H12   S    
C1    C12   S    
C7    O8    A    
O1    Zn1   S    
H14   N4    S    
O7    Zn2   S    
O2    Zn2   S    
C10   H9    S    
C4    H2    S    
O8    Zn1   S    
C11   H8    S    
C2    C5    S    
C10   C11   S    
O4    Zn1   S    
O3    Zn2   S    
C7    C9    S    
C3    H13   S    
C6    O5    A    
C8    C10   D    
C2    C12   D    
N1    N2    D    
C3    N3    S    
H1    N1    S    
O6    Zn2   S    
C6    C8    S    
N2    Zn1   S    
C4    N4    S    
