data_mof_unit_1508.cif
_audit_creation_date              2013-03-05T16:15:20-0500
_audit_creation_method            fapswitch 2.2
_symmetry_space_group_name_H-M    P1
_symmetry_Int_Tables_number       1
_space_group_crystal_system       triclinic
_cell_length_a                    27.735793
_cell_length_b                    10.631577
_cell_length_c                    9.409106
_cell_angle_alpha                 89.697249
_cell_angle_beta                  90.236168
_cell_angle_gamma                 90.155203
_cell_volume                      2774.43987306

loop_
_atom_site_label
_atom_site_type_symbol
_atom_site_description
_atom_site_fract_x
_atom_site_fract_y
_atom_site_fract_z
_atom_type_partial_charge
O1    O     O_R   0.500020 0.316850 0.620870 -0.600349
O2    O     O_R   0.499980 0.683150 0.379130 -0.600188
O3    O     O_R   0.500000 0.316860 0.379090 -0.561174
O4    O     O_R   0.500000 0.683140 0.620910 -0.561390
C1    C     C_R   0.500238 0.259585 0.500356 0.846314
C2    C     C_R   0.499763 0.740415 0.499642 0.846434
O5    O     O_R   0.430270 0.500020 0.620880 -0.569688
O6    O     O_R   0.569730 0.499980 0.379120 -0.572467
O7    O     O_R   0.430250 0.500030 0.379090 -0.596919
O8    O     O_R   0.569750 0.499970 0.620910 -0.594527
C3    C     C_R   0.407437 0.500319 0.499682 0.828576
C4    C     C_R   0.592561 0.499622 0.500166 0.828816
Cu1   Cu    Cu3+1 0.500010 0.499990 0.643150 0.959399
Cu2   Cu    Cu3+1 0.499990 0.500010 0.356850 0.958006
C5    C     C_R   0.177048 0.393145 0.511565 0.539706
C6    C     C_R   0.823050 0.605769 0.512812 0.539805
O9    O     O_2   0.201586 0.286442 0.540059 -0.530907
O10   O     O_2   0.798642 0.712515 0.540223 -0.530754
N1    N     N_R   0.201485 0.503687 0.491210 -0.471749
N2    N     N_R   0.798513 0.495271 0.493859 -0.471453
C7    C     C_R   0.177716 0.613610 0.462591 0.550689
C8    C     C_R   0.822171 0.385322 0.466363 0.550480
C9    C     C_R   0.278902 0.514689 0.367290 -0.103663
C10   C     C_R   0.722276 0.509991 0.625265 -0.095255
C11   C     C_R   0.329128 0.513482 0.369086 -0.214882
C12   C     C_R   0.671942 0.510901 0.626983 -0.225307
C13   C     C_R   0.328272 0.490822 0.625846 -0.189537
C14   C     C_R   0.670637 0.483849 0.371058 -0.172953
C15   C     C_R   0.277942 0.491451 0.623631 -0.101557
C16   C     C_R   0.720850 0.482391 0.369768 -0.111570
C17   C     C_R   0.253160 0.503491 0.494340 0.355300
C18   C     C_R   0.746834 0.495630 0.496634 0.353346
C19   C     C_R   0.101438 0.501890 0.469881 -0.045484
C20   C     C_R   0.898483 0.496996 0.471520 -0.045459
C21   C     C_R   0.126566 0.389999 0.500907 -0.018806
C22   C     C_R   0.873492 0.608867 0.501664 -0.018736
C23   C     C_R   0.100778 0.278138 0.521831 -0.138498
C24   C     C_R   0.899376 0.720696 0.521075 -0.138183
C25   C     C_R   0.127194 0.614918 0.451965 -0.018392
C26   C     C_R   0.872648 0.383991 0.455186 -0.018539
C27   C     C_R   0.354324 0.501497 0.498396 -0.021382
C28   C     C_R   0.645669 0.498168 0.499689 -0.027062
H1    H     H_    0.346714 0.481486 0.727021 0.154962
H2    H     H_    0.651428 0.473417 0.271336 0.162292
H3    H     H_    0.258172 0.482856 0.722217 0.141073
H4    H     H_    0.739678 0.471531 0.269995 0.140986
H5    H     H_    0.119020 0.191732 0.550932 0.186076
H6    H     H_    0.881264 0.807081 0.549501 0.185904
C29   C     C_R   0.974560 0.383385 0.442306 0.034624
C30   C     C_R   0.025226 0.615531 0.440669 0.034728
C31   C     C_R   0.974679 0.614075 0.464712 0.073944
C32   C     C_R   0.025218 0.384813 0.465484 0.073995
C33   C     C_R   0.949316 0.498137 0.458792 0.038069
C34   C     C_R   0.050549 0.500758 0.457937 0.038139
C35   C     C_R   0.947618 0.272710 0.409067 -0.028750
C36   C     C_R   0.052012 0.726242 0.405826 -0.029608
C37   C     C_R   0.897372 0.273518 0.421781 -0.221757
C38   C     C_R   0.102316 0.725413 0.417730 -0.222061
O11   O     O_2   0.796873 0.277732 0.449767 -0.521928
O12   O     O_2   0.202946 0.721197 0.444430 -0.522461
C39   C     C_R   0.050892 0.275899 0.505975 -0.125797
C40   C     C_R   0.949190 0.722940 0.504485 -0.125568
H7    H     H_    0.653676 0.522140 0.727591 0.149297
H8    H     H_    0.348156 0.522238 0.269240 0.151544
H9    H     H_    0.742219 0.520196 0.723727 0.142390
H10   H     H_    0.259881 0.523789 0.267032 0.140590
H11   H     H_    0.877332 0.188141 0.399193 0.185116
H12   H     H_    0.122251 0.810817 0.393955 0.185065
H13   H     H_    0.032609 0.188642 0.530586 0.136551
H14   H     H_    0.967585 0.810164 0.527914 0.136212
C41   C     C_3   0.498107 0.040478 0.635568 -0.222796
C42   C     C_3   0.501894 0.959518 0.364419 -0.222777
C43   C     C_3   0.538437 0.956387 0.573107 -0.245483
C44   C     C_3   0.461565 0.043611 0.426878 -0.245486
H15   H     H_    0.569990 0.918407 0.632143 0.143394
H16   H     H_    0.430012 0.081589 0.367840 0.143547
H17   H     H_    0.496336 0.075239 0.746502 0.140247
H18   H     H_    0.503664 0.924756 0.253485 0.140217
C45   C     C_3   0.499455 0.877011 0.499042 0.000835
C46   C     C_3   0.500547 0.122987 0.500945 0.001019
C47   C     C_3   0.459654 0.959476 0.560574 0.054290
C48   C     C_3   0.540348 0.040521 0.439408 0.054939
C49   C     C_3   0.512745 0.608761 0.049994 -0.043000
C50   C     C_3   0.487254 0.391238 0.950007 -0.041693
C51   C     C_3   0.470324 0.582949 0.948420 -0.028060
C52   C     C_3   0.529675 0.417050 0.051583 -0.027796
H19   H     H_    0.445381 0.652698 0.899928 0.148984
H20   H     H_    0.554625 0.347318 0.100085 0.147225
H21   H     H_    0.523602 0.700337 0.096590 0.112896
H22   H     H_    0.476395 0.299663 0.903412 0.112425
N3    N     N_3   0.500040 0.499970 0.858290 -0.157203
N4    N     N_3   0.499960 0.500030 0.141710 -0.157058
C53   C     C_3   0.542465 0.525778 0.950019 -0.043807
C54   C     C_3   0.457534 0.474221 0.049985 -0.045099
H23   H     H_    0.578244 0.547849 0.903619 0.113788
H24   H     H_    0.421755 0.452144 0.096403 0.114530
C55   C     C_2   0.413566 0.917726 0.628814 0.329478
H25   H     H_    0.388993 0.987529 0.670358 0.076246
O13   O     O_2   0.403307 0.806326 0.637827 -0.545636
C56   C     C_2   0.586431 0.082259 0.371127 0.329690
H26   H     H_    0.611025 0.012443 0.329717 0.076605
O14   O     O_2   0.596659 0.193663 0.361912 -0.548668
C57   C     C_2   0.968700 0.160085 0.340981 0.339702
H27   H     H_    0.951431 0.068985 0.353892 0.095923
O15   O     O_2   0.003720 0.168975 0.263288 -0.511899
C58   C     C_2   0.030615 0.838984 0.336979 0.339746
H28   H     H_    0.047977 0.930024 0.348611 0.098050
O16   O     O_2   0.995202 0.830273 0.260064 -0.510982

loop_
_geom_bond_atom_site_label_1
_geom_bond_atom_site_label_2
_geom_bond_distance
_ccdc_geom_bond_type
C13   C15   1.396057 A    
C12   H7    1.082829 S    
N1    C17   1.433435 S    
C55   H25   1.084457 S    
C51   N3    1.481338 S    
O5    C3    1.302113 A    
C49   N4    1.482059 S    
C19   C25   1.406034 A    
C44   H16   1.110414 S    
O1    C1    1.289908 A    
C9    H10   1.082941 S    
N1    C7    1.368309 A    
C50   C52   1.537811 S    
C42   C45   1.538555 S    
C32   C39   1.410889 A    
C52   H20   1.110545 S    
C58   H28   1.085745 S    
C49   C53   1.536811 S    
C35   C57   1.483579 S    
C40   H14   1.080514 S    
C5    C21   1.403665 A    
O4    Cu1   1.957286 S    
C4    C28   1.473158 S    
C42   H18   1.110444 S    
C50   N3    1.482084 S    
C23   H5    1.083323 S    
C24   H6    1.083325 S    
O6    C4    1.300844 A    
C53   H23   1.109809 S    
C44   C46   1.536830 S    
Cu1   Cu2   2.693823 S    
Cu1   N3    2.024272 S    
C43   H15   1.110417 S    
O2    C2    1.289888 A    
C31   C40   1.410884 A    
C50   H22   1.110239 S    
C37   H11   1.084603 S    
N4    C54   1.482290 S    
C41   C46   1.538564 S    
C55   O13   1.219908 D    
C32   C34   1.418787 A    
C51   H19   1.110528 S    
C49   H21   1.110239 S    
C36   C58   1.483575 S    
C7    O12   1.349724 S    
C42   C44   1.553138 S    
C11   C27   1.405974 A    
C8    O11   1.349739 S    
C45   C47   1.529172 S    
C50   C54   1.536836 S    
C29   C35   1.427563 A    
C25   C38   1.399437 A    
C14   H2    1.083148 S    
C30   C36   1.427592 A    
C15   H3    1.082816 S    
C31   C33   1.418795 A    
C11   H8    1.082896 S    
C9    C17   1.399304 A    
C5    N1    1.368059 A    
O7    Cu2   1.946438 S    
C10   C18   1.400502 A    
C52   C53   1.537590 S    
N3    C53   1.482286 S    
C51   C54   1.537602 S    
C13   C27   1.406527 A    
C7    C25   1.404529 A    
C6    N2    1.368174 A    
C29   C32   1.421015 A    
C8    C26   1.404514 A    
C56   O14   1.219886 D    
C30   C31   1.421042 A    
C43   C45   1.536830 S    
C57   O15   1.221232 D    
C30   C34   1.417836 A    
C1    C46   1.452278 S    
C54   H24   1.109878 S    
O7    C3    1.301451 A    
Cu2   N4    2.024272 S    
O3    Cu2   1.957285 S    
O8    C4    1.302677 A    
C10   H9    1.082841 S    
C38   H12   1.084600 S    
C49   C51   1.537796 S    
N2    C8    1.368444 A    
C35   C37   1.399271 A    
C20   C26   1.405995 A    
O4    C2    1.290497 A    
O1    Cu1   1.959423 S    
C44   C47   1.540720 S    
C22   C24   1.399591 A    
C43   C48   1.540733 S    
C41   H17   1.110444 S    
C12   C28   1.406352 A    
C41   C43   1.553152 S    
N2    C18   1.433736 S    
C39   H13   1.080510 S    
C19   C34   1.415465 A    
C5    O9    1.349615 S    
O6    Cu2   1.944753 S    
C26   C37   1.399473 A    
C21   C23   1.399560 A    
C48   C56   1.498007 S    
C16   H4    1.082976 S    
C10   C12   1.396277 A    
O3    C1    1.290482 A    
O8    Cu1   1.946438 S    
C23   C39   1.391173 A    
C14   C16   1.392927 A    
C15   C17   1.400237 A    
C52   N4    1.481317 S    
C6    C22   1.403707 A    
C16   C18   1.399373 A    
C2    C45   1.452268 S    
C58   O16   1.221236 D    
C29   C33   1.417824 A    
C14   C28   1.406051 A    
C56   H26   1.084453 S    
C19   C21   1.408973 A    
C46   C48   1.529189 S    
C36   C38   1.399303 A    
C3    C27   1.473231 S    
C20   C22   1.408944 A    
C9    C11   1.393200 A    
O2    Cu2   1.959422 S    
C13   H1    1.083044 S    
O5    Cu1   1.944753 S    
C20   C33   1.415473 A    
C6    O10   1.349614 S    
C57   H27   1.085790 S    
C47   C55   1.497997 S    
C41   C47   1.540213 S    
C42   C48   1.540209 S    
C24   C40   1.391191 A    
