data_mof_unit_21.cif
_audit_creation_date              2012-12-10T17:43:40-0500
_audit_creation_method            fapswitch 2.2
_symmetry_space_group_name_H-M    P1
_symmetry_Int_Tables_number       1
_space_group_crystal_system       triclinic
_cell_length_a                    15.001415
_cell_length_b                    10.665243
_cell_length_c                    9.930319
_cell_angle_alpha                 89.898646
_cell_angle_beta                  89.593456
_cell_angle_gamma                 93.769039
_cell_volume                      1585.30861749

loop_
_atom_site_label
_atom_site_type_symbol
_atom_type_description
_atom_site_fract_x
_atom_site_fract_y
_atom_site_fract_z
_atom_type_partial_charge
C1    C     C_R   0.506978 0.260352 0.500506 0.906586
C2    C     C_R   0.185346 0.495465 0.377804 -0.260428
C3    C     C_R   0.230893 0.502664 0.500339 -0.064840
C4    C     C_R   0.326795 0.501240 0.500214 0.956583
C5    C     C_R   0.184843 0.511200 0.622565 -0.149842
C6    C     C_R   0.547087 0.110672 0.747114 -0.150920
C7    C     C_R   0.529833 0.049421 0.869639 -0.207719
C8    C     C_R   0.474212 0.939825 0.873458 -0.177546
C9    C     C_R   0.444572 0.883478 0.753490 0.413271
C10   C     C_R   0.474572 0.935588 0.627808 0.024290
C11   C     C_R   0.511768 0.059062 0.625924 0.081075
C12   C     C_R   0.907178 0.511213 0.622799 0.118113
C13   C     C_R   0.510233 0.125767 0.502522 -0.092208
C14   C     C_R   0.493955 0.062271 0.381157 -0.211945
C15   C     C_R   0.479025 0.934317 0.381499 -0.168564
C16   C     C_R   0.488917 0.737934 0.500748 0.920960
C17   C     C_R   0.473323 0.869706 0.503929 -0.109694
C18   C     C_R   0.393910 0.322245 0.151102 -0.130036
C19   C     C_R   0.353107 0.216808 0.094247 -0.313394
C20   C     C_R   0.353411 0.204937 0.957493 -0.167649
C21   C     C_R   0.390509 0.301503 0.874736 0.421950
C22   C     C_R   0.446427 0.406426 0.930425 0.050008
C23   C     C_R   0.954566 0.489254 0.254174 -0.200457
C24   C     C_R   0.447135 0.410449 0.075648 0.045524
C25   C     C_R   0.551393 0.585096 0.069580 0.406947
C26   C     C_R   0.550495 0.585676 0.927045 -0.142282
C27   C     C_R   0.673294 0.500870 0.499635 0.895060
C28   C     C_R   0.814977 0.510246 0.621731 -0.252120
C29   C     C_R   0.769358 0.502249 0.499276 -0.077034
C30   C     C_R   0.815504 0.495744 0.376877 -0.218717
C31   C     C_R   0.907778 0.496441 0.376104 0.108586
C32   C     C_R   0.953850 0.504060 0.499552 0.066627
C33   C     C_R   0.047172 0.489092 0.254426 -0.198013
C34   C     C_R   0.093238 0.496315 0.376595 0.120789
C35   C     C_R   0.046592 0.504149 0.499790 0.060296
C36   C     C_R   0.092653 0.511676 0.623244 0.094666
C37   C     C_R   0.045903 0.519191 0.745151 -0.184317
C38   C     C_R   0.953278 0.518895 0.744936 -0.205174
Cl1   Cl    Cl    0.357075 0.764928 0.765597 -0.641760
Cl2   Cl    Cl    0.622870 0.696802 0.151138 -0.625299
Cl3   Cl    Cl    0.338017 0.277925 0.719257 -0.632124
H1    H     H_    0.588894 0.197200 0.748331 0.160534
H2    H     H_    0.917744 0.524441 0.839946 0.148484
H3    H     H_    0.493848 0.110892 0.285288 0.176774
H4    H     H_    0.778954 0.515783 0.716404 0.167820
H5    H     H_    0.474376 0.885974 0.285643 0.191986
H6    H     H_    0.779820 0.489625 0.282251 0.183288
H7    H     H_    0.221318 0.488751 0.283214 0.171523
H8    H     H_    0.220501 0.517231 0.717208 0.204569
H9    H     H_    0.080895 0.524952 0.840300 0.154160
H10   H     H_    0.555084 0.091079 0.962317 0.167127
H11   H     H_    0.453381 0.899482 0.969701 0.176445
H12   H     H_    0.382047 0.330709 0.255630 0.227778
H13   H     H_    0.317047 0.146702 0.156455 0.186424
H14   H     H_    0.315978 0.123466 0.916147 0.209304
H15   H     H_    0.591908 0.655477 0.872076 0.173697
H16   H     H_    0.919588 0.483477 0.159017 0.149100
H17   H     H_    0.082700 0.483175 0.159447 0.150873
N1    N     N_R   0.499150 0.498800 0.142780 -0.143711
N2    N     N_R   0.499120 0.498720 0.857170 -0.119205
O1    O     O_R   0.500000 0.316780 0.614690 -0.587701
O2    O     O_R   0.499990 0.316750 0.385360 -0.657457
O3    O     O_R   0.367850 0.499980 0.614680 -0.533444
O4    O     O_R   0.367840 0.499960 0.385350 -0.672447
O5    O     O_R   0.500010 0.683250 0.614640 -0.596893
O6    O     O_R   0.500000 0.683220 0.385310 -0.574959
O7    O     O_R   0.632160 0.500040 0.614650 -0.645329
O8    O     O_R   0.632150 0.500020 0.385320 -0.580663
Zn1   Zn    Zn3+2 0.500010 0.500020 0.653130 1.012009
Zn2   Zn    Zn3+2 0.499990 0.499980 0.346870 0.990664

loop_
_geom_bond_atom_site_label_1
_geom_bond_atom_site_label_2
_ccdc_geom_bond_type
C5    C36   A    
C6    C7    A    
C18   C24   A    
O4    Zn2   S    
C27   C29   S    
C29   C30   A    
C9    C10   A    
C4    O4    A    
C31   C32   A    
C15   H5    S    
C3    C5    A    
C2    H7    S    
C1    O2    A    
C2    C34   A    
C23   H16   S    
C33   C34   A    
C7    H10   S    
C38   H2    S    
O6    Zn2   S    
C21   C22   A    
C12   C32   A    
C12   C38   A    
C37   H9    S    
C11   C13   A    
C4    O3    A    
C5    H8    S    
C33   H17   S    
C16   O6    A    
C26   N2    A    
N2    Zn1   S    
C12   C28   A    
C24   N1    A    
O5    Zn1   S    
C19   H13   S    
O8    Zn2   S    
C28   C29   A    
C37   C38   A    
C2    C3    A    
C27   O8    A    
C20   H14   S    
C25   Cl2   S    
C22   N2    A    
C30   C31   A    
C34   C35   A    
C22   C24   A    
C28   H4    S    
C23   C31   A    
C27   O7    A    
C10   C11   A    
C10   C17   A    
C3    C4    S    
C32   C35   A    
O3    Zn1   S    
C30   H6    S    
C9    Cl1   S    
C1    C13   S    
C20   C21   A    
O2    Zn2   S    
C14   H3    S    
C7    C8    A    
C6    H1    S    
O1    Zn1   S    
C6    C11   A    
C15   C17   A    
C18   C19   A    
C8    H11   S    
C14   C15   A    
C36   C37   A    
C16   O5    A    
C25   N1    A    
C18   H12   S    
C23   C33   A    
C25   C26   A    
C13   C14   A    
C21   Cl3   S    
N1    Zn2   S    
C19   C20   A    
C16   C17   S    
C26   H15   S    
C8    C9    A    
O7    Zn1   S    
C35   C36   A    
C1    O1    A    
