data_mof_unit_3266.cif
_audit_creation_date              2012-12-10T20:52:13-0500
_audit_creation_method            fapswitch 2.2
_symmetry_space_group_name_H-M    P1
_symmetry_Int_Tables_number       1
_space_group_crystal_system       triclinic
_cell_length_a                    10.895424
_cell_length_b                    8.89101
_cell_length_c                    8.34405
_cell_angle_alpha                 89.970735
_cell_angle_beta                  94.011418
_cell_angle_gamma                 89.982555
_cell_volume                      806.318788288

loop_
_atom_site_label
_atom_site_type_symbol
_atom_type_description
_atom_site_fract_x
_atom_site_fract_y
_atom_site_fract_z
_atom_type_partial_charge
C1    C     C_R   0.499978 0.219068 0.499998 0.945820
C2    C     C_R   0.500135 0.780929 0.500013 0.923123
C3    C     C_R   0.874323 0.494341 0.511644 -0.075299
C4    C     C_R   0.126345 0.518955 0.489768 -0.052027
C5    C     C_R   0.948075 0.565683 0.633946 0.041710
C6    C     C_R   0.051289 0.461938 0.361893 0.053442
C7    C     C_1   0.500077 0.065503 0.500032 -0.133425
C8    C     C_1   0.500137 0.934481 0.499994 -0.150670
C9    C     C_R   0.259858 0.507732 0.495470 0.875796
C10   C     C_R   0.740438 0.496798 0.504932 0.883910
C11   C     C_R   0.175620 0.677016 0.034536 0.440273
C12   C     C_R   0.791103 0.472458 0.996009 0.451521
C13   C     C_R   0.097238 0.643589 0.152882 0.459605
C14   C     C_R   0.872995 0.458194 0.878108 0.485814
C15   C     C_R   0.085534 0.491735 0.201525 -0.220205
C16   C     C_R   0.903917 0.586962 0.791486 -0.221896
C17   C     C_R   0.135468 0.374587 0.117286 -0.104634
C18   C     C_R   0.871984 0.730850 0.840929 -0.137990
C19   C     C_R   0.211817 0.406870 0.996488 0.485873
C20   C     C_R   0.800700 0.747648 0.971453 0.510279
C21   C     C_R   0.236097 0.559281 0.962043 -0.492141
C22   C     C_R   0.757212 0.618190 0.045935 -0.507708
C23   C     C_R   0.928789 0.436523 0.379675 -0.244368
C24   C     C_R   0.072436 0.582389 0.619076 -0.229535
N1    N     N_1   0.500020 0.500030 0.073640 -0.060687
N2    N     N_1   0.499980 0.499970 0.926360 -0.056874
O1    O     O_R   0.499990 0.285340 0.636850 -0.597524
O2    O     O_R   0.500010 0.714660 0.363150 -0.617571
O3    O     O_R   0.500010 0.285350 0.363100 -0.605739
O4    O     O_R   0.499990 0.714650 0.636900 -0.618485
O5    O     O_R   0.316750 0.500000 0.636870 -0.675889
O6    O     O_R   0.683250 0.500000 0.363130 -0.684487
O7    O     O_R   0.316770 0.500020 0.363120 -0.610445
O8    O     O_R   0.683230 0.499980 0.636880 -0.598886
Zn1   Zn    Zn3+2 0.499990 0.499990 0.682780 0.996508
Zn2   Zn    Zn3+2 0.500010 0.500010 0.317220 0.983958
H1    H     H_    0.300195 0.591960 0.879113 0.204637
H2    H     H_    0.693985 0.634927 0.136306 0.212530
O9    O     O_3   0.194098 0.825825 0.995002 -0.678670
H3    H     H_    0.252142 0.831136 0.908791 0.334342
O10   O     O_3   0.742713 0.340251 0.051167 -0.694841
H4    H     H_    0.684594 0.361930 0.132468 0.363284
O11   O     O_3   0.042463 0.762339 0.227554 -0.697918
H5    H     H_    0.974432 0.724045 0.288666 0.336150
O12   O     O_3   0.908961 0.314569 0.837831 -0.683706
H6    H     H_    0.982871 0.320470 0.775538 0.345025
H7    H     H_    0.124713 0.259077 0.155609 0.213842
H8    H     H_    0.897504 0.828935 0.773645 0.201077
O13   O     O_3   0.265936 0.287351 0.923529 -0.725530
H9    H     H_    0.323991 0.325671 0.848151 0.376287
O14   O     O_3   0.769148 0.890807 0.017287 -0.677223
H10   H     H_    0.718755 0.883761 0.111484 0.341875
H11   H     H_    0.874715 0.383298 0.283949 0.214887
H12   H     H_    0.126996 0.643994 0.708425 0.172804

loop_
_geom_bond_atom_site_label_1
_geom_bond_atom_site_label_2
_ccdc_geom_bond_type
C11   O9    S    
O11   H5    S    
C15   C17   A    
C12   O10   S    
C14   C16   A    
C10   O6    A    
C20   O14   S    
O10   H4    S    
C19   O13   S    
C3    C23   A    
C2    O4    A    
O1    Zn1   S    
C1    O3    A    
N1    N2    T    
C7    C8    T    
C10   O8    A    
C3    C10   S    
O12   H6    S    
C9    O7    A    
C11   C13   A    
O3    Zn2   S    
C5    C24   A    
O4    Zn1   S    
C6    C23   A    
O6    Zn2   S    
C16   C18   A    
C19   C21   A    
C12   C14   A    
C23   H11   S    
C14   O12   S    
C18   C20   A    
C13   C15   A    
C4    C24   A    
O13   H9    S    
O5    Zn1   S    
C6    C15   S    
C9    O5    A    
N1    Zn2   S    
C24   H12   S    
O14   H10   S    
C22   H2    S    
C12   C22   A    
N2    Zn1   S    
C13   O11   S    
O7    Zn2   S    
C21   H1    S    
O2    Zn2   S    
C4    C6    A    
O8    Zn1   S    
O9    H3    S    
C1    O1    A    
C5    C16   S    
C2    O2    A    
C17   C19   A    
C4    C9    S    
C1    C7    S    
C11   C21   A    
C2    C8    S    
C17   H7    S    
C20   C22   A    
C3    C5    A    
C18   H8    S    
