data_mof_unit_864.cif
_audit_creation_date              2012-12-10T17:08:13-0500
_audit_creation_method            fapswitch 2.2
_symmetry_space_group_name_H-M    P1
_symmetry_Int_Tables_number       1
_space_group_crystal_system       triclinic
_cell_length_a                    23.524144
_cell_length_b                    11.056944
_cell_length_c                    9.806361
_cell_angle_alpha                 111.538691
_cell_angle_beta                  98.167935
_cell_angle_gamma                 91.039293
_cell_volume                      2341.64756791

loop_
_atom_site_label
_atom_site_type_symbol
_atom_type_description
_atom_site_fract_x
_atom_site_fract_y
_atom_site_fract_z
_atom_type_partial_charge
C1    C     C_R   0.496570 0.253769 0.439765 0.757537
C2    C     C_R   0.503429 0.746230 0.560235 0.757537
C3    C     C_R   0.230447 0.478354 0.370539 0.041143
C4    C     C_R   0.769553 0.521648 0.629461 0.041143
C5    C     C_R   0.290057 0.480460 0.371798 -0.251122
C6    C     C_R   0.709943 0.519542 0.628202 -0.251121
C7    C     C_R   0.328410 0.499633 0.502882 -0.055515
C8    C     C_R   0.671590 0.500367 0.497118 -0.055516
C9    C     C_R   0.306572 0.517625 0.634263 -0.223613
C10   C     C_R   0.693428 0.482375 0.365736 -0.223614
C11   C     C_R   0.247391 0.516778 0.634689 -0.110320
C12   C     C_R   0.752609 0.483222 0.365311 -0.110319
C13   C     C_R   0.209070 0.497529 0.504063 0.321954
C14   C     C_R   0.790930 0.502472 0.495937 0.321953
C15   C     C_2   0.495759 0.113489 0.403714 0.306898
C16   C     C_2   0.504240 0.886511 0.596286 0.306898
C17   C     C_2   0.501493 0.069487 0.514637 -0.223506
C18   C     C_2   0.498506 0.930513 0.485362 -0.223507
C19   C     C_2   0.504719 0.511220 0.081757 -0.066782
C20   C     C_2   0.495282 0.488779 0.918243 -0.066782
C21   C     C_R   0.390911 0.499992 0.501206 0.807133
C22   C     C_R   0.609089 0.500008 0.498794 0.807135
C23   C     C_R   0.880181 0.598701 0.470945 0.496739
C24   C     C_R   0.119819 0.401300 0.529055 0.496740
C25   C     C_R   0.879818 0.397343 0.509382 0.545171
C26   C     C_R   0.120182 0.602659 0.490618 0.545171
C27   C     C_R   0.939643 0.396131 0.514462 -0.012278
C28   C     C_R   0.060357 0.603870 0.485538 -0.012279
C29   C     C_R   0.969866 0.499338 0.497156 -0.017210
C30   C     C_R   0.030134 0.500663 0.502844 -0.017211
C31   C     C_R   0.939968 0.601178 0.474089 -0.017094
C32   C     C_R   0.060032 0.398823 0.525911 -0.017094
C33   C     C_R   0.969872 0.295071 0.537454 -0.170402
C34   C     C_R   0.030128 0.704931 0.462546 -0.170402
C35   C     C_R   0.029469 0.296441 0.543200 -0.197400
C36   C     C_R   0.970530 0.703560 0.456800 -0.197401
Cu1   Cu    Cu3+1 0.509980 0.521810 0.644910 0.948239
Cu2   Cu    Cu3+1 0.490020 0.478190 0.355090 0.948240
H1    H     H_    0.947631 0.214799 0.551427 0.188145
H2    H     H_    0.052369 0.785203 0.448573 0.188145
H3    H     H_    0.555573 0.625117 0.935739 0.192503
H4    H     H_    0.444426 0.374883 0.064261 0.192503
H5    H     H_    0.051463 0.217024 0.561073 0.187392
H6    H     H_    0.948537 0.782978 0.438927 0.187392
H7    H     H_    0.306384 0.465509 0.269324 0.162187
H8    H     H_    0.693616 0.534493 0.730676 0.162187
H9    H     H_    0.335176 0.532669 0.736835 0.160242
H10   H     H_    0.664824 0.467330 0.263165 0.160242
H11   H     H_    0.231135 0.532031 0.737216 0.138154
H12   H     H_    0.768865 0.467969 0.262784 0.138153
H13   H     H_    0.491298 0.862496 0.370552 0.192140
H14   H     H_    0.508700 0.137504 0.629448 0.192140
H15   H     H_    0.462372 0.414740 0.844231 0.158617
H16   H     H_    0.537628 0.585258 0.155768 0.158617
N1    N     N_R   0.851601 0.498929 0.490921 -0.468365
N2    N     N_R   0.148399 0.501073 0.509079 -0.468365
N3    N     N_2   0.475010 0.445410 0.137370 -0.281668
N4    N     N_2   0.524990 0.554590 0.862630 -0.281669
O1    O     O_R   0.505330 0.332340 0.577400 -0.606308
O2    O     O_R   0.494670 0.667660 0.422600 -0.606308
O3    O     O_R   0.488470 0.295500 0.332650 -0.545351
O4    O     O_R   0.511530 0.704500 0.667350 -0.545353
O5    O     O_R   0.426310 0.518390 0.622390 -0.582018
O6    O     O_R   0.573690 0.481610 0.377610 -0.582017
O7    O     O_R   0.409450 0.481550 0.377650 -0.571701
O8    O     O_R   0.590550 0.518450 0.622350 -0.571701
O9    O     O_2   0.850924 0.696282 0.450852 -0.544196
O10   O     O_2   0.149076 0.303719 0.549148 -0.544196
O11   O     O_2   0.850002 0.298123 0.523128 -0.540418
O12   O     O_2   0.149998 0.701879 0.476872 -0.540418
C37   C     C_R   0.191510 0.456552 0.229178 0.115153
C38   C     C_R   0.146947 0.356274 0.173803 -0.149577
C39   C     C_R   0.110146 0.337322 0.041277 -0.132726
C40   C     C_R   0.117764 0.417400 0.962329 -0.078140
C41   C     C_R   0.162321 0.516331 0.015505 -0.124295
C42   C     C_R   0.199150 0.535840 0.148167 -0.108100
H17   H     H_    0.140967 0.292079 0.232302 0.153419
H18   H     H_    0.075814 0.260218 0.999514 0.139080
H19   H     H_    0.089234 0.402659 0.859870 0.142103
H20   H     H_    0.168215 0.578165 0.954113 0.128630
H21   H     H_    0.233202 0.613633 0.188590 0.137200
C43   C     C_R   0.808491 0.543452 0.770823 0.115152
C44   C     C_R   0.800851 0.464165 0.851835 -0.108102
C45   C     C_R   0.837680 0.483676 0.984498 -0.124293
C46   C     C_R   0.882236 0.582609 0.037672 -0.078139
C47   C     C_R   0.889854 0.662686 0.958723 -0.132727
C48   C     C_R   0.853053 0.643731 0.826197 -0.149577
H22   H     H_    0.766799 0.386371 0.811414 0.137201
H23   H     H_    0.831786 0.421843 0.045891 0.128630
H24   H     H_    0.910766 0.597351 0.140132 0.142103
H25   H     H_    0.924186 0.739790 0.000485 0.139080
H26   H     H_    0.859032 0.707925 0.767696 0.153420
O13   O     O_3   0.515268 0.971800 0.743425 -0.572722
C49   C     C_3   0.463145 0.986222 0.801241 -0.309274
H27   H     H_    0.446473 0.893198 0.805773 0.179082
H28   H     H_    0.429993 0.022937 0.736164 0.157247
H29   H     H_    0.471340 0.059454 0.916501 0.203994
O14   O     O_3   0.484732 0.028200 0.256575 -0.572723
C50   C     C_3   0.536856 0.013776 0.198762 -0.309273
H30   H     H_    0.570006 0.977057 0.263838 0.157248
H31   H     H_    0.553529 0.106800 0.194234 0.179079
H32   H     H_    0.528661 0.940547 0.083500 0.203993

loop_
_geom_bond_atom_site_label_1
_geom_bond_atom_site_label_2
_ccdc_geom_bond_type
O13   C49   S    
C27   C29   A    
C39   C40   A    
C19   C20   S    
Cu1   O4    S    
C46   C47   A    
C27   C33   A    
C16   O13   S    
C29   C30   A    
C34   H2    S    
Cu1   Cu2   S    
H3    N4    S    
C47   H25   S    
C1    O1    A    
C37   C42   A    
C2    O2    A    
C43   C48   A    
O14   C50   S    
H4    N3    S    
C7    C9    A    
C23   O9    S    
C22   O8    A    
C50   H30   S    
C8    C22   S    
C39   H18   S    
C1    C15   S    
C2    C16   S    
C41   H20   S    
Cu1   N4    S    
C3    C13   A    
C13   N2    S    
C44   H22   S    
C28   C34   A    
C48   H26   S    
C17   H14   S    
Cu1   O5    S    
C18   H13   S    
Cu2   O6    S    
C40   C41   A    
C32   C35   A    
C45   C46   A    
C4    C6    A    
C5    C7    A    
C47   C48   A    
C20   H15   S    
C6    C8    A    
C49   H29   S    
C7    C21   S    
C5    H7    S    
C19   N3    D    
C1    O3    A    
C23   C31   A    
C3    C37   S    
C41   C42   A    
C24   C32   A    
C38   H17   S    
C11   H11   S    
Cu2   N3    S    
C44   C45   A    
Cu2   O7    S    
Cu1   O8    S    
C17   C18   S    
C33   H1    S    
C49   H28   S    
C9    C11   A    
Cu1   O1    S    
C10   C12   A    
Cu2   O2    S    
C19   H16   S    
C16   C18   D    
C50   H31   S    
C12   C14   A    
C9    H9    S    
C40   H19   S    
C10   H10   S    
C25   C27   A    
C26   O12   S    
C36   H6    S    
C25   O11   S    
C45   H23   S    
C15   O14   S    
C20   N4    D    
C35   H5    S    
C15   C17   D    
C6    H8    S    
C21   O7    A    
C25   N1    A    
C38   C39   A    
C3    C5    A    
C26   N2    A    
C42   H21   S    
C12   H12   S    
C46   H24   S    
C23   N1    A    
C24   N2    A    
C26   C28   A    
Cu2   O3    S    
C28   C30   A    
C37   C38   A    
C29   C31   A    
C30   C32   A    
C11   C13   A    
C33   C35   A    
C14   N1    S    
C34   C36   A    
C4    C14   A    
C49   H27   S    
C21   O5    A    
C24   O10   S    
C22   O6    A    
C50   H32   S    
C4    C43   S    
C8    C10   A    
C43   C44   A    
C31   C36   A    
C2    O4    A    
