data_mof_unit_3772.cif
_audit_creation_date              2012-12-10T20:31:58-0500
_audit_creation_method            fapswitch 2.2
_symmetry_space_group_name_H-M    P1
_symmetry_Int_Tables_number       1
_space_group_crystal_system       triclinic
_cell_length_a                    9.867542
_cell_length_b                    10.683551
_cell_length_c                    15.420948
_cell_angle_alpha                 89.970978
_cell_angle_beta                  67.428665
_cell_angle_gamma                 90.019433
_cell_volume                      1501.15845842

loop_
_atom_site_label
_atom_site_type_symbol
_atom_type_description
_atom_site_fract_x
_atom_site_fract_y
_atom_site_fract_z
_atom_type_partial_charge
C1    C     C_R   0.499219 0.739912 0.501013 0.876315
C2    C     C_R   0.657398 0.334821 0.064271 0.174303
C3    C     C_R   0.547527 0.426730 0.103405 0.093438
C4    C     C_R   0.408038 0.494379 0.676457 0.902987
C5    C     C_R   0.767099 0.317583 0.099794 -0.307382
C6    C     C_R   0.765132 0.385701 0.177761 -0.000410
C7    C     C_R   0.550374 0.497674 0.178809 -0.290749
C8    C     C_R   0.391303 0.936371 0.483385 0.131248
C9    C     C_R   0.492045 0.871707 0.509495 -0.101887
C10   C     C_R   0.579312 0.935269 0.548485 -0.243288
C11   C     C_R   0.580005 0.064688 0.548148 -0.177751
C12   C     C_R   0.377835 0.433810 0.926337 0.006509
C13   C     C_R   0.491915 0.128464 0.509913 -0.111174
C14   C     C_R   0.390910 0.064093 0.483973 0.144036
C15   C     C_3   0.366560 0.072341 0.394291 -0.489267
C16   C     C_R   0.499213 0.260146 0.501168 0.895135
C17   C     C_3   0.368062 0.930559 0.393114 -0.489981
C18   C     C_R   0.889617 0.566928 0.565698 0.226591
C19   C     C_R   0.962480 0.422443 0.442651 -0.070655
C20   C     C_R   0.106812 0.423146 0.442052 -0.130602
C21   C     C_R   0.031775 0.566317 0.566113 0.203810
C22   C     C_3   0.028612 0.703937 0.582118 -0.501697
C23   C     C_R   0.250124 0.506403 0.973954 0.143773
C24   C     C_3   0.875636 0.704824 0.580659 -0.526523
C25   C     C_R   0.592421 0.497479 0.323220 0.863853
C26   C     C_R   0.347051 0.481264 0.779284 -0.090923
C27   C     C_R   0.647589 0.469613 0.222114 -0.074329
C28   C     C_R   0.162679 0.548567 0.926994 -0.195782
C29   C     C_R   0.210432 0.535409 0.830427 -0.227182
C30   C     C_R   0.428579 0.423694 0.826806 -0.061783
C31   C     C_2   0.886533 0.364438 0.209759 0.373978
C32   C     C_2   0.574146 0.368157 0.771155 0.385393
C33   C     C_R   0.457729 0.386929 0.979226 0.047806
C34   C     C_R   0.438996 0.445206 0.065391 0.069930
C35   C     C_R   0.311582 0.517623 0.110698 -0.207709
C36   C     C_R   0.215178 0.542491 0.066887 -0.173954
C37   C     C_R   0.553956 0.283713 0.950401 -0.249704
C38   C     C_R   0.654754 0.259744 0.991081 -0.228644
H1    H     H_    0.118242 0.598243 0.103555 0.179627
H2    H     H_    0.189952 0.363093 0.393815 0.150688
H3    H     H_    0.030009 0.727226 0.652014 0.197581
H4    H     H_    0.471215 0.570977 0.209592 0.151564
H5    H     H_    0.110338 0.755080 0.522183 0.219987
H6    H     H_    0.788649 0.729591 0.649534 0.197368
H7    H     H_    0.870255 0.755605 0.519131 0.219768
H8    H     H_    0.732007 0.183460 0.964314 0.152592
H9    H     H_    0.061803 0.599292 0.964108 0.145595
H10   H     H_    0.145484 0.576613 0.794894 0.159116
H11   H     H_    0.281093 0.552661 0.181256 0.162193
H12   H     H_    0.853778 0.249925 0.067176 0.138382
H13   H     H_    0.551401 0.219637 0.896910 0.180315
H14   H     H_    0.938642 0.273240 0.200574 0.050615
H15   H     H_    0.671088 0.399534 0.782024 0.067255
H16   H     H_    0.650580 0.885711 0.575328 0.165862
H17   H     H_    0.653138 0.114042 0.573710 0.209653
H18   H     H_    0.257474 0.112754 0.405032 0.204584
H19   H     H_    0.460876 0.115072 0.336100 0.196661
H20   H     H_    0.260214 0.889486 0.401870 0.201347
H21   H     H_    0.463711 0.890404 0.334505 0.198521
H22   H     H_    0.936301 0.360518 0.395926 0.168310
N1    N     N_R   0.856900 0.500860 0.500610 -0.101599
N2    N     N_R   0.142540 0.500820 0.500610 -0.105831
O1    O     O_R   0.385310 0.683210 0.499990 -0.618478
O2    O     O_2   0.585522 0.284695 0.714729 -0.588107
O3    O     O_R   0.614650 0.683240 0.500000 -0.621974
O4    O     O_R   0.319830 0.499970 0.632240 -0.618026
O5    O     O_R   0.549170 0.500000 0.632250 -0.593008
O6    O     O_R   0.385350 0.316760 0.500000 -0.618222
O7    O     O_R   0.614690 0.316790 0.500010 -0.606010
O8    O     O_R   0.450830 0.500000 0.367750 -0.621123
O9    O     O_R   0.680170 0.500030 0.367760 -0.558770
O10   O     O_2   0.936681 0.450383 0.240228 -0.586006
Zn1   Zn    Zn3+2 0.346870 0.499980 0.499990 0.943040
Zn2   Zn    Zn3+2 0.653130 0.500020 0.500010 0.988799

loop_
_geom_bond_atom_site_label_1
_geom_bond_atom_site_label_2
_ccdc_geom_bond_type
C4    O4    A    
C28   H9    S    
C18   C21   A    
C35   C36   A    
C31   H14   S    
C12   C23   A    
C18   C24   S    
C24   H7    S    
C28   C29   A    
C3    C7    A    
C5    C6    A    
C37   H13   S    
C22   H3    S    
C7    C27   A    
C34   C35   A    
C7    H4    S    
C19   C20   A    
C8    C9    A    
C35   H11   S    
C1    O3    A    
N2    Zn1   S    
C25   O9    A    
C9    C10   A    
C17   H20   S    
C6    C31   S    
C13   C14   A    
C15   H19   S    
C1    O1    A    
C29   H10   S    
C1    C9    S    
C32   O2    D    
O1    Zn1   S    
C3    C34   A    
O6    Zn1   S    
O4    Zn1   S    
C33   C37   A    
O3    Zn2   S    
C37   C38   A    
C4    O5    A    
C2    C38   A    
C6    C27   A    
O8    Zn1   S    
C33   C34   A    
O7    Zn2   S    
O5    Zn2   S    
C23   C28   A    
C21   N2    A    
C17   H21   S    
C16   O6    A    
C31   O10   D    
C26   C30   A    
C24   H6    S    
C22   C24   S    
C5    H12   S    
C2    C5    A    
C32   H15   S    
C11   H17   S    
C15   C17   S    
C8    C14   A    
C12   C30   A    
C36   H1    S    
C16   O7    A    
O9    Zn2   S    
C4    C26   S    
C18   N1    A    
N1    Zn2   S    
C25   C27   S    
C8    C17   S    
C15   H18   S    
C2    C3    A    
C30   C32   S    
C11   C13   A    
C19   N1    A    
C20   H2    S    
C20   N2    A    
C10   H16   S    
C38   H8    S    
C10   C11   A    
C26   C29   A    
C23   C36   A    
C13   C16   S    
C14   C15   S    
C19   H22   S    
C25   O8    A    
C12   C33   A    
C21   C22   S    
C22   H5    S    
