data_mof_unit_3815.cif
_audit_creation_date              2012-12-11T15:54:59-0500
_audit_creation_method            fapswitch 2.2
_symmetry_space_group_name_H-M    P1
_symmetry_Int_Tables_number       1
_space_group_crystal_system       triclinic
_cell_length_a                    17.52324
_cell_length_b                    24.701465
_cell_length_c                    15.068872
_cell_angle_alpha                 89.690416
_cell_angle_beta                  126.450768
_cell_angle_gamma                 89.974485
_cell_volume                      5246.40299157

loop_
_atom_site_label
_atom_site_type_symbol
_atom_type_description
_atom_site_fract_x
_atom_site_fract_y
_atom_site_fract_z
_atom_type_partial_charge
C1    C     C_R   0.903703 0.871687 0.089441 -0.064988
C2    C     C_R   0.149002 0.848948 0.095438 -0.152799
C3    C     C_R   0.316765 0.645626 0.996066 -0.000745
C4    C     C_R   0.703442 0.000405 0.625655 -0.031941
C5    C     C_R   0.203444 0.500405 0.625654 -0.031944
C6    C     C_R   0.051678 0.998343 0.360862 -0.002754
C7    C     C_R   0.551623 0.498340 0.360824 -0.002703
C8    C     C_R   0.267068 0.954352 0.241230 -0.130936
C9    C     C_R   0.267151 0.045154 0.240870 -0.131861
C10   C     C_R   0.767068 0.454352 0.241231 -0.130927
C11   C     C_R   0.767151 0.545154 0.240871 -0.131865
C12   C     C_R   0.025380 0.045192 0.758456 -0.134891
C13   C     C_R   0.648145 0.651040 0.093829 -0.134835
C14   C     C_R   0.023846 0.954178 0.758040 -0.119782
C15   C     C_R   0.525375 0.545187 0.758444 -0.134924
C16   C     C_R   0.523838 0.454172 0.758038 -0.119737
C17   C     C_2   0.870801 0.990350 0.330751 0.615406
C18   C     C_2   0.024455 0.892573 0.464023 0.575426
C19   C     C_2   0.370723 0.490487 0.330692 0.615849
C20   C     C_2   0.524139 0.392593 0.463755 0.575321
C21   C     C_2   0.596124 0.178178 0.801851 0.455626
C22   C     C_2   0.601477 0.815494 0.791048 0.495768
C23   C     C_2   0.096120 0.678164 0.801868 0.455788
C24   C     C_R   0.648998 0.348947 0.095438 -0.152829
C25   C     C_2   0.101494 0.315463 0.791015 0.495691
C26   C     C_2   0.624462 0.117855 0.947536 0.577450
C27   C     C_2   0.620531 0.880791 0.926005 0.583504
C28   C     C_2   0.124492 0.617854 0.947589 0.577383
C29   C     C_2   0.120455 0.380786 0.925884 0.583428
C30   C     C_2   0.544294 0.205833 0.996809 0.433072
C31   C     C_2   0.535283 0.796621 0.975500 0.489436
C32   C     C_2   0.044304 0.705840 0.996826 0.433115
C33   C     C_2   0.035202 0.296617 0.975380 0.489373
C34   C     C_2   0.759071 0.153669 0.792438 0.348339
C35   C     C_R   0.323134 0.999559 0.264296 0.000993
C36   C     C_2   0.762508 0.845927 0.792711 0.378010
C37   C     C_2   0.259069 0.653668 0.792436 0.348341
C38   C     C_2   0.262504 0.345929 0.792718 0.378041
C39   C     C_2   0.788579 0.150902 0.183517 0.567080
C40   C     C_2   0.763824 0.850166 0.162029 0.522665
C41   C     C_2   0.288606 0.650917 0.183539 0.566992
C42   C     C_2   0.263639 0.350232 0.161881 0.522281
C43   C     C_2   0.556983 0.958369 0.644494 0.454379
C44   C     C_2   0.549049 0.058688 0.619756 0.586971
C45   C     C_2   0.056985 0.458371 0.644495 0.454332
C46   C     C_R   0.823135 0.499558 0.264297 0.000989
C47   C     C_2   0.049054 0.558690 0.619756 0.586987
C48   C     C_R   0.055781 0.999409 0.733424 -0.004880
C49   C     C_R   0.555759 0.499398 0.733398 -0.004861
C50   C     C_R   0.119539 0.817816 0.006304 0.010303
C51   C     C_R   0.118445 0.181951 0.003492 0.093016
C52   C     C_R   0.619532 0.317812 0.006306 0.010298
C53   C     C_R   0.903683 0.127211 0.090019 -0.086473
C54   C     C_R   0.618454 0.681946 0.003487 0.092938
C55   C     C_3   0.958107 0.014913 0.433085 -0.211449
C56   C     C_3   0.090133 0.940395 0.524340 -0.223185
C57   C     C_3   0.458089 0.514981 0.433071 -0.211607
C58   C     C_3   0.589933 0.440361 0.524182 -0.222988
C59   C     C_3   0.959430 0.005255 0.534414 -0.486264
C60   C     C_3   0.109792 0.945889 0.638091 -0.393633
C61   C     C_3   0.459394 0.505317 0.534387 -0.486262
C62   C     C_3   0.609601 0.445831 0.637937 -0.393817
C63   C     C_3   0.130450 0.039934 0.546948 -0.415434
C64   C     C_R   0.403700 0.371689 0.089442 -0.064552
C65   C     C_3   0.630494 0.539867 0.546968 -0.415483
C66   C     C_3   0.056450 0.997153 0.462513 0.242435
C67   C     C_3   0.556389 0.497146 0.462465 0.242462
C68   C     C_3   0.063384 0.999125 0.640870 0.381554
C69   C     C_3   0.563338 0.499106 0.640828 0.381574
C70   C     C_R   0.814490 0.131002 0.904410 0.063432
C71   C     C_R   0.815404 0.868546 0.903866 0.039931
C72   C     C_R   0.314490 0.631002 0.904410 0.063427
C73   C     C_R   0.315396 0.368553 0.903867 0.039741
C74   C     C_3   0.123567 0.046202 0.644389 -0.412660
C75   C     C_R   0.403685 0.627212 0.090019 -0.086410
C76   C     C_3   0.623635 0.546136 0.644426 -0.412583
C77   C     C_3   0.644069 0.174894 0.925307 -0.161037
C78   C     C_3   0.642549 0.822614 0.912375 -0.231312
C79   C     C_3   0.144077 0.674893 0.925328 -0.161094
C80   C     C_3   0.142520 0.322608 0.912321 -0.231378
C81   C     C_3   0.094635 0.721855 0.945987 -0.282442
C82   C     C_3   0.091650 0.277067 0.934214 -0.244818
C83   C     C_3   0.594626 0.221853 0.945973 -0.282440
C84   C     C_3   0.591681 0.777071 0.934269 -0.244849
C85   C     C_3   0.276984 0.740778 0.962390 -0.419654
C86   C     C_R   0.055892 0.847452 0.911732 -0.119497
C87   C     C_3   0.282430 0.257543 0.967941 -0.381345
C88   C     C_3   0.776991 0.240778 0.962409 -0.419644
C89   C     C_3   0.782397 0.757531 0.967856 -0.381198
C90   C     C_3   0.794287 0.198555 0.123743 -0.206355
C91   C     C_3   0.785948 0.802908 0.117568 -0.191300
C92   C     C_3   0.294305 0.698565 0.123747 -0.206395
C93   C     C_3   0.285865 0.302958 0.117551 -0.191114
C94   C     C_3   0.756622 0.187267 0.999899 0.109826
C95   C     C_3   0.755707 0.811582 0.995922 0.104525
C96   C     C_3   0.256627 0.687271 0.999901 0.109821
C97   C     C_R   0.055888 0.152184 0.909903 -0.142618
C98   C     C_3   0.255685 0.311599 0.995923 0.104707
C99   C     C_3   0.166836 0.768671 0.009312 0.280844
C100  C     C_3   0.165152 0.230865 0.005241 0.329666
C101  C     C_3   0.666829 0.268667 0.009314 0.280809
C102  C     C_3   0.665169 0.730853 0.005234 0.329563
C103  C     C_3   0.213623 0.785381 0.952340 -0.445813
C104  C     C_3   0.217670 0.213057 0.955573 -0.477897
C105  C     C_3   0.713629 0.285380 0.952358 -0.445790
C106  C     C_3   0.717634 0.713051 0.955497 -0.477925
C107  C     C_3   0.246383 0.749633 0.128301 -0.327014
C108  C     C_R   0.555888 0.347450 0.911734 -0.119498
C109  C     C_3   0.241186 0.251207 0.123846 -0.461430
C110  C     C_3   0.746365 0.249622 0.128301 -0.327042
C111  C     C_3   0.741248 0.751167 0.123845 -0.461077
C112  C     C_3   0.477475 0.948488 0.353239 -0.401218
C113  C     C_3   0.476409 0.050111 0.350866 -0.364233
C114  C     C_3   0.977474 0.448485 0.353243 -0.401220
C115  C     C_3   0.976411 0.550108 0.350863 -0.364223
C116  C     C_R   0.749466 0.955716 0.690453 -0.122081
C117  C     C_R   0.748670 0.044821 0.690428 -0.174597
C118  C     C_R   0.249468 0.455716 0.690452 -0.122042
C119  C     C_R   0.555889 0.652182 0.909899 -0.142604
C120  C     C_R   0.248670 0.544821 0.690427 -0.174596
C121  C     C_3   0.581230 0.947842 0.456973 -0.407749
C122  C     C_3   0.583027 0.048245 0.446943 -0.341185
C123  C     C_3   0.081230 0.447840 0.456975 -0.407759
C124  C     C_3   0.083028 0.548242 0.446939 -0.341195
C125  C     C_3   0.433048 0.998419 0.462192 -0.413429
C126  C     C_3   0.933049 0.498422 0.462193 -0.413449
C127  C     C_3   0.425839 0.999281 0.354460 0.337653
C128  C     C_3   0.925840 0.499280 0.354461 0.337655
C129  C     C_3   0.603487 0.000270 0.526079 0.225445
C130  C     C_R   0.148143 0.151042 0.093831 -0.134867
C131  C     C_3   0.103489 0.500269 0.526079 0.225456
C132  C     C_3   0.536781 0.004284 0.564651 -0.135600
C133  C     C_3   0.036783 0.504285 0.564651 -0.135584
C134  C     C_R   0.040752 0.044447 0.301082 -0.063163
C135  C     C_R   0.044485 0.953876 0.301520 -0.045548
C136  C     C_R   0.540725 0.544446 0.301068 -0.063090
C137  C     C_R   0.544463 0.453874 0.301505 -0.045575
C138  C     C_R   0.816953 0.853388 0.994645 -0.090137
C139  C     C_R   0.816763 0.145625 0.996066 -0.000697
C140  C     C_R   0.316938 0.353402 0.994645 -0.089956
H1    H     H_    0.933785 0.865442 0.175025 0.134661
H2    H     H_    0.187784 0.947267 0.703586 0.157806
H3    H     H_    0.778742 0.758912 0.892198 0.187839
H4    H     H_    0.685391 0.143664 0.733000 0.051752
H5    H     H_    0.690265 0.858333 0.730025 0.027411
H6    H     H_    0.185387 0.643666 0.733003 0.051758
H7    H     H_    0.190270 0.358345 0.730021 0.027470
H8    H     H_    0.774801 0.110466 0.150185 0.081401
H9    H     H_    0.692078 0.857774 0.135157 0.038293
H10   H     H_    0.274832 0.610479 0.150216 0.081473
H11   H     H_    0.191915 0.357724 0.135190 0.038548
H12   H     H_    0.743996 0.915836 0.658942 0.115956
H13   H     H_    0.422610 0.540199 0.540735 0.164465
H14   H     H_    0.740938 0.085201 0.659143 0.132417
H15   H     H_    0.244002 0.415836 0.658942 0.115920
H16   H     H_    0.240938 0.585201 0.659141 0.132429
H17   H     H_    0.592936 0.910723 0.505439 0.148185
H18   H     H_    0.604062 0.087885 0.489335 0.179737
H19   H     H_    0.092935 0.410722 0.505445 0.148190
H20   H     H_    0.104065 0.587883 0.489330 0.179748
H21   H     H_    0.545329 0.916978 0.616112 0.080149
H22   H     H_    0.598460 0.062488 0.708691 0.099078
H23   H     H_    0.045311 0.416980 0.616107 0.080209
H24   H     H_    0.687596 0.447136 0.703443 0.157805
H25   H     H_    0.098464 0.562489 0.708691 0.099113
H26   H     H_    0.288712 0.912485 0.255999 0.097753
H27   H     H_    0.289129 0.086879 0.255348 0.104655
H28   H     H_    0.788711 0.412484 0.255999 0.097757
H29   H     H_    0.789130 0.586878 0.255351 0.104659
H30   H     H_    0.032901 0.086976 0.743528 0.100640
H31   H     H_    0.029395 0.912024 0.744997 0.104471
H32   H     H_    0.532894 0.586969 0.743505 0.100642
H33   H     H_    0.529401 0.412016 0.745035 0.104389
H34   H     H_    0.089921 0.085842 0.636690 0.167559
H35   H     H_    0.195820 0.046012 0.724030 0.168970
H36   H     H_    0.590089 0.585801 0.636809 0.167535
H37   H     H_    0.695890 0.545883 0.724064 0.168982
H38   H     H_    0.035304 0.739538 0.865120 0.108479
H39   H     H_    0.034581 0.258285 0.854262 0.109579
H40   H     H_    0.535296 0.239539 0.865109 0.108491
H41   H     H_    0.933513 0.132737 0.175573 0.080137
H42   H     H_    0.534585 0.758305 0.854312 0.109573
H43   H     H_    0.158539 0.794449 0.863275 0.161088
H44   H     H_    0.166005 0.202998 0.866666 0.158541
H45   H     H_    0.658552 0.294452 0.863294 0.161068
H46   H     H_    0.665935 0.703008 0.866587 0.158544
H47   H     H_    0.870901 0.209088 0.173235 0.123787
H48   H     H_    0.863609 0.795133 0.175283 0.150201
H49   H     H_    0.370917 0.709099 0.173227 0.123812
H50   H     H_    0.363529 0.295209 0.175338 0.150056
H51   H     H_    0.718799 0.243245 0.177481 0.217655
H52   H     H_    0.433791 0.365439 0.175028 0.134536
H53   H     H_    0.712875 0.757140 0.172207 0.205421
H54   H     H_    0.218830 0.743260 0.177494 0.217674
H55   H     H_    0.212777 0.257182 0.172170 0.205384
H56   H     H_    0.300675 0.782122 0.171607 0.134805
H57   H     H_    0.297687 0.219730 0.170247 0.159360
H58   H     H_    0.800659 0.282108 0.171623 0.134814
H59   H     H_    0.797729 0.719675 0.170199 0.159316
H60   H     H_    0.352604 0.752661 0.023421 0.210467
H61   H     H_    0.357424 0.246481 0.035208 0.184091
H62   H     H_    0.852611 0.252658 0.023453 0.210500
H63   H     H_    0.433517 0.632741 0.175573 0.080147
H64   H     H_    0.857396 0.746454 0.035078 0.184091
H65   H     H_    0.256867 0.822773 0.989954 0.184363
H66   H     H_    0.261241 0.175914 0.997619 0.182535
H67   H     H_    0.756875 0.322770 0.989984 0.184368
H68   H     H_    0.761192 0.675898 0.997499 0.182535
H69   H     H_    0.443730 0.910408 0.352854 0.155257
H70   H     H_    0.446137 0.087852 0.358059 0.190656
H71   H     H_    0.943728 0.410407 0.352861 0.155262
H72   H     H_    0.946139 0.587851 0.358054 0.190662
H73   H     H_    0.474994 0.948849 0.277718 0.172521
H74   H     H_    0.918551 0.968634 0.525376 0.199408
H75   H     H_    0.466680 0.052070 0.270922 0.154105
H76   H     H_    0.974992 0.448844 0.277721 0.172513
H77   H     H_    0.966681 0.552066 0.270918 0.154098
H78   H     H_    0.629485 0.944772 0.432058 0.179052
H79   H     H_    0.624943 0.043082 0.413887 0.164765
H80   H     H_    0.129484 0.444768 0.432060 0.179050
H81   H     H_    0.124944 0.543077 0.413883 0.164754
H82   H     H_    0.401630 0.959778 0.465135 0.138921
H83   H     H_    0.386933 0.030260 0.460057 0.195465
H84   H     H_    0.901628 0.459782 0.465138 0.138928
H85   H     H_    0.086437 0.908897 0.656964 0.159948
H86   H     H_    0.886937 0.530265 0.460057 0.195471
H87   H     H_    0.050969 0.085955 0.327861 0.078901
H88   H     H_    0.063192 0.912566 0.328557 0.048367
H89   H     H_    0.550941 0.585953 0.327857 0.078892
H90   H     H_    0.563192 0.412566 0.328555 0.048305
H91   H     H_    0.013857 0.833537 0.827342 0.119073
H92   H     H_    0.014539 0.165667 0.824885 0.115948
H93   H     H_    0.513851 0.333534 0.827345 0.119039
H94   H     H_    0.514540 0.665666 0.824882 0.115956
H95   H     H_    0.189531 0.163157 0.179287 0.110226
H96   H     H_    0.418435 0.468724 0.525291 0.199390
H97   H     H_    0.190553 0.836869 0.181260 0.099644
H98   H     H_    0.689534 0.663155 0.179286 0.110242
H99   H     H_    0.690550 0.336868 0.181260 0.099644
H100  H     H_    0.950412 0.059425 0.416770 0.159335
H101  H     H_    0.158599 0.929732 0.539064 0.095382
H102  H     H_    0.450499 0.559499 0.416837 0.159302
H103  H     H_    0.658378 0.429648 0.538895 0.095327
H104  H     H_    0.827853 0.961363 0.337226 0.094428
H105  H     H_    0.044657 0.860865 0.432145 0.001929
H106  H     H_    0.327706 0.461530 0.337111 0.094322
H107  H     H_    0.586128 0.408855 0.656702 0.159964
H108  H     H_    0.544289 0.360865 0.431857 0.001825
H109  H     H_    0.118680 0.080439 0.508447 0.166299
H110  H     H_    0.203456 0.026949 0.578748 0.186861
H111  H     H_    0.618816 0.580381 0.508530 0.166309
H112  H     H_    0.703466 0.526825 0.578740 0.186867
H113  H     H_    0.616204 0.208985 0.768119 0.038418
H114  H     H_    0.626773 0.783535 0.765728 0.017827
H115  H     H_    0.116182 0.708973 0.768118 0.038402
H116  H     H_    0.126832 0.283501 0.765749 0.017908
H117  H     H_    0.570207 0.110304 0.959308 0.067990
H118  H     H_    0.922566 0.040112 0.540703 0.164466
H119  H     H_    0.677478 0.909314 0.976689 0.052657
H120  H     H_    0.070306 0.610305 0.959474 0.067970
H121  H     H_    0.177382 0.409321 0.976564 0.052917
H122  H     H_    0.470179 0.216774 0.954355 0.058090
H123  H     H_    0.477258 0.824935 0.925716 0.100047
H124  H     H_    0.970177 0.716758 0.954344 0.058064
H125  H     H_    0.977181 0.324930 0.925569 0.100081
H126  H     H_    0.266978 0.738535 0.883101 0.190729
H127  H     H_    0.278817 0.258912 0.892309 0.187873
H128  H     H_    0.766997 0.238538 0.883127 0.190741
N1    N     N_R   0.950530 0.896220 0.057200 -0.057458
N2    N     N_R   0.818150 0.028600 0.792440 -0.034844
N3    N     N_R   0.318150 0.471400 0.792440 -0.035330
N4    N     N_R   0.318150 0.528600 0.792440 -0.034835
N5    N     N_R   0.025710 0.028600 0.207560 -0.037608
N6    N     N_R   0.025710 0.971400 0.207560 -0.037853
N7    N     N_R   0.525710 0.528600 0.207560 -0.037609
N8    N     N_R   0.525710 0.471400 0.207560 -0.037851
N9    N     N_R   0.181850 0.971400 0.207560 -0.047122
N10   N     N_R   0.181850 0.028600 0.207560 -0.046121
N11   N     N_R   0.681850 0.471400 0.207560 -0.047123
N12   N     N_R   0.950530 0.103780 0.057200 -0.047261
N13   N     N_R   0.681850 0.528600 0.207560 -0.046123
N14   N     N_R   0.974290 0.028600 0.792440 -0.039351
N15   N     N_R   0.974290 0.971400 0.792440 -0.042873
N16   N     N_R   0.474290 0.528600 0.792440 -0.039349
N17   N     N_R   0.474290 0.471400 0.792440 -0.042877
N18   N     N_R   0.049470 0.896220 0.942800 -0.040095
N19   N     N_R   0.049470 0.103780 0.942800 -0.041366
N20   N     N_R   0.549470 0.396220 0.942800 -0.040096
N21   N     N_R   0.549470 0.603780 0.942800 -0.041364
N22   N     N_R   0.106670 0.103780 0.057200 -0.048467
N23   N     N_R   0.450530 0.396220 0.057200 -0.057522
N24   N     N_R   0.106670 0.896220 0.057200 -0.040468
N25   N     N_R   0.606670 0.603780 0.057200 -0.048473
N26   N     N_R   0.606670 0.396220 0.057200 -0.040466
N27   N     N_R   0.450530 0.603780 0.057200 -0.047269
N28   N     N_R   0.893330 0.103780 0.942800 -0.045023
N29   N     N_R   0.893330 0.896220 0.942800 -0.046227
N30   N     N_R   0.393330 0.603780 0.942800 -0.045025
N31   N     N_R   0.393330 0.396220 0.942800 -0.046238
N32   N     N_R   0.818150 0.971400 0.792440 -0.035339
Ni1   Ni    Ni4+2 0.065600 0.934400 0.131190 0.215412
Ni2   Ni    Ni4+2 0.065600 0.065600 0.131190 0.231004
Ni3   Ni    Ni4+2 0.565600 0.434400 0.131190 0.215402
Ni4   Ni    Ni4+2 0.565600 0.565600 0.131190 0.231020
Ni5   Ni    Ni4+2 0.934400 0.065600 0.868810 0.266259
Ni6   Ni    Ni4+2 0.934400 0.934400 0.868810 0.258885
Ni7   Ni    Ni4+2 0.434400 0.565600 0.868810 0.266264
Ni8   Ni    Ni4+2 0.434400 0.434400 0.868810 0.258866
O1    O     O_2   0.845502 0.004152 0.238999 -0.571731
O2    O     O_2   0.539121 0.897533 0.875932 -0.532125
O3    O     O_2   0.163938 0.578428 0.942687 -0.571240
O4    O     O_2   0.039033 0.397514 0.875758 -0.532145
O5    O     O_2   0.584972 0.181805 0.084914 -0.592094
O6    O     O_2   0.548296 0.778609 0.059084 -0.618631
O7    O     O_2   0.084994 0.681837 0.084959 -0.592096
O8    O     O_2   0.048168 0.278604 0.058939 -0.618657
O9    O     O_2   0.798262 0.181120 0.762868 -0.581298
O10   O     O_2   0.802515 0.816364 0.767403 -0.597074
O11   O     O_2   0.298260 0.681113 0.762860 -0.581301
O12   O     O_2   0.951902 0.886750 0.456986 -0.575728
O13   O     O_2   0.302507 0.316350 0.767428 -0.597095
O14   O     O_2   0.807371 0.156598 0.275004 -0.577192
O15   O     O_2   0.826969 0.879696 0.230987 -0.582415
O16   O     O_2   0.307401 0.656619 0.275025 -0.577188
O17   O     O_2   0.326672 0.379930 0.230479 -0.582351
O18   O     O_2   0.585543 0.966626 0.739495 -0.539062
O19   O     O_2   0.507547 0.099369 0.565314 -0.580275
O20   O     O_2   0.085568 0.466628 0.739505 -0.539109
O21   O     O_2   0.007555 0.599372 0.565313 -0.580278
O22   O     O_2   0.345457 0.504312 0.238966 -0.571664
O23   O     O_2   0.451537 0.386835 0.456634 -0.575959
O24   O     O_2   0.525192 0.151701 0.736921 -0.546189
O25   O     O_2   0.531853 0.841003 0.718080 -0.557010
O26   O     O_2   0.025199 0.651676 0.736955 -0.546170
O27   O     O_2   0.031866 0.340953 0.718004 -0.557050
O28   O     O_2   0.663955 0.078431 0.942707 -0.571340

loop_
_geom_bond_atom_site_label_1
_geom_bond_atom_site_label_2
_ccdc_geom_bond_type
C16   H33   S    
C51   C97   A    
C99   C103  S    
C123  H80   S    
C24   C52   A    
C55   C59   S    
C121  H78   S    
C109  H57   S    
C38   O13   D    
C91   H48   S    
C125  H82   S    
C32   C81   S    
N14   N15   A    
C83   H40   S    
C64   N23   A    
C103  H43   S    
C86   H91   S    
N16   N17   A    
N19   Ni5   S    
C113  H70   S    
C33   O8    D    
C106  H68   S    
C47   H25   S    
C85   C96   S    
N2    Ni5   S    
C87   H127  S    
N3    N4    A    
C17   O1    D    
C130  H95   S    
C100  C104  S    
C31   H123  S    
C32   H124  S    
C19   O22   D    
C113  C122  S    
C89   C106  S    
N20   N26   A    
C85   C103  S    
C36   C71   S    
C123  C131  S    
C100  C109  S    
C49   C69   S    
C94   C139  S    
C86   N18   A    
C102  C111  S    
C126  H86   S    
C64   H52   S    
C25   H116  S    
C4    C116  A    
C52   C101  S    
C114  H76   S    
C16   C49   A    
C22   C78   S    
C76   H37   S    
N14   Ni5   S    
C7    C137  A    
C88   H128  S    
C81   C99   S    
C101  C110  S    
C93   H50   S    
N21   N25   A    
C30   H122  S    
C8    C35   A    
C57   H102  S    
C114  C128  S    
C122  H18   S    
C27   O2    D    
N25   Ni4   S    
C35   C127  S    
N26   Ni3   S    
C4    C129  S    
C115  H72   S    
C11   H29   S    
C9    N10   A    
C44   C132  S    
C30   O5    D    
C92   H49   S    
C44   O19   D    
C13   C54   A    
C64   C140  A    
C53   C139  A    
C137  H90   S    
C81   H38   S    
C24   N26   A    
C57   C61   S    
C63   C74   S    
C14   N15   A    
N21   Ni7   S    
C136  H89   S    
C45   C133  S    
C120  N4    A    
C112  H69   S    
C119  N21   A    
C84   H42   S    
C3    C72   A    
C45   H23   S    
C79   C96   S    
C134  H87   S    
C45   O20   D    
C26   H117  S    
C123  H19   S    
C56   C66   S    
C124  H20   S    
N16   Ni7   S    
C28   O3    D    
C15   H32   S    
C41   O16   D    
N11   N13   A    
C31   C84   S    
C58   C67   S    
C63   H110  S    
C47   O21   D    
C10   H28   S    
C125  C127  S    
C11   C46   A    
C88   H62   S    
C16   N17   A    
C42   O17   D    
N17   Ni8   S    
C53   N12   A    
C73   N31   A    
C42   C93   S    
C84   C102  S    
C112  C121  S    
C8    N9    A    
C29   C80   S    
C74   H34   S    
C43   O18   D    
C39   O14   D    
C1    N1    A    
C68   C74   S    
C77   C94   S    
C92   C96   S    
C69   C76   S    
C2    N24   A    
N20   Ni8   S    
C112  C127  S    
C2    C50   A    
C25   O27   D    
C22   O25   D    
C59   H118  S    
C29   O4    D    
C10   N11   A    
C3    C75   A    
N30   Ni7   S    
C15   C49   A    
N9    N10   A    
C15   N16   A    
C107  H56   S    
C23   O26   D    
C88   C94   S    
C122  H79   S    
N5    Ni2   S    
C80   C82   S    
C75   H63   S    
N7    Ni4   S    
C14   C48   A    
C28   H120  S    
C112  H73   S    
C115  C128  S    
C114  H71   S    
C82   H39   S    
C71   N29   A    
C6    C135  A    
C108  N20   A    
C85   H60   S    
N24   Ni1   S    
C42   H11   S    
C114  C123  S    
C31   O6    D    
C37   H6    S    
C4    C117  A    
C136  N7    A    
C20   C58   S    
C51   C100  S    
C126  C128  S    
C83   C101  S    
C85   H126  S    
C103  H65   S    
C14   H31   S    
C2    H97   S    
C13   N25   A    
N18   N24   A    
C5    C118  A    
C129  C132  S    
C7    C136  A    
N1    Ni1   S    
C88   C105  S    
C18   H105  S    
C36   O10   D    
N12   N28   A    
C109  H55   S    
C40   C91   S    
N8    Ni3   S    
C7    C67   S    
C36   H5    S    
C89   H64   S    
C65   H112  S    
C134  N5    A    
C90   C110  S    
C34   O9    D    
C26   O28   D    
C19   H106  S    
C93   C109  S    
C58   C62   S    
C110  H58   S    
C25   C80   S    
N7    N8    A    
C12   C48   A    
C27   C78   S    
N23   Ni3   S    
C19   C57   S    
C34   H4    S    
C65   C76   S    
C97   H92   S    
C90   H47   S    
N28   Ni5   S    
C110  H51   S    
C120  H16   S    
C30   C83   S    
C28   C79   S    
C75   N27   A    
C60   H2    S    
C62   H24   S    
C65   C67   S    
C39   H8    S    
C104  H66   S    
C55   H100  S    
C33   C82   S    
C34   C70   S    
C122  C129  S    
N15   Ni6   S    
C87   C98   S    
C63   C66   S    
C70   C139  A    
C47   C133  S    
C18   O12   D    
C44   H22   S    
C90   C94   S    
C71   C138  A    
N9    Ni1   S    
C125  H83   S    
N11   Ni3   S    
C5    C120  A    
C76   H36   S    
C41   H10   S    
C56   C60   S    
C62   C69   S    
C33   H125  S    
C89   C95   S    
C78   C95   S    
C92   C107  S    
N19   N22   A    
C48   C68   S    
N13   Ni4   S    
C106  H46   S    
C24   H99   S    
C111  H53   S    
C63   H109  S    
C11   N13   A    
N6    Ni1   S    
C55   C66   S    
N32   Ni6   S    
C115  C124  S    
C80   C98   S    
C54   C102  S    
C121  C129  S    
C72   N30   A    
C13   H98   S    
C99   C107  S    
C137  N8    A    
N12   Ni2   S    
C74   H35   S    
C89   H3    S    
C37   O11   D    
C40   H9    S    
C58   H103  S    
C38   H7    S    
C1    H1    S    
C87   C104  S    
C5    C131  S    
C124  H81   S    
C60   C68   S    
C37   C72   S    
C117  H14   S    
C9    C35   A    
C87   H61   S    
C56   H101  S    
N4    Ni7   S    
N1    N29   A    
C117  N2    A    
C59   H74   S    
C50   C99   S    
C46   C128  S    
C43   C132  S    
C126  H84   S    
N31   Ni8   S    
C77   C83   S    
C91   C111  S    
C60   H85   S    
C105  H45   S    
C111  H59   S    
C17   H104  S    
C10   C46   A    
C29   H121  S    
C3    C96   S    
N22   Ni2   S    
C70   N28   A    
N23   N31   A    
C17   C55   S    
C39   C90   S    
C18   C56   S    
N18   Ni6   S    
C121  H17   S    
C57   C67   S    
C97   N19   A    
C51   C130  A    
C105  H67   S    
N27   N30   A    
C101  C105  S    
C26   C77   S    
C135  H88   S    
C9    H27   S    
C126  C133  S    
C23   H115  S    
C79   C81   S    
C12   H30   S    
C32   O7    D    
C21   H113  S    
C124  C131  S    
C98   C140  S    
C53   H41   S    
C59   C68   S    
C119  H94   S    
C21   O24   D    
C20   H108  S    
C130  N22   A    
N5    N6    A    
C118  H15   S    
N3    Ni8   S    
C116  N32   A    
C8    H26   S    
C43   H21   S    
N10   Ni2   S    
C65   H111  S    
C113  H75   S    
N29   Ni6   S    
C116  H12   S    
N2    N32   A    
C118  N3    A    
C61   C69   S    
C108  H93   S    
C95   C138  S    
C104  H44   S    
C82   C100  S    
C131  C133  S    
C40   O15   D    
C61   H13   S    
C113  C127  S    
C73   C140  A    
C27   H119  S    
C135  N6    A    
C6    C134  A    
C125  C132  S    
C62   H107  S    
C102  C106  S    
C107  H54   S    
C22   H114  S    
C50   C86   A    
C78   C84   S    
C6    C66   S    
C41   C92   S    
C52   C108  A    
C91   C95   S    
C21   C77   S    
C61   H96   S    
C115  H77   S    
C23   C79   S    
C54   C119  A    
C93   C98   S    
C1    C138  A    
C20   O23   D    
C12   N14   A    
N27   Ni4   S    
C38   C73   S    
