data_mof_unit_1214.cif
_audit_creation_date              2012-12-10T21:10:42-0500
_audit_creation_method            fapswitch 2.2
_symmetry_space_group_name_H-M    P1
_symmetry_Int_Tables_number       1
_space_group_crystal_system       triclinic
_cell_length_a                    17.897784
_cell_length_b                    17.593227
_cell_length_c                    11.424448
_cell_angle_alpha                 89.68645
_cell_angle_beta                  90.958201
_cell_angle_gamma                 90.576194
_cell_volume                      3596.59209597

loop_
_atom_site_label
_atom_site_type_symbol
_atom_type_description
_atom_site_fract_x
_atom_site_fract_y
_atom_site_fract_z
_atom_type_partial_charge
C1    C     C_R   0.354155 0.499862 0.499482 0.863091
C2    C     C_R   0.645840 0.500190 0.500504 0.875912
C3    C     C_R   0.728596 0.500067 0.501712 -0.029194
C4    C     C_R   0.271395 0.499960 0.498341 -0.029359
C5    C     C_R   0.768116 0.431656 0.502852 -0.187492
C6    C     C_R   0.230997 0.431532 0.497364 -0.187548
C7    C     C_R   0.846155 0.431825 0.502920 -0.167603
C8    C     C_R   0.152918 0.431323 0.497484 -0.163887
C9    C     C_R   0.885905 0.500296 0.501259 0.154581
C10   C     C_R   0.114083 0.499649 0.498885 0.154625
C11   C     C_1   0.966280 0.500189 0.500265 -0.058844
C12   C     C_1   0.033708 0.499719 0.499885 -0.059339
C13   C     C_R   0.443301 0.834487 0.443514 0.396533
C14   C     C_R   0.560767 0.834512 0.552469 0.378476
C15   C     C_R   0.441733 0.751673 0.456197 -0.102545
C16   C     C_R   0.559767 0.751519 0.541285 -0.098425
C17   C     C_R   0.501306 0.879869 0.501474 -0.145491
C18   C     C_1   0.500280 0.967857 0.505721 -0.174004
C19   C     C_1   0.499100 0.040175 0.504701 0.116775
C20   C     C_R   0.502638 0.499459 0.260894 0.846093
C21   C     C_R   0.499096 0.500377 0.738925 0.867859
C22   C     C_R   0.461960 0.170422 0.414042 0.229529
C23   C     C_R   0.535828 0.170190 0.590436 0.229457
C24   C     C_R   0.463640 0.253135 0.416518 0.343469
C25   C     C_R   0.537240 0.252898 0.584799 0.343841
C26   C     C_R   0.498747 0.127886 0.502772 -0.101496
C27   C     C_R   0.477145 0.631692 0.116141 -0.128545
C28   C     C_R   0.543094 0.634503 0.896302 -0.101917
C29   C     C_R   0.513367 0.695009 0.077582 0.380745
C30   C     C_R   0.534562 0.698350 0.961553 0.288255
C31   C     C_R   0.513811 0.567059 0.939187 0.018636
C32   C     C_R   0.492909 0.564805 0.060825 0.017541
C33   C     C_R   0.501868 0.498358 0.127567 -0.060574
C34   C     C_R   0.501735 0.501205 0.872029 -0.060621
C35   C     C_R   0.514932 0.434678 0.059733 -0.211837
C36   C     C_R   0.492592 0.435616 0.939917 -0.214648
C37   C     C_R   0.847108 0.568652 0.502076 -0.157822
C38   C     C_R   0.153796 0.568143 0.497786 -0.154524
C39   C     C_R   0.769023 0.568483 0.502198 -0.154291
C40   C     C_R   0.231841 0.568350 0.497771 -0.158381
H1    H     H_    0.537486 0.383810 0.096979 0.141919
H2    H     H_    0.470910 0.385356 0.901638 0.144900
H3    H     H_    0.876883 0.622543 0.501988 0.137693
H4    H     H_    0.124610 0.621589 0.497354 0.137694
H5    H     H_    0.740360 0.622148 0.501777 0.163784
H6    H     H_    0.261255 0.622249 0.497847 0.160565
H7    H     H_    0.738688 0.377769 0.503186 0.168744
H8    H     H_    0.259670 0.377879 0.497348 0.165660
H9    H     H_    0.875304 0.378356 0.503856 0.133308
H10   H     H_    0.123177 0.377411 0.497128 0.132453
H11   H     H_    0.391295 0.722969 0.426213 0.146728
H12   H     H_    0.611208 0.723129 0.565833 0.158111
N1    N     N_R   0.500000 0.707230 0.500000 -0.145584
N2    N     N_R   0.500000 0.292770 0.500000 -0.179773
O1    O     O_R   0.389110 0.566570 0.499990 -0.629059
O2    O     O_R   0.610890 0.566570 0.500010 -0.615882
O3    O     O_R   0.389090 0.433480 0.499980 -0.589228
O4    O     O_R   0.610910 0.433480 0.500020 -0.592076
O5    O     O_R   0.500000 0.566560 0.316760 -0.620528
O6    O     O_R   0.500000 0.566560 0.683240 -0.608743
O7    O     O_R   0.499970 0.433470 0.316760 -0.603079
O8    O     O_R   0.500030 0.433470 0.683240 -0.615378
Zn1   Zn    Zn3+2 0.500000 0.588860 0.500000 0.993843
Zn2   Zn    Zn3+2 0.500000 0.411140 0.500000 1.026464
O9    O     O_3   0.432752 0.129336 0.320285 -0.632721
C41   C     C_3   0.363541 0.155411 0.274116 0.156900
H13   H     H_    0.322884 0.113946 0.304187 0.150585
H14   H     H_    0.338126 0.207921 0.307183 0.168692
C42   C     C_3   0.364608 0.146102 0.140630 -0.920857
H15   H     H_    0.325487 0.100789 0.112531 0.228653
H16   H     H_    0.345655 0.195517 0.090526 0.232756
H17   H     H_    0.421806 0.130521 0.113126 0.275185
O10   O     O_3   0.562744 0.129475 0.685427 -0.632135
C43   C     C_3   0.636671 0.147566 0.718824 0.155122
H18   H     H_    0.670575 0.103062 0.679128 0.144051
H19   H     H_    0.664687 0.198803 0.682679 0.167511
C44   C     C_3   0.643802 0.139464 0.851344 -0.912337
H20   H     H_    0.687575 0.098556 0.875283 0.219507
H21   H     H_    0.659112 0.192807 0.893926 0.238077
H22   H     H_    0.591038 0.117287 0.887276 0.278980
O11   O     O_3   0.422315 0.296320 0.341539 -0.593167
C45   C     C_3   0.453584 0.295653 0.230830 0.168233
H23   H     H_    0.464179 0.238588 0.196773 0.161125
H24   H     H_    0.512245 0.318639 0.236802 0.129394
C46   C     C_3   0.396107 0.333095 0.149141 -0.785275
H25   H     H_    0.395948 0.395116 0.160680 0.279119
H26   H     H_    0.407489 0.318256 0.057389 0.190134
H27   H     H_    0.339218 0.312304 0.170428 0.248260
O12   O     O_3   0.583229 0.294874 0.656183 -0.591186
C47   C     C_3   0.554065 0.295159 0.768004 0.143353
H28   H     H_    0.541019 0.239044 0.806075 0.166696
H29   H     H_    0.498056 0.320405 0.763654 0.149055
C48   C     C_3   0.609756 0.336514 0.844846 -0.815145
H30   H     H_    0.608394 0.398418 0.827508 0.280374
H31   H     H_    0.596527 0.324234 0.936455 0.195737
H32   H     H_    0.665275 0.316728 0.824004 0.261004
C49   C     C_2   0.409578 0.639001 0.191634 0.485887
H33   H     H_    0.408633 0.681972 0.256135 0.059100
O13   O     O_2   0.356524 0.596112 0.180525 -0.587694
C50   C     C_2   0.593383 0.644272 0.793027 0.493205
H34   H     H_    0.587132 0.694367 0.741841 0.070524
O14   O     O_2   0.640393 0.598571 0.771017 -0.599191
O15   O     O_3   0.517002 0.757943 0.146485 -0.639734
C51   C     C_3   0.453044 0.802352 0.127763 0.131435
H35   H     H_    0.417885 0.795769 0.203772 0.186640
H36   H     H_    0.416278 0.788050 0.049980 0.163751
C52   C     C_3   0.478833 0.884176 0.121863 -0.786656
H37   H     H_    0.524709 0.892715 0.062009 0.243513
H38   H     H_    0.434244 0.924086 0.098088 0.217808
H39   H     H_    0.508344 0.897632 0.205291 0.248263
O16   O     O_3   0.506819 0.756986 0.898561 -0.629023
C53   C     C_3   0.561313 0.812628 0.890079 0.093588
H40   H     H_    0.603040 0.797693 0.826424 0.165265
H41   H     H_    0.590901 0.825073 0.975540 0.156267
C54   C     C_3   0.521173 0.881117 0.840001 -0.756272
H42   H     H_    0.471353 0.897020 0.891099 0.245825
H43   H     H_    0.558553 0.931079 0.842297 0.207569
H44   H     H_    0.499561 0.867805 0.750915 0.260882
O17   O     O_3   0.386301 0.863255 0.370155 -0.653756
C55   C     C_3   0.391222 0.941969 0.346453 0.168635
H45   H     H_    0.447843 0.959450 0.319644 0.181811
H46   H     H_    0.372686 0.972496 0.427025 0.175665
C56   C     C_3   0.341699 0.965985 0.244161 -0.928424
H47   H     H_    0.294232 0.991723 0.281224 0.241682
H48   H     H_    0.371667 0.006884 0.189923 0.261969
H49   H     H_    0.323779 0.911186 0.199514 0.285240
O18   O     O_3   0.623318 0.862236 0.616592 -0.634179
C57   C     C_3   0.629186 0.941166 0.634213 0.172411
H50   H     H_    0.577499 0.965783 0.667323 0.180494
H51   H     H_    0.645749 0.969440 0.550828 0.155562
C58   C     C_3   0.687122 0.956274 0.728633 -0.855603
H52   H     H_    0.736028 0.986391 0.698136 0.222226
H53   H     H_    0.660999 0.993752 0.795330 0.213554
H54   H     H_    0.706323 0.904098 0.779046 0.266509

loop_
_geom_bond_atom_site_label_1
_geom_bond_atom_site_label_2
_ccdc_geom_bond_type
C41   H14   S    
C48   H30   S    
C27   C29   A    
O10   C43   S    
C36   H2    S    
O16   C53   S    
C58   H54   S    
C57   H50   S    
C51   H36   S    
C49   H33   S    
C56   H47   S    
C44   H20   S    
C40   H6    S    
C5    H7    S    
C43   H19   S    
O3    Zn2   S    
O6    Zn1   S    
C15   N1    A    
C56   H48   S    
C41   C42   S    
C24   N2    A    
C54   H42   S    
C29   O15   S    
C18   C19   T    
C23   C26   A    
C20   O7    A    
C42   H16   S    
C19   C26   S    
C16   N1    A    
C53   H40   S    
O8    Zn2   S    
C49   O13   D    
C4    C40   A    
C54   H43   S    
C43   C44   S    
O1    Zn1   S    
C52   H37   S    
C14   C16   A    
C15   H11   S    
C55   C56   S    
C39   H5    S    
C28   C50   S    
C46   H26   S    
C41   H13   S    
C3    C39   A    
C48   H31   S    
C52   H38   S    
C14   C17   A    
C23   O10   S    
C10   C12   S    
C53   H41   S    
C51   H35   S    
C13   O17   S    
C55   H46   S    
O11   C45   S    
C44   H21   S    
O4    Zn2   S    
C31   C34   A    
C43   H18   S    
C53   C54   S    
C25   N2    A    
C7    H9    S    
C21   O6    A    
C4    C6    A    
C5    C7    A    
C56   H49   S    
C6    C8    A    
C21   C34   S    
C3    C5    A    
C46   H25   S    
C14   O18   S    
C35   C36   A    
C37   H3    S    
O7    Zn2   S    
C24   O11   S    
C22   O9    S    
C38   H4    S    
C29   C30   A    
C1    O3    A    
C47   H29   S    
C31   C32   A    
C11   C12   T    
C54   H44   S    
C50   O14   D    
C17   C18   S    
O2    Zn1   S    
C20   O5    A    
C9    C11   S    
C21   O8    A    
C6    H8    S    
C20   C33   S    
O9    C41   S    
C48   H32   S    
C45   H24   S    
C13   C15   A    
C52   H39   S    
C22   C24   A    
O18   C57   S    
C57   C58   S    
C8    H10   S    
C42   H17   S    
C55   H45   S    
C46   H27   S    
C47   C48   S    
C9    C37   A    
C44   H22   S    
C7    C9    A    
C27   C49   S    
C27   C32   A    
C25   O12   S    
C28   C31   A    
C16   H12   S    
C58   H53   S    
C57   H51   S    
O17   C55   S    
C2    O4    A    
C45   C46   S    
O5    Zn1   S    
C13   C17   A    
C30   O16   S    
C10   C38   A    
C1    C4    S    
C32   C33   A    
C28   C30   A    
C2    C3    S    
C1    O1    A    
C37   C39   A    
C2    O2    A    
C38   C40   A    
N1    Zn1   S    
C47   H28   S    
N2    Zn2   S    
C50   H34   S    
C33   C35   A    
C34   C36   A    
C23   C25   A    
C42   H15   S    
C35   H1    S    
C8    C10   A    
C45   H23   S    
C22   C26   A    
O15   C51   S    
O12   C47   S    
C51   C52   S    
C58   H52   S    
