data_mof_unit_4803.cif
_audit_creation_date              2012-12-11T15:42:36-0500
_audit_creation_method            fapswitch 2.2
_symmetry_space_group_name_H-M    P1
_symmetry_Int_Tables_number       1
_space_group_crystal_system       triclinic
_cell_length_a                    6.930173
_cell_length_b                    14.55514
_cell_length_c                    16.207574
_cell_angle_alpha                 90.384899
_cell_angle_beta                  89.981545
_cell_angle_gamma                 90.046724
_cell_volume                      1634.81461172

loop_
_atom_site_label
_atom_site_type_symbol
_atom_type_description
_atom_site_fract_x
_atom_site_fract_y
_atom_site_fract_z
_atom_type_partial_charge
O1    O     O_R   0.505810 0.583360 0.413880 -0.540103
O2    O     O_R   0.175870 0.595480 0.585520 -0.542166
O3    O     O_R   0.005540 0.416640 0.586120 -0.540629
C1    C     C_R   0.344746 0.617209 0.614785 0.697312
O4    O     O_R   0.176100 0.594390 0.414490 -0.543983
O5    O     O_R   0.005770 0.415540 0.413870 -0.541926
C2    C     C_R   0.345228 0.616454 0.385705 0.684793
O6    O     O_R   0.505580 0.584460 0.586130 -0.540581
O7    O     O_3   0.339190 0.441320 0.500000 -0.368878
V1    V     V_3+5 0.064350 0.510890 0.500000 1.399338
O8    O     O_R   0.676050 0.404520 0.414480 -0.539668
C3    C     C_R   0.844450 0.380543 0.386802 0.693797
O9    O     O_R   0.675830 0.405610 0.585510 -0.541031
C4    C     C_R   0.845038 0.383634 0.613701 0.743998
V2    V     V_3+5 0.564340 0.489110 0.500000 1.398232
O10   O     O_3   0.839370 0.558680 0.500000 -0.370426
C5    C     C_2   0.720483 0.208760 0.785949 -0.129086
C6    C     C_2   0.885791 0.181757 0.822511 -0.312671
H1    H     H_    0.584442 0.179985 0.806817 0.136872
H2    H     H_    0.023529 0.209825 0.803750 0.127596
C7    C     C_2   0.708037 0.277213 0.718011 -0.136866
C8    C     C_2   0.861590 0.315396 0.680467 -0.310131
H3    H     H_    0.563891 0.296132 0.698102 0.134760
H4    H     H_    0.006887 0.297142 0.698493 0.129773
C9    C     C_R   0.032812 0.241440 0.204558 -0.161079
H5    H     H_    0.162698 0.240257 0.167380 0.130873
C10   C     C_R   0.018672 0.305189 0.269284 -0.191845
H6    H     H_    0.137771 0.352085 0.279373 0.126293
C11   C     C_R   0.852648 0.309926 0.319356 -0.058549
C12   C     C_R   0.698821 0.247249 0.303065 0.154894
C13   C     C_R   0.713996 0.185019 0.236632 -0.146130
H7    H     H_    0.596301 0.137796 0.224318 0.121061
C14   C     C_R   0.879598 0.181486 0.186897 -0.084144
C15   C     C_R   0.202785 0.742375 0.704494 -0.160769
H8    H     H_    0.072656 0.741840 0.667501 0.130365
C16   C     C_R   0.216841 0.804475 0.770656 -0.190819
H9    H     H_    0.097562 0.850875 0.781806 0.125895
C17   C     C_R   0.382949 0.808327 0.820788 -0.060500
C18   C     C_R   0.537012 0.746426 0.802850 0.156041
C19   C     C_R   0.521995 0.685921 0.734995 -0.145063
H10   H     H_    0.639978 0.639309 0.721605 0.120951
C20   C     C_R   0.356222 0.683195 0.685257 -0.086533
C21   C     C_R   0.188437 0.723251 0.283830 -0.157482
H11   H     H_    0.047589 0.704982 0.307572 0.116596
C22   C     C_R   0.199672 0.786362 0.219088 -0.150432
H12   H     H_    0.066914 0.814889 0.195158 0.118660
C23   C     C_R   0.379361 0.812352 0.185878 -0.047042
C24   C     C_R   0.547491 0.773396 0.219328 -0.158243
H13   H     H_    0.688330 0.791663 0.195573 0.116475
C25   C     C_R   0.536255 0.710284 0.284076 -0.150609
H14   H     H_    0.669006 0.681749 0.308005 0.118683
C26   C     C_R   0.356565 0.684321 0.317307 -0.047062
O11   O     O_R   0.230120 0.912300 0.917180 -0.541504
O12   O     O_R   0.559740 0.902430 0.088770 -0.544534
O13   O     O_R   0.729930 0.081310 0.089370 -0.540862
C27   C     C_R   0.390643 0.880281 0.117534 0.683863
O14   O     O_R   0.559840 0.901330 0.917750 -0.538932
O15   O     O_R   0.730030 0.080210 0.917120 -0.536395
C28   C     C_R   0.391390 0.877688 0.889607 0.695334
O16   O     O_R   0.230020 0.913400 0.089430 -0.540190
O17   O     O_3   0.396460 0.055470 0.003290 -0.367921
V3    V     V_3+5 0.671360 0.985960 0.003250 1.397044
O18   O     O_R   0.059740 0.091300 0.917690 -0.545092
C29   C     C_R   0.891046 0.113216 0.889441 0.745020
O19   O     O_R   0.059640 0.092400 0.088720 -0.542986
C30   C     C_R   0.890814 0.114355 0.117635 0.695481
V4    V     V_3+5 0.171350 0.007820 0.003190 1.399922
O20   O     O_3   0.896380 0.938200 0.003220 -0.371367
C31   C     C_3   0.716221 0.740805 0.855466 -0.753279
H15   H     H_    0.675819 0.729887 0.920981 0.203784
H16   H     H_    0.810993 0.682857 0.836519 0.192883
H17   H     H_    0.802015 0.804715 0.849507 0.217896
C32   C     C_3   0.519790 0.242596 0.355966 -0.751310
H18   H     H_    0.560462 0.233605 0.421682 0.203990
H19   H     H_    0.433324 0.306051 0.348621 0.218033
H20   H     H_    0.425489 0.183875 0.338422 0.192310

loop_
_geom_bond_atom_site_label_1
_geom_bond_atom_site_label_2
_ccdc_geom_bond_type
O15   V3    S    
C3    C11   S    
C10   C11   A    
C32   H18   S    
C15   C20   A    
C1    O6    A    
O11   C28   A    
O14   V3    S    
C22   H12   S    
C16   H9    S    
C2    C26   S    
O5    C3    A    
C12   C13   A    
C21   C26   A    
O14   C28   A    
V2    O10   S    
O13   V3    S    
C15   H8    S    
C31   H16   S    
O8    V2    S    
C23   C24   A    
O16   V4    S    
O19   V4    S    
C25   C26   A    
C13   C14   A    
O1    V2    S    
O7    V1    S    
C6    H2    S    
C24   C25   A    
O9    C4    A    
C32   H19   S    
C31   H15   S    
C14   C30   S    
C5    C6    D    
O12   C27   A    
C22   C23   A    
C7    H3    S    
O15   C29   A    
O18   V4    S    
V4    O20   S    
C18   C19   A    
O4    C2    A    
C12   C32   S    
O12   V3    S    
C9    H5    S    
C5    C7    S    
C27   O16   A    
C31   H17   S    
O2    C1    A    
C21   H11   S    
C11   C12   A    
O17   V4    S    
C13   H7    S    
C25   H14   S    
C18   C31   S    
C21   C22   A    
O3    C4    A    
C19   H10   S    
O6    V2    S    
O9    V2    S    
C32   H20   S    
C8    H4    S    
O2    V1    S    
O13   C30   A    
C24   H13   S    
O1    C2    A    
O18   C29   A    
O5    V1    S    
O8    C3    A    
C9    C10   A    
V3    O20   S    
C4    C8    S    
C16   C17   A    
O7    V2    S    
O4    V1    S    
O3    V1    S    
V1    O10   S    
C6    C29   S    
C17   C18   A    
C1    C20   S    
C19   C20   A    
C5    H1    S    
C15   C16   A    
O17   V3    S    
O11   V4    S    
C17   C28   S    
O19   C30   A    
C10   H6    S    
C7    C8    D    
C9    C14   A    
C23   C27   S    
