data_mof_unit_1664.cif
_audit_creation_date              2012-12-10T19:12:24-0500
_audit_creation_method            fapswitch 2.2
_symmetry_space_group_name_H-M    P1
_symmetry_Int_Tables_number       1
_space_group_crystal_system       triclinic
_cell_length_a                    15.685523
_cell_length_b                    10.689045
_cell_length_c                    9.815598
_cell_angle_alpha                 89.144386
_cell_angle_beta                  89.407924
_cell_angle_gamma                 91.917033
_cell_volume                      1644.51406253

loop_
_atom_site_label
_atom_site_type_symbol
_atom_type_description
_atom_site_fract_x
_atom_site_fract_y
_atom_site_fract_z
_atom_type_partial_charge
C1    C     C_R   0.500576 0.257744 0.500310 0.965316
C2    C     C_3   0.082795 0.486877 0.502927 0.018320
C3    C     C_3   0.973688 0.575065 0.584489 0.460483
C4    C     C_3   0.916618 0.488790 0.499691 -0.079913
C5    C     C_3   0.031865 0.600708 0.459433 -0.169954
C6    C     C_3   0.974005 0.512452 0.373522 -0.264145
C7    C     C_1   0.173704 0.490325 0.503167 0.053368
C8    C     C_1   0.825775 0.491052 0.498205 0.106860
C9    C     C_3   0.553879 0.075665 0.630544 -0.211661
C10   C     C_3   0.566763 0.931724 0.624526 0.290130
C11   C     C_3   0.413486 0.059850 0.506485 0.245173
C12   C     C_R   0.338120 0.500740 0.500651 0.986630
C13   C     C_3   0.553608 0.076422 0.367526 -0.068126
C14   C     C_3   0.506174 0.121158 0.499556 -0.070247
C15   C     C_3   0.513508 0.878054 0.501421 -0.082906
C16   C     C_3   0.419714 0.916880 0.518061 -0.552124
C17   C     C_3   0.549530 0.932610 0.364548 -0.349714
C18   C     C_3   0.465901 0.377237 0.087383 -0.349946
C19   C     C_3   0.459903 0.377087 0.926260 0.358974
C20   C     C_3   0.438676 0.592476 0.075402 0.026688
C21   C     C_3   0.587140 0.523767 0.078204 0.306963
C22   C     C_3   0.452101 0.604159 0.915529 -0.310480
C23   C     C_R   0.509846 0.741335 0.499646 0.944301
C24   C     C_3   0.587435 0.510239 0.915689 -0.099461
C25   C     C_R   0.661754 0.497072 0.499352 0.940096
C26   C     C_3   0.968592 0.376881 0.542464 0.443383
C27   C     C_3   0.027000 0.398523 0.416489 -0.160606
C28   C     C_1   0.249112 0.495404 0.502345 -0.113929
C29   C     C_1   0.750537 0.493637 0.498064 -0.107433
C30   C     C_3   0.026154 0.462823 0.629919 -0.267040
H1    H     H_    0.050931 0.324996 0.348624 0.199426
H2    H     H_    0.537858 0.891224 0.720185 0.079849
H3    H     H_    0.381719 0.091464 0.600995 0.157381
H4    H     H_    0.394132 0.884498 0.619381 0.168641
H5    H     H_    0.520855 0.111368 0.275373 0.195179
H6    H     H_    0.612438 0.893512 0.339936 0.214895
H7    H     H_    0.506720 0.904119 0.280519 0.199854
H8    H     H_    0.379233 0.868757 0.440840 0.246230
H9    H     H_    0.403115 0.354965 0.136634 0.243765
H10   H     H_    0.505168 0.299405 0.122750 0.147866
H11   H     H_    0.495990 0.295801 0.891509 0.085292
H12   H     H_    0.371576 0.557327 0.093396 0.190787
H13   H     H_    0.390453 0.613066 0.863425 0.232063
H14   H     H_    0.617107 0.596763 0.868125 0.196215
H15   H     H_    0.950906 0.532806 0.269249 0.206099
H16   H     H_    0.487430 0.692824 0.887014 0.153629
H17   H     H_    0.059679 0.693305 0.426548 0.200259
H18   H     H_    0.048862 0.442445 0.734428 0.199417
H19   H     H_    0.509803 0.090144 0.718578 0.142900
N1    N     N_3   0.498170 0.499750 0.138610 -0.085064
N2    N     N_3   0.498850 0.496730 0.861320 -0.128992
O1    O     O_R   0.499980 0.314910 0.616040 -0.612994
O2    O     O_R   0.500040 0.314680 0.383960 -0.611386
O3    O     O_R   0.376750 0.500100 0.616020 -0.555152
O4    O     O_R   0.376810 0.499870 0.383940 -0.601523
O5    O     O_R   0.499960 0.685320 0.616040 -0.627938
O6    O     O_R   0.500020 0.685090 0.383960 -0.620972
O7    O     O_R   0.623190 0.500130 0.616060 -0.613766
O8    O     O_R   0.623250 0.499900 0.383980 -0.631831
Zn1   Zn    Zn3+2 0.499960 0.500150 0.654960 0.993892
Zn2   Zn    Zn3+2 0.500040 0.499850 0.345040 0.966128
N3    N     N_3   0.642514 0.123232 0.358122 -0.392699
H20   H     H_    0.668448 0.094625 0.265485 0.212981
H21   H     H_    0.644203 0.220945 0.353065 0.190827
S1    S     S_3+6 0.341239 0.098578 0.370346 0.032320
O9    O     O_2   0.372790 0.053416 0.235254 -0.312787
O10   O     O_2   0.256217 0.034947 0.401758 -0.247273
O11   O     O_3   0.327203 0.253015 0.360546 -0.556647
H22   H     H_    0.280592 0.263255 0.294381 0.391647
S2    S     S_3+6 0.923847 0.228712 0.596640 0.068050
O12   O     O_2   0.869237 0.245405 0.721327 -0.286289
O13   O     O_2   0.870250 0.174642 0.484472 -0.261333
O14   O     O_3   0.002992 0.131888 0.633266 -0.494671
H23   H     H_    0.973840 0.051514 0.660188 0.416199
S3    S     S_3+6 0.350927 0.334421 0.878273 0.020419
O15   O     O_2   0.348568 0.284422 0.736490 -0.290003
O16   O     O_2   0.318281 0.230986 0.972470 -0.268186
O17   O     O_3   0.284023 0.453485 0.890120 -0.591076
H24   H     H_    0.229929 0.421864 0.849948 0.394721
N4    N     N_3   0.616955 0.652413 0.108526 -0.470214
H25   H     H_    0.620954 0.664250 0.213430 0.247747
H26   H     H_    0.678590 0.668998 0.069019 0.183563
N5    N     N_3   0.647871 0.437473 0.140795 -0.404273
H27   H     H_    0.710280 0.462450 0.109996 0.194984
H28   H     H_    0.637094 0.344404 0.113650 0.179599
N6    N     N_3   0.640564 0.405396 0.875421 -0.492490
H29   H     H_    0.615804 0.357478 0.792770 0.248615
H30   H     H_    0.701843 0.439627 0.848622 0.231692
N7    N     N_3   0.444331 0.715273 0.139622 -0.396145
H31   H     H_    0.385623 0.758010 0.129613 0.203570
H32   H     H_    0.488743 0.775123 0.089590 0.190346
S4    S     S_3+6 0.938163 0.693256 0.695445 0.042093
O18   O     O_2   0.890891 0.788551 0.614496 -0.229582
O19   O     O_2   0.880221 0.634726 0.803188 -0.323242
O20   O     O_3   0.023178 0.762873 0.769149 -0.528158
H33   H     H_    0.999340 0.829796 0.825349 0.396738
N8    N     N_3   0.630980 0.152926 0.658799 -0.426826
H34   H     H_    0.648553 0.139207 0.760198 0.237955
H35   H     H_    0.682421 0.134197 0.595500 0.312041
S5    S     S_3+6 0.677183 0.884858 0.631029 0.033837
O21   O     O_2   0.727193 0.926485 0.506181 -0.223737
O22   O     O_2   0.719371 0.939528 0.754584 -0.285842
O23   O     O_3   0.680266 0.729265 0.645811 -0.577391
H36   H     H_    0.727744 0.712634 0.708468 0.409775

loop_
_geom_bond_atom_site_label_1
_geom_bond_atom_site_label_2
_ccdc_geom_bond_type
C6    H15   S    
O14   H23   S    
O20   H33   S    
S3    O15   D    
N8    H34   S    
C23   O5    A    
O3    Zn1   S    
C5    H17   S    
C26   C27   S    
C12   C28   S    
N5    H27   S    
C8    C29   T    
C30   H18   S    
C13   H5    S    
C10   C15   S    
C5    C6    S    
C11   C14   S    
N6    H30   S    
O7    Zn1   S    
C15   C16   S    
C15   C17   S    
C18   C19   S    
C1    O2    A    
S4    O18   D    
N3    H21   S    
O1    Zn1   S    
C2    C7    S    
C16   H4    S    
O2    Zn2   S    
C13   N3    S    
C21   N5    S    
O11   H22   S    
S1    O10   D    
C20   N1    S    
S2    O12   D    
C17   H6    S    
N7    H32   S    
C9    C10   S    
C4    C8    S    
C24   N2    S    
C15   C23   S    
C13   C14   S    
S5    O22   D    
C21   N1    S    
N8    H35   S    
C25   C29   S    
O8    Zn2   S    
C27   H1    S    
C11   H3    S    
C9    H19   S    
N4    H26   S    
C9    C14   S    
N6    H29   S    
S3    O17   S    
S5    O23   S    
C7    C28   T    
O5    Zn1   S    
C3    S4    S    
C3    C30   S    
C18   H9    S    
N3    H20   S    
C10   H2    S    
C11   C16   S    
C4    C26   S    
C6    C27   S    
S1    O11   S    
S2    O14   S    
S4    O19   D    
C17   H7    S    
C10   S5    S    
S3    O16   D    
C2    C27   S    
C4    C6    S    
C22   H16   S    
C20   C22   S    
C26   C30   S    
C26   S2    S    
C2    C5    S    
C25   O7    A    
C3    C4    S    
C18   N1    S    
C23   O6    A    
C9    N8    S    
N5    H28   S    
O17   H24   S    
C11   S1    S    
N4    H25   S    
C3    C5    S    
C20   H12   S    
O6    Zn2   S    
N2    Zn1   S    
C20   N7    S    
C13   C17   S    
C2    C30   S    
C19   S3    S    
C24   H14   S    
O4    Zn2   S    
C21   N4    S    
S5    O21   D    
S4    O20   S    
C1    O1    A    
C12   O4    A    
C19   N2    S    
C18   H10   S    
S1    O9    D    
C21   C24   S    
O23   H36   S    
N1    Zn2   S    
S2    O13   D    
C1    C14   S    
C25   O8    A    
N7    H31   S    
C24   N6    S    
C22   H13   S    
C12   O3    A    
C19   H11   S    
C16   H8    S    
C22   N2    S    
