data_mof_unit_4769.cif
_audit_creation_date              2013-03-05T16:31:07-0500
_audit_creation_method            fapswitch 2.2
_symmetry_space_group_name_H-M    P1
_symmetry_Int_Tables_number       1
_space_group_crystal_system       triclinic
_cell_length_a                    10.762279
_cell_length_b                    10.830892
_cell_length_c                    9.588731
_cell_angle_alpha                 89.667762
_cell_angle_beta                  89.273432
_cell_angle_gamma                 90.476553
_cell_volume                      1117.56320244

loop_
_atom_site_label
_atom_site_type_symbol
_atom_site_description
_atom_site_fract_x
_atom_site_fract_y
_atom_site_fract_z
_atom_type_partial_charge
O1    O     O_R   0.500000 0.319640 0.618810 -0.544504
O2    O     O_R   0.500010 0.319680 0.381230 -0.589720
C1    C     C_R   0.502037 0.262339 0.500157 0.811328
O3    O     O_R   0.319640 0.499980 0.618820 -0.518972
O4    O     O_R   0.319650 0.500020 0.381230 -0.593429
C2    C     C_R   0.262699 0.502781 0.500701 0.805066
Cu1   Cu    Cu3+1 0.499990 0.499980 0.640670 0.993401
Cu2   Cu    Cu3+1 0.500010 0.500020 0.359330 0.945848
O5    O     O_R   0.499990 0.680320 0.618770 -0.595509
O6    O     O_R   0.500000 0.680360 0.381190 -0.580046
O7    O     O_R   0.680350 0.499980 0.618770 -0.580212
O8    O     O_R   0.680360 0.500020 0.381180 -0.579462
C3    C     C_R   0.503363 0.737505 0.499613 0.763108
C4    C     C_R   0.737274 0.503272 0.499146 0.777987
H1    H     H_    0.113349 0.342085 0.381860 0.148704
C5    C     C_R   0.129354 0.708484 0.627762 -0.145591
H2    H     H_    0.229620 0.712238 0.630518 0.129621
C6    C     C_R   0.064218 0.806889 0.685746 -0.121686
H3    H     H_    0.114142 0.882628 0.733164 0.136709
C7    C     C_R   0.935090 0.808957 0.680797 -0.131293
H4    H     H_    0.884880 0.886185 0.724364 0.141956
C8    C     C_R   0.870325 0.712350 0.618504 -0.205405
H5    H     H_    0.770261 0.719090 0.614038 0.139104
C9    C     C_R   0.934281 0.610431 0.561783 0.099577
C10   C     C_R   0.065508 0.608969 0.565278 0.115647
C11   C     C_R   0.128897 0.509816 0.501638 -0.071410
C12   C     C_R   0.064203 0.416810 0.432484 -0.173224
H6    H     H_    0.887005 0.342805 0.379670 0.149464
C13   C     C_R   0.936005 0.417449 0.430730 -0.193615
C14   C     C_R   0.871046 0.511563 0.497336 -0.093780
C15   C     C_R   0.520685 0.062589 0.624271 0.111130
C16   C     C_R   0.514601 0.129090 0.499451 -0.099051
C17   C     C_R   0.527645 0.065173 0.372779 -0.212800
H7    H     H_    0.530620 0.113790 0.273731 0.169377
C18   C     C_R   0.528721 0.936420 0.372455 -0.207168
H8    H     H_    0.531693 0.889165 0.273279 0.160059
C19   C     C_R   0.517423 0.870582 0.498849 -0.087179
C20   C     C_R   0.523426 0.935403 0.624085 0.106279
C21   C     C_3   0.442437 0.925551 0.751346 -0.489278
C22   C     C_3   0.437130 0.065238 0.749753 -0.399552
H9    H     H_    0.351367 0.880661 0.730976 0.197233
H10   H     H_    0.492726 0.888423 0.842689 0.196037
H11   H     H_    0.342876 0.099390 0.725097 0.237733
H12   H     H_    0.482401 0.108519 0.841117 0.205779
C23   C     C_R   0.605832 0.526937 0.071734 0.250140
N1    N     N_R   0.500790 0.500930 0.147930 -0.215341
C24   C     C_R   0.399243 0.461808 0.077438 -0.137800
H13   H     H_    0.317630 0.430763 0.134847 0.182194
C25   C     C_R   0.398370 0.460934 0.929732 0.392481
N2    N     N_R   0.500790 0.500890 0.852020 -0.248031
C26   C     C_R   0.606138 0.526281 0.924852 0.204217
C27   C     C_3   0.681970 0.641952 0.917291 -0.486491
C28   C     C_3   0.680153 0.643471 0.075745 -0.475059
H14   H     H_    0.776178 0.625105 0.873245 0.222929
H15   H     H_    0.631656 0.720111 0.869247 0.202515
H16   H     H_    0.773298 0.629194 0.121671 0.210022
H17   H     H_    0.626948 0.721842 0.120069 0.201323
N3    N     N_R   0.287986 0.416934 0.865305 0.138686
O9    O     O_R   0.181665 0.466049 0.897965 -0.381952
O10   O     O_R   0.289100 0.311423 0.801742 -0.388095

loop_
_geom_bond_atom_site_label_1
_geom_bond_atom_site_label_2
_geom_bond_distance
_ccdc_geom_bond_type
O1    C1    1.299182 A    
O4    Cu2   1.949761 S    
C9    C10   1.413338 A    
C15   C20   1.378109 A    
C19   C20   1.396468 A    
C12   C13   1.380092 A    
C13   C14   1.394190 A    
C1    C16   1.450688 S    
C3    C19   1.447975 S    
C24   H13   1.080853 S    
C27   H15   1.109726 S    
O8    C4    1.293678 A    
Cu2   O8    1.954893 S    
C16   C17   1.407591 A    
C17   H7    1.083266 S    
N3    O9    1.301284 A    
C23   C28   1.489587 S    
Cu1   Cu2   2.697688 S    
C21   H9    1.110496 S    
C24   C25   1.416544 A    
C23   N1    1.364746 A    
C7    H4    1.082601 S    
Cu1   O7    1.949761 S    
C11   C12   1.395349 A    
C2    C11   1.442576 S    
C4    C14   1.441622 S    
O3    Cu1   1.954891 S    
C15   C22   1.493507 S    
Cu2   O6    1.965667 S    
H6    C13   1.084186 S    
C17   C18   1.394675 A    
C27   H14   1.110298 S    
N2    C26   1.365995 A    
C21   H10   1.110561 S    
O2    C1    1.295856 A    
O1    Cu1   1.965667 S    
O4    C2    1.292986 A    
O7    C4    1.293690 A    
C8    C9    1.413591 A    
C9    C14   1.413480 A    
C23   C26   1.408434 A    
O3    C2    1.294904 A    
C26   C27   1.490411 S    
C21   C22   1.514475 S    
C22   H12   1.111943 S    
C20   C21   1.493365 S    
C27   C28   1.519438 S    
C6    C7    1.391488 A    
C5    C6    1.394966 A    
C25   N2    1.387464 A    
C28   H16   1.111636 S    
C5    C10   1.413668 A    
Cu1   O5    1.963288 S    
C28   H17   1.111357 S    
C8    H5    1.081359 S    
C6    H3    1.082368 S    
O5    C3    1.296436 A    
Cu2   N1    2.026934 S    
C18   C19   1.406028 A    
C10   C11   1.414330 A    
N1    C24   1.358367 A    
N3    O10   1.298335 A    
O6    C3    1.297161 A    
C22   H11   1.110412 S    
O2    Cu2   1.963289 S    
C25   N3    1.425718 S    
C15   C16   1.395829 A    
Cu1   N2    2.026788 S    
C7    C8    1.393960 A    
C5    H2    1.080186 S    
H1    C12   1.084245 S    
C18   H8    1.082811 S    
