data_mof_unit_3025.cif
_audit_creation_date              2012-12-11T16:07:29-0500
_audit_creation_method            fapswitch 2.2
_symmetry_space_group_name_H-M    P1
_symmetry_Int_Tables_number       1
_space_group_crystal_system       triclinic
_cell_length_a                    7.030171
_cell_length_b                    14.613511
_cell_length_c                    15.849719
_cell_angle_alpha                 90.473508
_cell_angle_beta                  89.588418
_cell_angle_gamma                 89.674946
_cell_volume                      1628.20413492

loop_
_atom_site_label
_atom_site_type_symbol
_atom_type_description
_atom_site_fract_x
_atom_site_fract_y
_atom_site_fract_z
_atom_type_partial_charge
O1    O     O_R   0.494320 0.415010 0.412140 -0.514017
O2    O     O_R   0.824010 0.404260 0.587250 -0.557950
O3    O     O_R   0.994320 0.584990 0.587860 -0.540760
C1    C     C_R   0.654204 0.383015 0.617205 0.705615
O4    O     O_R   0.824040 0.403870 0.412760 -0.565595
O5    O     O_R   0.994350 0.584590 0.412130 -0.524054
C2    C     C_R   0.655778 0.383867 0.382227 0.723433
O6    O     O_R   0.494300 0.415410 0.587870 -0.541010
O7    O     O_3   0.660800 0.559290 0.500000 -0.366829
V1    V     V_3+5 0.935650 0.489000 0.500000 1.415527
O8    O     O_R   0.324060 0.595740 0.412750 -0.559667
C3    C     C_R   0.154353 0.617499 0.384535 0.726156
O9    O     O_R   0.324040 0.596130 0.587240 -0.540031
C4    C     C_R   0.154380 0.618167 0.615924 0.723971
V2    V     V_3+5 0.435660 0.511000 0.500000 1.435805
O10   O     O_3   0.160640 0.440710 0.500000 -0.383221
C5    C     C_3   0.954582 0.728951 0.723005 -0.166459
C6    C     C_3   0.036137 0.715822 0.812084 0.378025
H1    H     H_    0.807736 0.711820 0.703178 0.142579
C7    C     C_3   0.124010 0.811411 0.811567 -0.093443
C8    C     C_3   0.046886 0.824843 0.721841 -0.026586
C9    C     C_3   0.232445 0.784373 0.683522 -0.158344
C10   C     C_3   0.310194 0.770119 0.774232 -0.141293
C11   C     C_3   0.220553 0.672966 0.776221 -0.155582
C12   C     C_3   0.142066 0.688170 0.686389 -0.098892
H2    H     H_    0.313430 0.813085 0.629584 0.157530
H3    H     H_    0.456553 0.786976 0.794906 0.165375
H4    H     H_    0.289803 0.609566 0.799340 0.155059
C13   C     C_3   0.257360 0.841881 0.262548 -0.103548
C14   C     C_3   0.230088 0.777998 0.340943 -0.499830
H5    H     H_    0.136106 0.810722 0.389415 0.212825
H6    H     H_    0.365198 0.766191 0.375539 0.156261
H7    H     H_    0.397336 0.644902 0.247168 0.116961
C15   C     C_3   0.200762 0.707540 0.152971 -0.097004
C16   C     C_3   0.920858 0.790741 0.226645 0.193474
C17   C     C_3   0.124801 0.806917 0.186072 -0.141280
C18   C     C_3   0.139873 0.686426 0.313993 0.043037
C19   C     C_3   0.242311 0.647653 0.233670 -0.476949
C20   C     C_3   0.929883 0.706998 0.290054 0.191608
H8    H     H_    0.880570 0.642518 0.258943 0.070961
H9    H     H_    0.202947 0.574808 0.223787 0.173941
C21   C     C_3   0.438330 0.265574 0.692362 -0.125634
H10   H     H_    0.417685 0.230479 0.630475 0.180516
C22   C     C_3   0.427781 0.192368 0.763705 0.195092
H11   H     H_    0.314235 0.210273 0.810529 0.115501
H12   H     H_    0.553997 0.405812 0.792473 0.200146
C23   C     C_3   0.672753 0.357827 0.779074 -0.290274
C24   C     C_3   0.789586 0.234140 0.675540 0.212728
C25   C     C_3   0.639949 0.312845 0.689464 -0.099600
H13   H     H_    0.933147 0.264403 0.678212 0.069956
C26   C     C_3   0.620652 0.186167 0.811771 -0.059652
C27   C     C_3   0.676155 0.281863 0.848785 0.162869
C28   C     C_3   0.776032 0.160312 0.745589 -0.397182
H14   H     H_    0.744708 0.092109 0.717547 0.237040
H15   H     H_    0.917070 0.153765 0.776502 0.091866
H16   H     H_    0.824080 0.274692 0.872747 0.170693
C29   C     C_3   0.446030 0.319744 0.265380 0.193420
H17   H     H_    0.441017 0.388395 0.234449 0.039498
C30   C     C_3   0.430820 0.246710 0.193702 0.244931
H18   H     H_    0.412472 0.284226 0.133369 0.110109
C31   C     C_3   0.680920 0.213121 0.346775 0.306224
C32   C     C_3   0.795300 0.331215 0.241366 -0.492374
C33   C     C_3   0.644115 0.312609 0.311622 -0.126125
H19   H     H_    0.940326 0.327732 0.267544 0.213280
H20   H     H_    0.777125 0.401626 0.216297 0.185242
C34   C     C_3   0.619114 0.189642 0.185513 -0.142921
C35   C     C_3   0.670066 0.142163 0.270965 0.164439
C36   C     C_3   0.779500 0.260410 0.167902 -0.443600
H21   H     H_    0.751020 0.296865 0.107879 0.200013
H22   H     H_    0.918455 0.224823 0.159560 0.240305
H23   H     H_    0.810985 0.108927 0.259697 0.154556
O11   O     O_R   0.771990 0.083520 0.910980 -0.567106
O12   O     O_R   0.442180 0.095020 0.086060 -0.496151
O13   O     O_R   0.271950 0.914280 0.086680 -0.466848
C37   C     C_R   0.610430 0.119054 0.113642 0.733904
O14   O     O_R   0.442270 0.094630 0.911580 -0.547063
O15   O     O_R   0.272040 0.913890 0.910940 -0.532459
C38   C     C_R   0.611066 0.115366 0.881906 0.730656
O16   O     O_R   0.771900 0.083910 0.086710 -0.553331
O17   O     O_3   0.605520 0.939610 0.998840 -0.327531
V3    V     V_3+5 0.330640 0.009880 0.998810 1.629371
O18   O     O_R   0.942330 0.902710 0.911540 -0.541352
C39   C     C_R   0.111928 0.880811 0.882731 0.698328
O19   O     O_R   0.942240 0.903100 0.086030 -0.523322
C40   C     C_R   0.112082 0.878298 0.113367 0.808815
V4    V     V_3+5 0.830640 0.987830 0.998780 1.568804
O20   O     O_3   0.105630 0.058150 0.998800 -0.388972
O21   O     O_3   0.933438 0.680949 0.880286 -0.632040
H24   H     H_    0.860748 0.628658 0.857254 0.322408
C41   C     C_2   0.379040 0.707072 0.098020 0.395708
H25   H     H_    0.484282 0.653501 0.106381 0.066072
O22   O     O_2   0.395327 0.756046 0.036449 -0.508576
O23   O     O_3   0.794162 0.771560 0.160174 -0.639040
H26   H     H_    0.728335 0.712939 0.168673 0.269311
C42   C     C_2   0.854900 0.880851 0.268636 0.497031
H27   H     H_    0.839693 0.940905 0.229868 0.077580
O24   O     O_2   0.823590 0.889881 0.344155 -0.506904
O25   O     O_3   0.815738 0.722609 0.362418 -0.605970
H28   H     H_    0.697645 0.686298 0.356139 0.283807
C43   C     C_2   0.057885 0.661643 0.094512 0.429038
H29   H     H_    0.009707 0.698426 0.039404 0.137331
O26   O     O_2   0.996519 0.584802 0.106809 -0.536176
C44   C     C_2   0.273642 0.332146 0.701261 0.203288
H30   H     H_    0.191037 0.349838 0.646236 0.108125
O27   O     O_2   0.234496 0.368278 0.768820 -0.549234
O28   O     O_3   0.382721 0.106408 0.728724 -0.634938
H31   H     H_    0.247525 0.109699 0.711290 0.268423
O29   O     O_3   0.563303 0.306760 0.919181 -0.639370
H32   H     H_    0.431325 0.316754 0.899803 0.329131
O30   O     O_3   0.765223 0.193159 0.595842 -0.617697
H33   H     H_    0.881263 0.155918 0.584259 0.302198
C45   C     C_2   0.844305 0.419075 0.785303 0.391973
H34   H     H_    0.918093 0.442678 0.729652 0.075443
O31   O     O_2   0.895225 0.448115 0.853947 -0.482673
C46   C     C_2   0.952758 0.910219 0.691138 0.400393
H35   H     H_    0.029505 0.974332 0.692243 0.019948
O32   O     O_2   0.790066 0.908118 0.664927 -0.512655
O33   O     O_3   0.290605 0.312878 0.321656 -0.627429
H36   H     H_    0.220560 0.372067 0.321240 0.290735
O34   O     O_3   0.267978 0.191933 0.202022 -0.605884
H37   H     H_    0.269529 0.163972 0.258400 0.400975
O35   O     O_3   0.547026 0.193410 0.410999 -0.607767
H38   H     H_    0.420312 0.183063 0.386342 0.379412
O36   O     O_3   0.541775 0.072853 0.291063 -0.625391
H39   H     H_    0.567556 0.022360 0.251364 0.317929
C47   C     C_2   0.873316 0.207228 0.391132 0.453758
H40   H     H_    0.896572 0.247457 0.447717 0.095318
O37   O     O_2   0.000928 0.155666 0.368086 -0.534359
C48   C     C_2   0.459661 0.835808 0.237296 0.416403
H41   H     H_    0.548550 0.785376 0.266368 0.062700
O38   O     O_2   0.525104 0.884487 0.182553 -0.510578
C49   C     C_2   0.228267 0.940537 0.292168 0.408753
H42   H     H_    0.259162 0.959375 0.357067 0.129989
O39   O     O_2   0.178893 0.000628 0.243942 -0.529109

loop_
_geom_bond_atom_site_label_1
_geom_bond_atom_site_label_2
_ccdc_geom_bond_type
C34   C36   S    
C30   O34   S    
C28   H15   S    
C24   O30   S    
C42   H27   S    
C1    O6    A    
C35   O36   S    
C45   O31   D    
C41   H25   S    
C23   C25   S    
C28   H14   S    
C22   H11   S    
C13   C17   S    
C32   C33   S    
C6    C11   S    
C18   C19   S    
O19   V4    S    
C30   C34   S    
O5    C3    A    
C14   H5    S    
C29   C30   S    
C13   C49   S    
O28   H31   S    
O15   C39   A    
V2    O10   S    
O29   H32   S    
C6    C7    S    
C3    C18   S    
C31   C33   S    
O30   H33   S    
C32   H19   S    
O33   H36   S    
O8    V2    S    
C13   C48   S    
C16   C17   S    
C36   H21   S    
C46   O32   D    
C9    C12   S    
C15   C43   S    
C10   C11   S    
C31   C47   S    
O1    V2    S    
C10   H3    S    
O7    V1    S    
C15   C17   S    
C8    C46   S    
C24   H13   S    
C34   C35   S    
C30   H18   S    
O13   C40   A    
O1    C2    A    
C8    C9    S    
C21   C44   S    
O12   C37   A    
C21   C22   S    
O12   V3    S    
C45   H34   S    
C29   C33   S    
C16   O23   S    
C24   C28   S    
C26   C27   S    
C11   C12   S    
C19   H9    S    
C20   H8    S    
O4    C2    A    
C34   C37   S    
V4    O20   S    
C49   H42   S    
C20   O25   S    
O18   V4    S    
C5    C8    S    
C14   C18   S    
C31   O35   S    
C26   C28   S    
C16   C20   S    
C15   C41   S    
C13   C14   S    
C31   C35   S    
C41   O22   D    
C7    C10   S    
O15   V3    S    
C7    C8    S    
C43   O26   D    
C5    C6    S    
C44   O27   D    
O23   H26   S    
O19   C40   A    
C2    C33   S    
V3    O20   S    
O3    C4    A    
C22   C26   S    
C49   O39   D    
C24   C25   S    
O18   C39   A    
O6    V2    S    
C22   O28   S    
O9    V2    S    
C21   H10   S    
O13   V3    S    
O2    V1    S    
O34   H37   S    
C48   H41   S    
H12   C23   S    
C47   O37   D    
C32   H20   S    
C15   C19   S    
C11   H4    S    
O14   C38   A    
O17   V3    S    
O14   V3    S    
O5    V1    S    
O11   V4    S    
O8    C3    A    
C42   O24   D    
C23   C27   S    
C16   C42   S    
C17   C40   S    
O17   V4    S    
H7    C19   S    
C32   C36   S    
C1    C25   S    
C5    C12   S    
O7    V2    S    
C26   C38   S    
O4    V1    S    
C18   C20   S    
O3    V1    S    
V1    O10   S    
C14   H6    S    
C29   H17   S    
C47   H40   S    
O2    C1    A    
C43   H29   S    
C5    H1    S    
C35   H23   S    
C4    C12   S    
C6    O21   S    
C21   C25   S    
C27   H16   S    
O21   H24   S    
C27   O29   S    
C36   H22   S    
O25   H28   S    
C9    H2    S    
C7    C39   S    
O11   C38   A    
C44   H30   S    
C9    C10   S    
O36   H39   S    
C46   H35   S    
O35   H38   S    
O9    C4    A    
C37   O16   A    
O16   V4    S    
C23   C45   S    
C29   O33   S    
C48   O38   D    
