data_mof_unit_3633.cif
_audit_creation_date              2012-12-10T17:29:22-0500
_audit_creation_method            fapswitch 2.2
_symmetry_space_group_name_H-M    P1
_symmetry_Int_Tables_number       1
_space_group_crystal_system       triclinic
_cell_length_a                    12.002569
_cell_length_b                    12.858217
_cell_length_c                    13.19353
_cell_angle_alpha                 87.249332
_cell_angle_beta                  113.50146
_cell_angle_gamma                 93.965377
_cell_volume                      1862.34384587

loop_
_atom_site_label
_atom_site_type_symbol
_atom_type_description
_atom_site_fract_x
_atom_site_fract_y
_atom_site_fract_z
_atom_type_partial_charge
C1    C     C_R   0.476466 0.299397 0.497751 0.972381
C2    C     C_R   0.609733 0.496506 0.827588 -0.109364
C3    C     C_R   0.536601 0.811951 0.500463 -0.064240
C4    C     C_R   0.566223 0.492449 0.708204 0.957102
C5    C     C_R   0.459299 0.187891 0.492092 -0.248855
C6    C     C_R   0.332260 0.029723 0.433078 0.400208
C7    C     C_R   0.342988 0.138233 0.439460 0.417666
C8    C     C_R   0.563601 0.131199 0.534104 -0.376427
C9    C     C_R   0.554665 0.025172 0.521543 0.126833
C10   C     C_R   0.438590 0.973869 0.470321 -0.017736
C11   C     C_R   0.431170 0.867342 0.458721 -0.215225
C12   C     C_R   0.543547 0.521357 0.975734 -0.110792
C13   C     C_R   0.651616 0.862748 0.548611 -0.199939
C14   C     C_R   0.660656 0.969855 0.559212 -0.159250
C15   C     C_R   0.014631 0.611994 0.408747 0.428279
C16   C     C_R   0.522603 0.700536 0.500287 0.874814
C17   C     C_R   0.135727 0.599419 0.418753 -0.144197
C18   C     C_R   0.153527 0.450583 0.535782 -0.033140
C19   C     C_R   0.034820 0.460249 0.531151 0.001121
C20   C     C_R   0.964627 0.541597 0.467199 -0.018569
C21   C     C_R   0.845059 0.549536 0.462854 0.001577
C22   C     C_R   0.866488 0.402211 0.582622 0.017442
C23   C     C_R   0.528526 0.469211 0.878708 -0.094374
C24   C     C_R   0.984901 0.390698 0.589321 -0.281933
C25   C     C_R   0.433342 0.504363 0.291710 0.859318
C26   C     C_R   0.253102 0.426201 0.000644 -0.174608
C27   C     C_R   0.391167 0.500063 0.172713 -0.082729
C28   C     C_R   0.718433 0.554438 0.883531 -0.309259
C29   C     C_R   0.736103 0.602953 0.980368 -0.221343
C30   C     C_R   0.645261 0.595117 0.021492 0.566100
C31   C     C_3   0.169917 0.958538 0.463278 -0.290968
C32   C     C_3   0.213493 0.217941 0.284257 -0.239587
C33   C     C_3   0.966978 0.724501 0.254951 -0.286287
C34   C     C_R   0.454340 0.499748 0.020097 0.070250
C35   C     C_3   0.589635 0.752646 0.049074 -0.352703
C36   C     C_3   0.495569 0.245211 0.797659 -0.366476
C37   C     C_R   0.344544 0.441522 0.959563 0.097193
C38   C     C_R   0.332799 0.390270 0.865267 -0.332298
C39   C     C_R   0.428656 0.395269 0.831272 0.545836
C40   C     C_R   0.476821 0.524529 0.127982 -0.186781
C41   C     C_R   0.276006 0.456697 0.107282 -0.214616
H1    H     H_    0.208675 0.437555 0.141643 0.147203
H2    H     H_    0.207928 0.388235 0.584527 0.187751
H3    H     H_    0.167733 0.384230 0.953606 0.131736
H4    H     H_    0.566389 0.551609 0.183261 0.218669
H5    H     H_    0.782737 0.573212 0.845640 0.180400
H6    H     H_    0.814761 0.656129 0.016977 0.146756
H7    H     H_    0.342920 0.826694 0.419229 0.189585
H8    H     H_    0.157602 0.031649 0.498607 0.191540
H9    H     H_    0.227771 0.905967 0.530358 0.149069
H10   H     H_    0.078930 0.918027 0.423398 0.211775
H11   H     H_    0.190303 0.145732 0.235114 0.176541
H12   H     H_    0.733451 0.819555 0.581022 0.157115
H13   H     H_    0.290386 0.263625 0.273367 0.129215
H14   H     H_    0.133227 0.266509 0.250948 0.177611
H15   H     H_    0.971485 0.655720 0.208791 0.148359
H16   H     H_    0.050543 0.776557 0.276239 0.172802
H17   H     H_    0.889801 0.769787 0.199006 0.220731
H18   H     H_    0.491210 0.731067 0.003239 0.172584
H19   H     H_    0.627899 0.793176 0.992626 0.162655
H20   H     H_    0.597400 0.808489 0.113386 0.204151
H21   H     H_    0.467725 0.202048 0.859771 0.168194
H22   H     H_    0.593258 0.272054 0.835988 0.161336
H23   H     H_    0.749801 0.009123 0.598057 0.130489
H24   H     H_    0.485129 0.189834 0.732143 0.196549
H25   H     H_    0.652818 0.170067 0.575037 0.185153
H26   H     H_    0.788568 0.610483 0.413391 0.182350
H27   H     H_    0.828794 0.348031 0.627453 0.121636
H28   H     H_    0.036921 0.327696 0.639543 0.139308
H29   H     H_    0.178697 0.653887 0.378802 0.144475
H30   H     H_    0.253311 0.339265 0.822930 0.154836
N1    N     N_R   0.798200 0.480260 0.519790 -0.112283
N2    N     N_R   0.201820 0.519740 0.480210 -0.117305
O1    O     O_R   0.579910 0.341070 0.505280 -0.637873
O2    O     O_3   0.239547 0.194725 0.396743 -0.576747
O3    O     O_3   0.946350 0.695216 0.350755 -0.615096
O4    O     O_3   0.655370 0.664875 0.101535 -0.630761
O5    O     O_3   0.421054 0.329120 0.748790 -0.610809
O6    O     O_R   0.388440 0.353740 0.492580 -0.548704
O7    O     O_R   0.643280 0.490550 0.663120 -0.639340
O8    O     O_R   0.451810 0.503220 0.650420 -0.578802
O9    O     O_R   0.611560 0.646260 0.507420 -0.624252
O10   O     O_R   0.420090 0.658930 0.494720 -0.632978
O11   O     O_R   0.548190 0.496780 0.349580 -0.618899
O12   O     O_R   0.356720 0.509450 0.336880 -0.621888
O13   O     O_3   0.218512 0.979704 0.382730 -0.615952
Zn1   Zn    Zn3+2 0.627850 0.491540 0.508480 0.939288
Zn2   Zn    Zn3+2 0.372150 0.508460 0.491520 0.977403

loop_
_geom_bond_atom_site_label_1
_geom_bond_atom_site_label_2
_ccdc_geom_bond_type
C8    H25   S    
C33   H17   S    
C34   C37   A    
C41   H1    S    
C19   C20   A    
O11   Zn1   S    
C32   O2    S    
C26   H3    S    
C12   C23   A    
C28   H5    S    
C37   C38   A    
C29   H6    S    
C1    C5    S    
C1    O1    A    
C28   C29   A    
C4    O7    A    
O7    Zn1   S    
C38   C39   A    
O9    Zn1   S    
C35   H18   S    
C18   C19   A    
C32   H13   S    
C32   H11   S    
C30   O4    S    
C4    O8    A    
C8    C9    A    
C25   O11   A    
O1    Zn1   S    
C36   H22   S    
C9    C10   A    
C32   H14   S    
C3    C13   A    
C33   H15   S    
O10   Zn2   S    
C17   H29   S    
C31   O13   S    
C13   C14   A    
C21   H26   S    
C17   N2    A    
C11   H7    S    
C40   H4    S    
C31   H8    S    
C36   H21   S    
C22   N1    A    
O6    Zn2   S    
C24   H28   S    
C13   H12   S    
C15   C20   A    
C21   N1    A    
C39   O5    S    
C5    C7    A    
C36   H24   S    
C7    O2    S    
C35   O4    S    
C16   O10   A    
C35   H19   S    
C2    C4    S    
C9    C14   A    
N2    Zn2   S    
C29   C30   A    
C27   C41   A    
C33   O3    S    
C27   C40   A    
C14   H23   S    
C25   O12   A    
C35   H20   S    
C22   H27   S    
C18   N2    A    
C1    O6    A    
C22   C24   A    
C31   H9    S    
C12   C34   A    
N1    Zn1   S    
O12   Zn2   S    
C15   C17   A    
C38   H30   S    
C33   H16   S    
C12   C30   A    
C31   H10   S    
C6    C10   A    
C5    C8    A    
C26   C37   A    
C6    C7    A    
C25   C27   S    
C6    O13   S    
C19   C24   A    
C36   O5    S    
C18   H2    S    
C23   C39   A    
C15   O3    S    
O8    Zn2   S    
C3    C11   A    
C10   C11   A    
C20   C21   A    
C16   O9    A    
C2    C23   A    
C34   C40   A    
C2    C28   A    
C3    C16   S    
C26   C41   A    
