data_mof_unit_1783.cif
_audit_creation_date              2012-12-11T16:11:42-0500
_audit_creation_method            fapswitch 2.2
_symmetry_space_group_name_H-M    P1
_symmetry_Int_Tables_number       1
_space_group_crystal_system       triclinic
_cell_length_a                    6.935711
_cell_length_b                    14.368526
_cell_length_c                    15.750321
_cell_angle_alpha                 89.985895
_cell_angle_beta                  90.09531
_cell_angle_gamma                 89.954274
_cell_volume                      1569.61038531

loop_
_atom_site_label
_atom_site_type_symbol
_atom_type_description
_atom_site_fract_x
_atom_site_fract_y
_atom_site_fract_z
_atom_type_partial_charge
O1    O     O_R   0.638960 0.835150 0.161940 -0.543047
O2    O     O_R   0.361040 0.164850 0.838060 -0.543046
O3    O     O_R   0.309170 0.846340 0.337470 -0.546670
O4    O     O_R   0.690830 0.153660 0.662530 -0.546670
O5    O     O_R   0.138810 0.664830 0.338070 -0.546104
O6    O     O_R   0.861190 0.335170 0.661930 -0.546103
C1    C     C_R   0.478313 0.868635 0.366589 0.667676
C2    C     C_R   0.521687 0.131365 0.633411 0.667676
O7    O     O_R   0.309250 0.846350 0.162570 -0.520400
O8    O     O_R   0.690750 0.153650 0.837430 -0.520400
O9    O     O_R   0.138880 0.664840 0.161920 -0.529456
O10   O     O_R   0.861120 0.335160 0.838080 -0.529456
C3    C     C_R   0.477517 0.867247 0.132504 0.743323
C4    C     C_R   0.522483 0.132753 0.867496 0.743322
O11   O     O_R   0.638880 0.835150 0.338090 -0.543554
O12   O     O_R   0.361120 0.164850 0.661910 -0.543554
O13   O     O_3   0.472380 0.690440 0.250000 -0.370173
O14   O     O_3   0.527620 0.309560 0.750000 -0.370173
V1    V     V_3+5 0.197550 0.761040 0.250010 1.468488
V2    V     V_3+5 0.802450 0.238960 0.749990 1.468488
O15   O     O_R   0.809160 0.653640 0.162540 -0.534282
O16   O     O_R   0.190840 0.346360 0.837460 -0.534282
C5    C     C_R   0.978211 0.631761 0.133284 0.773067
C6    C     C_R   0.021789 0.368239 0.866716 0.773068
O17   O     O_R   0.809090 0.653640 0.337440 -0.537053
O18   O     O_R   0.190910 0.346360 0.662560 -0.537053
C7    C     C_R   0.978027 0.631368 0.366582 0.702700
C8    C     C_R   0.021973 0.368632 0.633417 0.702699
V3    V     V_3+5 0.697540 0.738950 0.250000 1.457308
V4    V     V_3+5 0.302460 0.261050 0.750000 1.457308
O19   O     O_3   0.972580 0.809550 0.250010 -0.367658
O20   O     O_3   0.027420 0.190450 0.749990 -0.367658
C9    C     C_3   0.078099 0.580889 0.525086 -0.153228
C10   C     C_3   0.921901 0.419111 0.474914 -0.153228
C11   C     C_3   0.903937 0.532339 0.567823 -0.123714
C12   C     C_3   0.096063 0.467661 0.432177 -0.123714
H1    H     H_    0.825068 0.558571 0.624244 0.120739
H2    H     H_    0.174932 0.441428 0.375756 0.120739
H3    H     H_    0.142508 0.648032 0.545355 0.101653
H4    H     H_    0.857492 0.351968 0.454645 0.101653
C13   C     C_3   0.011461 0.438781 0.562611 -0.003852
C14   C     C_3   0.988539 0.561218 0.437389 -0.003851
C15   C     C_3   0.185843 0.486519 0.520676 -0.122796
C16   C     C_3   0.814156 0.513481 0.479324 -0.122796
H5    H     H_    0.339193 0.475179 0.538165 0.109526
H6    H     H_    0.660807 0.524821 0.461835 0.109526
C17   C     C_3   0.821599 0.468430 0.981904 -0.146577
C18   C     C_3   0.178400 0.531570 0.018096 -0.146577
C19   C     C_3   0.925758 0.459500 0.068304 0.037714
C20   C     C_3   0.074242 0.540500 0.931696 0.037714
H7    H     H_    0.674640 0.442118 0.967462 0.135798
H8    H     H_    0.325360 0.557882 0.032538 0.135798
C21   C     C_3   0.989775 0.561563 0.062845 -0.080792
C22   C     C_3   0.010225 0.438437 0.937155 -0.080792
C23   C     C_3   0.886739 0.571818 0.976308 -0.224074
C24   C     C_3   0.113261 0.428181 0.023692 -0.224074
H9    H     H_    0.793760 0.631031 0.956773 0.128810
H10   H     H_    0.206240 0.368969 0.043227 0.128810
C25   C     C_3   0.678612 0.972444 0.479084 -0.111842
C26   C     C_3   0.321388 0.027556 0.520916 -0.111842
C27   C     C_3   0.603458 0.073900 0.474768 -0.139703
C28   C     C_3   0.396542 0.926100 0.525232 -0.139703
H11   H     H_    0.689119 0.135207 0.454459 0.104644
H12   H     H_    0.310881 0.864793 0.545541 0.104644
H13   H     H_    0.826314 0.949602 0.461633 0.113023
H14   H     H_    0.173685 0.050398 0.538367 0.113023
C29   C     C_3   0.510147 0.061255 0.562609 -0.008980
C30   C     C_3   0.489853 0.938745 0.437391 -0.008980
C31   C     C_3   0.585205 0.960614 0.567718 -0.138416
C32   C     C_3   0.414795 0.039386 0.432282 -0.138416
H15   H     H_    0.655604 0.928584 0.623940 0.115513
H16   H     H_    0.344396 0.071416 0.376060 0.115513
C33   C     C_3   0.669471 0.955306 0.008335 -0.168372
C34   C     C_3   0.330529 0.044694 0.991665 -0.168371
C35   C     C_3   0.544532 0.957589 0.926206 -0.176831
C36   C     C_3   0.455468 0.042411 0.073794 -0.176831
H17   H     H_    0.580841 0.922545 0.865477 0.141351
H18   H     H_    0.419159 0.077455 0.134523 0.141351
H19   H     H_    0.809604 0.918882 0.015625 0.147290
H20   H     H_    0.190396 0.081118 0.984375 0.147290
C37   C     C_3   0.513469 0.063094 0.938406 -0.084502
C38   C     C_3   0.486531 0.936906 0.061594 -0.084502
C39   C     C_3   0.636930 0.060826 0.019659 0.022690
C40   C     C_3   0.363070 0.939174 0.980340 0.022690
C41   C     C_2   0.796114 0.125184 0.045750 0.770756
O21   O     O_2   0.879260 0.112249 0.113210 -0.553006
O22   O     O_R   0.851004 0.198443 0.992923 -0.659260
H21   H     H_    0.965796 0.233946 0.016026 0.286681
C42   C     C_2   0.203886 0.874815 0.954250 0.770756
O23   O     O_2   0.120740 0.887751 0.886790 -0.553006
O24   O     O_R   0.148996 0.801556 0.007077 -0.659260
H22   H     H_    0.034204 0.766054 0.983974 0.286682
C43   C     C_2   0.842240 0.412308 0.144855 0.725629
O25   O     O_2   0.781537 0.332813 0.138921 -0.547544
O26   O     O_R   0.834757 0.458963 0.222595 -0.677999
H23   H     H_    0.776084 0.419685 0.269366 0.285508
C44   C     C_2   0.157760 0.587692 0.855145 0.725629
O27   O     O_2   0.218463 0.667187 0.861079 -0.547544
O28   O     O_R   0.165243 0.541037 0.777405 -0.677999
H24   H     H_    0.223916 0.580315 0.730634 0.285508

loop_
_geom_bond_atom_site_label_1
_geom_bond_atom_site_label_2
_ccdc_geom_bond_type
C27   C32   S    
O22   H21   S    
C43   O25   D    
O13   V3    S    
C12   C14   S    
O26   H23   S    
O4    C2    A    
V1    O19   S    
C44   O27   D    
C17   C19   S    
C41   O21   D    
O9    V1    S    
C9    H3    S    
C34   C36   S    
C10   H4    S    
C9    C14   S    
C11   H1    S    
C36   H18   S    
O3    C1    A    
C9    C11   S    
C35   C40   S    
C6    C22   S    
C8    C13   S    
C26   C28   S    
C31   H15   S    
O7    C3    A    
C28   H12   S    
C44   O28   S    
C1    C30   S    
O5    C7    A    
O7    V1    S    
O6    C8    A    
C26   C29   S    
O8    V2    S    
O3    V1    S    
O14   V4    S    
C42   O24   S    
C10   C12   S    
C18   C20   S    
C26   H14   S    
C2    O12   A    
C34   H20   S    
C13   C15   S    
C10   C13   S    
C14   C16   S    
O2    C4    A    
C36   C39   S    
C37   C39   S    
C16   H6    S    
O11   V3    S    
C21   C23   S    
O17   V3    S    
C18   C21   S    
C22   C24   S    
C25   C27   S    
C41   O22   S    
C9    C15   S    
C10   C16   S    
O8    C4    A    
C36   C38   S    
O24   H22   S    
C35   C37   S    
C17   H7    S    
C1    O11   A    
O15   V3    S    
C3    C38   S    
C28   C31   S    
C29   C31   S    
C25   C30   S    
C35   H17   S    
C27   C29   S    
O28   H24   S    
C26   C32   S    
O10   V2    S    
O1    V3    S    
C33   H19   S    
C20   C22   S    
C11   C16   S    
C15   H5    S    
C25   C31   S    
C17   C22   S    
C39   C41   S    
O18   V4    S    
C38   C40   S    
C23   H9    S    
O16   C6    A    
O1    C3    A    
C40   C42   S    
C33   C35   S    
C34   C37   S    
C12   H2    S    
C33   C38   S    
C17   C23   S    
V2    O20   S    
C18   C24   S    
C20   C44   S    
O16   V4    S    
C27   H11   S    
C34   C40   S    
O5    V1    S    
O17   C7    A    
C19   C24   S    
O6    V2    S    
O10   C6    A    
O18   C8    A    
C20   C23   S    
C28   C30   S    
O2    V4    S    
O15   C5    A    
V3    O19   S    
C25   H13   S    
V4    O20   S    
C7    C14   S    
C43   O26   S    
C19   C21   S    
C5    C21   S    
O9    C5    A    
O13   V1    S    
C24   H10   S    
O14   V2    S    
C11   C13   S    
O4    V2    S    
C18   H8    S    
C2    C29   S    
C30   C32   S    
C12   C15   S    
C32   H16   S    
C4    C37   S    
C19   C43   S    
C42   O23   D    
O12   V4    S    
C33   C39   S    
