data_mof_unit_393.cif
_audit_creation_date              2012-10-26T20:21:14-0400
_audit_creation_method            fapswitch 2.2
_symmetry_space_group_name_H-M    P1
_symmetry_Int_Tables_number       1
_space_group_crystal_system       triclinic
_cell_length_a                    9.563923
_cell_length_b                    10.827127
_cell_length_c                    15.312626
_cell_angle_alpha                 88.560939
_cell_angle_beta                  74.602311
_cell_angle_gamma                 89.484847
_cell_volume                      1528.21886143

loop_
_atom_site_label
_atom_site_type_symbol
_atom_type_description
_atom_site_fract_x
_atom_site_fract_y
_atom_site_fract_z
_atom_type_partial_charge
C1    C     C_R   0.000187 0.262205 0.500345 0.532863
C2    C     C_R   0.129862 0.063102 0.492719 -0.133947
C3    C     C_R   0.999596 0.871743 0.499970 0.023083
C4    C     C_R   0.000234 0.128303 0.500560 0.018153
C5    C     C_R   0.557004 0.411343 0.546749 0.046334
C6    C     C_R   0.443061 0.588495 0.453109 0.048272
C7    C     C_R   0.408881 0.411053 0.547959 0.336205
C8    C     C_R   0.591165 0.588816 0.451914 0.343701
C9    C     C_R   0.918471 0.501242 0.672530 0.567386
C10   C     C_R   0.081708 0.491462 0.327455 0.561019
C11   C     C_R   0.872740 0.512944 0.771746 0.044227
C12   C     C_R   0.999736 0.737805 0.499857 0.558988
C13   C     C_R   0.126715 0.476232 0.227554 0.036306
C14   C     C_R   0.897810 0.611718 0.907253 -0.149922
C15   C     C_R   0.071848 0.476926 0.081068 -0.139295
C16   C     C_R   0.954409 0.585584 0.815359 0.215068
C17   C     C_R   0.023710 0.480976 0.176044 0.222878
C18   C     C_R   0.736729 0.464672 0.820983 -0.055686
C19   C     C_R   0.275288 0.457486 0.182348 -0.061163
C20   C     C_R   0.668541 0.515487 0.906467 0.031409
C21   C     C_R   0.322175 0.487412 0.088612 0.030658
C22   C     C_R   0.755987 0.577873 0.952684 -0.001243
C23   C     C_R   0.559711 0.572441 0.089899 -0.138089
C24   C     C_R   0.219825 0.483486 0.037170 -0.000932
C25   C     C_R   0.517845 0.504648 0.948974 0.028736
C26   C     C_R   0.467749 0.517615 0.043893 0.029262
C27   C     C_3   0.371944 0.379509 0.228338 -0.239816
C28   C     C_3   0.451553 0.273527 0.169758 -0.313501
C29   C     C_3   0.526612 0.187567 0.223854 -0.445655
C30   C     C_3   0.682748 0.344751 0.789672 -0.246933
C31   C     C_3   0.661134 0.241054 0.862467 -0.305426
C32   C     C_3   0.623436 0.119042 0.826399 -0.445147
C33   C     C_R   0.414358 0.495339 0.898931 -0.129533
C34   C     C_R   0.700030 0.607106 0.043720 -0.150785
C35   C     C_R   0.266881 0.487808 0.942547 -0.140146
C36   C     C_R   0.870233 0.064730 0.508260 -0.139997
C37   C     C_R   0.129547 0.935331 0.492456 -0.131701
C38   C     C_R   0.869961 0.936965 0.507859 -0.130064
Cu1   Cu    Cu3+1 0.140660 0.500020 0.500000 0.959921
Cu2   Cu    Cu3+1 0.859340 0.499980 0.500000 0.967230
H1    H     H_    0.765632 0.655497 0.079657 0.126087
H2    H     H_    0.231452 0.110530 0.486414 0.158769
H3    H     H_    0.598419 0.340979 0.584789 0.131592
H4    H     H_    0.401693 0.658736 0.414959 0.139117
H5    H     H_    0.606348 0.239924 0.249472 0.175912
H6    H     H_    0.445672 0.143981 0.282014 0.156646
H7    H     H_    0.584928 0.113467 0.179567 0.150571
H8    H     H_    0.372685 0.219080 0.144722 0.169424
H9    H     H_    0.535828 0.309897 0.110481 0.171688
H10   H     H_    0.450210 0.437947 0.250364 0.155333
H11   H     H_    0.303764 0.332757 0.290150 0.177523
H12   H     H_    0.189630 0.485264 0.902158 0.137311
H13   H     H_    0.521735 0.128916 0.804807 0.166708
H14   H     H_    0.712636 0.089696 0.767919 0.160117
H15   H     H_    0.607465 0.046326 0.880556 0.150712
H16   H     H_    0.762345 0.228481 0.884406 0.165973
H17   H     H_    0.572040 0.264655 0.922606 0.171894
H18   H     H_    0.582883 0.358794 0.767393 0.149033
H19   H     H_    0.763979 0.309320 0.729450 0.149228
H20   H     H_    0.820817 0.480187 0.173895 0.315594
H21   H     H_    0.129898 0.680215 0.807584 0.316138
H22   H     H_    0.225917 0.347572 0.619046 0.376584
H23   H     H_    0.962286 0.663271 0.942253 0.098460
H24   H     H_    0.774219 0.652443 0.381028 0.389492
H25   H     H_    0.993578 0.474020 0.041452 0.101087
H26   H     H_    0.519934 0.598717 0.159759 0.126750
H27   H     H_    0.444858 0.505969 0.826073 0.130519
H28   H     H_    0.768671 0.113428 0.514740 0.136123
H29   H     H_    0.231092 0.886645 0.486059 0.138856
H30   H     H_    0.768417 0.889552 0.514016 0.163281
N1    N     N_R   0.352080 0.500030 0.499980 -0.267186
N2    N     N_R   0.647920 0.499970 0.500020 -0.265650
O1    O     O_R   0.118740 0.319660 0.500000 -0.511727
O2    O     O_3   0.088056 0.630746 0.767096 -0.683921
O3    O     O_3   0.326269 0.318201 0.598679 -0.725945
O4    O     O_3   0.673768 0.681612 0.401112 -0.715833
O5    O     O_R   0.881260 0.680340 0.500000 -0.501406
O6    O     O_R   0.881170 0.319630 0.500010 -0.521666
O7    O     O_R   0.118830 0.680370 0.499990 -0.503879
O8    O     O_R   0.055570 0.500030 0.629830 -0.461274
O9    O     O_R   0.944430 0.499970 0.370170 -0.453197
O10   O     O_R   0.818000 0.500000 0.629840 -0.520984
O11   O     O_R   0.182000 0.500000 0.370160 -0.535224
O12   O     O_3   0.877306 0.485079 0.219354 -0.691348

loop_
_geom_bond_atom_site_label_1
_geom_bond_atom_site_label_2
_ccdc_geom_bond_type
C21   C26   A    
C38   H30   S    
C11   C18   A    
C37   H29   S    
C4    C36   A    
C29   H7    S    
C16   O2    S    
C23   H26   S    
C28   C29   S    
C19   C21   A    
C5    N2    A    
C7    N1    A    
C30   C31   S    
C20   C25   A    
C15   H25   S    
C12   O7    A    
C10   O11   A    
C8    O4    S    
C11   C16   A    
C23   C26   A    
C3    C12   S    
C3    C38   A    
C18   C30   S    
C31   H16   S    
C19   C27   S    
C32   H15   S    
C18   C20   A    
C27   H10   S    
C9    O10   A    
C5    H3    S    
C6    H4    S    
C12   O5    A    
C1    O6    A    
C34   H1    S    
C32   H14   S    
C27   H11   S    
C6    N1    A    
C22   C34   A    
C8    N2    A    
C24   C35   A    
C13   C19   A    
Cu2   O10   S    
Cu1   Cu2   S    
C5    C7    A    
C7    O3    S    
C25   C26   A    
C29   H5    S    
C9    O8    A    
Cu1   O7    S    
C2    C4    A    
C28   H9    S    
C31   C32   S    
C23   C34   A    
C30   H19   S    
H24   O4    S    
C9    C11   S    
C15   C24   A    
C20   C22   A    
C14   C16   A    
H22   O3    S    
C32   H13   S    
C35   H12   S    
C33   H27   S    
C15   C17   A    
C28   H8    S    
Cu2   N2    S    
Cu2   O9    S    
C10   C13   S    
C6    C8    A    
C36   H28   S    
H21   O2    S    
C10   O9    A    
C13   C17   A    
C29   H6    S    
C17   O12   S    
C1    O1    A    
Cu1   O8    S    
C14   C22   A    
C36   C38   A    
Cu1   O11   S    
H20   O12   S    
C2    C37   A    
C31   H17   S    
C2    H2    S    
C14   H23   S    
C30   H18   S    
C1    C4    S    
C33   C35   A    
Cu2   O6    S    
Cu1   O1    S    
C3    C37   A    
C21   C24   A    
C27   C28   S    
Cu1   N1    S    
Cu2   O5    S    
C25   C33   A    
