data_mof_unit_4309.cif
_audit_creation_date              2012-12-10T17:43:38-0500
_audit_creation_method            fapswitch 2.2
_symmetry_space_group_name_H-M    P1
_symmetry_Int_Tables_number       1
_space_group_crystal_system       triclinic
_cell_length_a                    15.029947
_cell_length_b                    11.283616
_cell_length_c                    10.301273
_cell_angle_alpha                 89.700738
_cell_angle_beta                  91.044866
_cell_angle_gamma                 100.298423
_cell_volume                      1718.58132469

loop_
_atom_site_label
_atom_site_type_symbol
_atom_type_description
_atom_site_fract_x
_atom_site_fract_y
_atom_site_fract_z
_atom_type_partial_charge
C1    C     C_R   0.497271 0.259441 0.501541 0.880140
C2    C     C_R   0.911631 0.581264 0.510915 0.030002
C3    C     C_R   0.925349 0.246206 0.529967 -0.069082
C4    C     C_R   0.019729 0.256545 0.532072 -0.106253
C5    C     C_R   0.076971 0.367412 0.521007 0.103622
C6    C     C_R   0.040349 0.474037 0.516002 0.049452
C7    C     C_R   0.099047 0.585632 0.506671 0.027189
C8    C     C_R   0.065125 0.692328 0.508042 0.016051
C9    C     C_R   0.972848 0.692503 0.511633 0.035213
C10   C     C_R   0.171173 0.373400 0.513030 -0.222570
C11   C     C_R   0.227798 0.484526 0.499378 -0.018499
C12   C     C_R   0.325853 0.492598 0.499630 0.884089
C13   C     C_R   0.192072 0.590125 0.497239 -0.232309
C14   C     C_R   0.483121 0.111477 0.749650 -0.217870
C15   C     C_R   0.480725 0.050349 0.867613 0.450553
C16   C     C_R   0.485012 0.929904 0.868732 0.148347
C17   C     C_R   0.502516 0.873302 0.755307 -0.247973
C18   C     C_R   0.500956 0.931762 0.630763 0.063774
C19   C     C_R   0.493895 0.057774 0.628829 -0.002537
C20   C     C_R   0.494913 0.124753 0.508060 -0.093314
C21   C     C_R   0.493783 0.060481 0.391077 0.363334
C22   C     C_R   0.497231 0.934204 0.393863 -0.310685
C23   C     C_R   0.500760 0.738278 0.501778 0.885417
C24   C     C_R   0.501377 0.869487 0.509869 -0.126664
C25   C     C_R   0.368862 0.321382 0.125272 0.101523
C26   C     C_R   0.308370 0.234464 0.056165 0.472904
C27   C     C_R   0.308656 0.239193 0.924837 0.018567
C28   C     C_R   0.369191 0.325528 0.863626 0.394723
C29   C     C_R   0.436697 0.415682 0.927442 -0.037893
C30   C     C_R   0.436663 0.414689 0.067004 0.045335
C31   C     C_R   0.559850 0.576702 0.071268 -0.070174
C32   C     C_R   0.559290 0.577777 0.931047 -0.089984
C33   C     C_R   0.662828 0.469384 0.501349 0.857131
C34   C     C_R   0.818316 0.576671 0.502562 -0.222802
C35   C     C_R   0.759662 0.468515 0.504907 0.002030
C36   C     C_R   0.791025 0.359886 0.511212 -0.134005
C37   C     C_R   0.886121 0.355734 0.520712 0.254794
C38   C     C_R   0.945754 0.469955 0.517673 0.017788
H1    H     H_    0.786721 0.654592 0.492920 0.146965
H2    H     H_    0.458652 0.190960 0.756362 0.302621
H3    H     H_    0.520457 0.786521 0.776819 0.204008
H4    H     H_    0.497916 0.886727 0.302703 0.171944
H5    H     H_    0.609126 0.641601 0.122328 0.135183
H6    H     H_    0.607660 0.645026 0.882435 0.124565
H7    H     H_    0.048806 0.175371 0.536255 0.198928
H8    H     H_    0.200526 0.292372 0.517382 0.159806
H9    H     H_    0.237205 0.675900 0.490120 0.139646
H10   H     H_    0.111014 0.777707 0.505795 0.287657
N1    N     N_R   0.499150 0.498800 0.142780 -0.153425
N2    N     N_R   0.499120 0.498720 0.857170 -0.135942
O1    O     O_R   0.500000 0.316780 0.614690 -0.770962
O2    O     O_R   0.499990 0.316750 0.385360 -0.817358
O3    O     O_R   0.367850 0.499980 0.614680 -0.588578
O4    O     O_R   0.367840 0.499960 0.385350 -0.632322
O5    O     O_R   0.500010 0.683250 0.614640 -0.650760
O6    O     O_R   0.500000 0.683220 0.385310 -0.623577
O7    O     O_R   0.632160 0.500040 0.614650 -0.656344
O8    O     O_R   0.632150 0.500020 0.385320 -0.628564
Zn1   Zn    Zn3+2 0.500010 0.500020 0.653130 0.945291
Zn2   Zn    Zn3+2 0.499990 0.499980 0.346870 0.928412
O9    O     O_3   0.475081 0.107409 0.983753 -0.784812
H11   H     H_    0.491788 0.195050 0.970116 0.341884
N3    N     N_3   0.463117 0.864373 0.991430 -0.422194
H12   H     H_    0.468527 0.921950 0.071842 0.221172
H13   H     H_    0.488349 0.781532 0.023975 0.168546
N4    N     N_3   0.361646 0.317775 0.258353 -0.369761
H14   H     H_    0.388863 0.280217 0.323110 0.223602
H15   H     H_    0.481000 0.385888 0.323208 0.371176
O10   O     O_3   0.298818 0.179989 0.134939 -0.798881
H16   H     H_    0.313167 0.195099 0.224240 0.368537
O11   O     O_3   0.307234 0.178752 0.816673 -0.724458
H17   H     H_    0.270387 0.135431 0.881368 0.365302
O12   O     O_3   0.439419 0.332411 0.681800 -0.638947
H18   H     H_    0.490024 0.390859 0.657296 0.515245
N5    N     N_3   0.812980 0.272499 0.475855 -0.441409
H19   H     H_    0.831269 0.191545 0.475886 0.203996
H20   H     H_    0.745778 0.266256 0.475894 0.208097
N6    N     N_3   0.938027 0.163293 0.475842 -0.487376
H21   H     H_    0.893056 0.138232 0.545552 0.185522
H22   H     H_    0.934072 0.101166 0.406113 0.225506
O13   O     O_3   0.025214 0.814636 0.475671 -0.796750
H23   H     H_    0.961127 0.793181 0.475715 0.369771
O14   O     O_3   0.520935 0.124824 0.240236 -0.680988
H24   H     H_    0.512033 0.064929 0.174449 0.390663

loop_
_geom_bond_atom_site_label_1
_geom_bond_atom_site_label_2
_ccdc_geom_bond_type
N4    H15   S    
N3    H13   S    
C33   O8    A    
O5    Zn1   S    
O12   H18   S    
C19   C20   A    
O13   H23   S    
O3    Zn1   S    
C7    C8    A    
O4    Zn2   S    
C26   C27   A    
C37   C38   A    
N1    Zn2   S    
C31   H5    S    
C18   C24   A    
N2    Zn1   S    
C36   C37   A    
C34   C35   A    
C5    C6    A    
N6    H22   S    
O7    Zn1   S    
O8    Zn2   S    
C15   C16   A    
C18   C19   A    
O2    Zn2   S    
C31   C32   A    
C8    C9    A    
C10   H8    S    
C23   C24   S    
C6    C38   A    
C16   N3    S    
C12   O3    A    
C4    H7    S    
C2    C34   A    
N4    H14   S    
C21   C22   A    
O9    H11   S    
C31   N1    A    
C28   O12   S    
C5    C10   A    
C29   N2    A    
C32   H6    S    
C34   H1    S    
C21   O14   S    
C23   O6    A    
C13   H9    S    
N6    H21   S    
C16   C17   A    
C25   C26   A    
O6    Zn2   S    
C35   C36   A    
C2    C9    A    
N5    H19   S    
C8    H10   S    
C29   C30   A    
C36   N5    S    
N5    H20   S    
C2    C38   A    
O14   H24   S    
C17   C18   A    
C15   O9    S    
C1    O1    A    
C32   N2    A    
C30   N1    A    
C22   C24   A    
O1    Zn1   S    
C3    C4    A    
C27   O11   S    
C25   C30   A    
C28   C29   A    
C1    C20   S    
C33   O7    A    
C14   C19   A    
C25   N4    S    
C4    C5    A    
C11   C12   S    
C23   O5    A    
C6    C7    A    
O11   H17   S    
C11   C13   A    
C22   H4    S    
C33   C35   S    
O10   H16   S    
C1    O2    A    
C17   H3    S    
C10   C11   A    
C14   H2    S    
N3    H12   S    
C7    C13   A    
C20   C21   A    
C3    C37   A    
C27   C28   A    
C26   O10   S    
C14   C15   A    
C3    N6    S    
C12   O4    A    
C9    O13   S    
