data_mof_unit_354.cif
_audit_creation_date              2012-12-11T15:39:21-0500
_audit_creation_method            fapswitch 2.2
_symmetry_space_group_name_H-M    P1
_symmetry_Int_Tables_number       1
_space_group_crystal_system       triclinic
_cell_length_a                    6.980373
_cell_length_b                    15.088266
_cell_length_c                    16.617865
_cell_angle_alpha                 95.515777
_cell_angle_beta                  89.66563
_cell_angle_gamma                 89.867101
_cell_volume                      1742.08130649

loop_
_atom_site_label
_atom_site_type_symbol
_atom_type_description
_atom_site_fract_x
_atom_site_fract_y
_atom_site_fract_z
_atom_type_partial_charge
O1    O     O_R   0.633330 0.174290 0.828230 -0.530406
O2    O     O_R   0.366670 0.825710 0.171770 -0.530406
O3    O     O_R   0.301450 0.154140 0.662030 -0.542365
O4    O     O_R   0.698550 0.845860 0.337970 -0.542365
O5    O     O_R   0.133140 0.325730 0.671770 -0.533690
O6    O     O_R   0.866860 0.674270 0.328230 -0.533690
C1    C     C_R   0.471208 0.131577 0.633746 0.726455
C2    C     C_R   0.528792 0.868423 0.366254 0.726455
O7    O     O_R   0.303490 0.163670 0.827000 -0.540525
O8    O     O_R   0.696510 0.836330 0.173000 -0.540525
O9    O     O_R   0.135190 0.335320 0.837920 -0.542920
O10   O     O_R   0.864810 0.664680 0.162080 -0.542920
C3    C     C_R   0.472180 0.143428 0.854017 0.713646
C4    C     C_R   0.527820 0.856572 0.145983 0.713646
O11   O     O_R   0.631280 0.164690 0.662080 -0.543013
O12   O     O_R   0.368720 0.835310 0.337920 -0.543013
O13   O     O_3   0.467420 0.306310 0.753380 -0.368024
O14   O     O_3   0.532580 0.693690 0.246620 -0.368024
V1    V     V_3+5 0.191790 0.239560 0.749370 1.378091
V2    V     V_3+5 0.808210 0.760440 0.250630 1.378091
O15   O     O_R   0.805590 0.345870 0.837970 -0.537988
O16   O     O_R   0.194410 0.654130 0.162030 -0.537987
C5    C     C_R   0.973946 0.367772 0.867029 0.696908
C6    C     C_R   0.026054 0.632228 0.132971 0.696908
O17   O     O_R   0.803560 0.336340 0.672990 -0.533268
O18   O     O_R   0.196440 0.663660 0.327010 -0.533268
C7    C     C_R   0.972550 0.356764 0.646118 0.714906
C8    C     C_R   0.027450 0.643236 0.353882 0.714907
V3    V     V_3+5 0.692030 0.260450 0.750630 1.401082
V4    V     V_3+5 0.307970 0.739550 0.249370 1.401082
O19   O     O_3   0.966260 0.193700 0.746610 -0.369750
O20   O     O_3   0.033740 0.806300 0.253390 -0.369750
C9    C     C_1   0.983170 0.418702 0.583612 -0.197431
C10   C     C_1   0.016829 0.581298 0.416388 -0.197431
C11   C     C_1   0.993579 0.469929 0.531026 0.001734
C12   C     C_1   0.006420 0.530070 0.468974 0.001734
C13   C     C_3   0.891894 0.570075 0.986227 0.169446
C14   C     C_3   0.108105 0.429925 0.013773 0.169445
C15   C     C_3   0.060882 0.533100 0.932588 0.151866
C16   C     C_3   0.939118 0.466900 0.067412 0.151867
C17   C     C_3   0.985244 0.437858 0.937799 -0.159209
C18   C     C_3   0.014756 0.562142 0.062201 -0.159209
C19   C     C_3   0.814492 0.474554 0.991347 -0.210618
C20   C     C_3   0.185507 0.525446 0.008653 -0.210618
H1    H     H_    0.662992 0.453317 0.983795 0.128606
H2    H     H_    0.337008 0.546683 0.016205 0.128606
C21   C     C_3   0.676818 0.024808 0.526028 -0.206778
C22   C     C_3   0.323182 0.975192 0.473972 -0.206778
C23   C     C_3   0.593803 0.929171 0.521872 0.123094
C24   C     C_3   0.406197 0.070829 0.478128 0.123095
H3    H     H_    0.819487 0.044750 0.548894 0.120784
H4    H     H_    0.180513 0.955250 0.451106 0.120784
C25   C     C_3   0.514793 0.938469 0.436609 -0.083491
C26   C     C_3   0.485207 0.061530 0.563391 -0.083491
C27   C     C_3   0.596074 0.033638 0.440225 0.120821
C28   C     C_3   0.403926 0.966362 0.559775 0.120821
C29   C     C_1   0.482220 0.081390 0.916484 -0.200582
C30   C     C_1   0.517779 0.918610 0.083516 -0.200582
C31   C     C_1   0.493097 0.030102 0.969009 0.001646
C32   C     C_1   0.506903 0.969898 0.030991 0.001646
C33   C     C_3   0.135915 0.564939 0.853536 -0.336534
C34   C     C_3   0.177406 0.664697 0.861377 -0.775716
H5    H     H_    0.043609 0.703594 0.857591 0.232043
H6    H     H_    0.248082 0.685599 0.919786 0.229356
H7    H     H_    0.272155 0.680657 0.810888 0.220213
H8    H     H_    0.269237 0.527556 0.835997 0.175412
H9    H     H_    0.030669 0.548864 0.804520 0.162661
C35   C     C_3   0.864085 0.435061 0.146464 -0.336534
C36   C     C_3   0.822594 0.335303 0.138623 -0.775715
H10   H     H_    0.751919 0.314401 0.080214 0.229356
H11   H     H_    0.956391 0.296406 0.142409 0.232042
H12   H     H_    0.727845 0.319343 0.189112 0.220214
H13   H     H_    0.969331 0.451136 0.195480 0.162661
H14   H     H_    0.730763 0.472444 0.164003 0.175412
C37   C     C_3   0.766307 0.651128 0.975322 -0.338608
C38   C     C_3   0.655803 0.639946 0.896372 -0.784504
H15   H     H_    0.752211 0.626128 0.843619 0.233959
H16   H     H_    0.553287 0.584136 0.897572 0.232602
H17   H     H_    0.577202 0.702517 0.888866 0.221519
H18   H     H_    0.661847 0.660362 0.026135 0.178416
H19   H     H_    0.857028 0.711588 0.977309 0.174161
C39   C     C_3   0.233692 0.348872 0.024678 -0.338608
C40   C     C_3   0.344197 0.360054 0.103628 -0.784504
H20   H     H_    0.446713 0.415864 0.102428 0.232602
H21   H     H_    0.247789 0.373872 0.156381 0.233959
H22   H     H_    0.422798 0.297483 0.111134 0.221519
H23   H     H_    0.142972 0.288412 0.022691 0.174161
H24   H     H_    0.338153 0.339638 0.973865 0.178416
C41   C     C_3   0.689031 0.846621 0.551817 -0.374013
C42   C     C_3   0.887760 0.827990 0.516410 -0.757562
H25   H     H_    0.881895 0.806596 0.451166 0.244166
H26   H     H_    0.975533 0.888502 0.526293 0.232980
H27   H     H_    0.956607 0.773969 0.546911 0.209671
H28   H     H_    0.702929 0.857208 0.618561 0.177280
H29   H     H_    0.596324 0.787678 0.536818 0.173772
C43   C     C_3   0.310969 0.153379 0.448183 -0.374013
C44   C     C_3   0.112240 0.172010 0.483590 -0.757562
H30   H     H_    0.024467 0.111498 0.473706 0.232980
H31   H     H_    0.118105 0.193404 0.548834 0.244166
H32   H     H_    0.043393 0.226031 0.453089 0.209672
H33   H     H_    0.403676 0.212322 0.463182 0.173772
H34   H     H_    0.297071 0.142792 0.381439 0.177280
C45   C     C_3   0.693870 0.078914 0.371859 -0.406572
C46   C     C_3   0.865041 0.027187 0.333857 -0.687492
H35   H     H_    0.931406 0.985453 0.377244 0.227109
H36   H     H_    0.819192 0.983924 0.279683 0.232018
H37   H     H_    0.973880 0.074147 0.313982 0.203591
H38   H     H_    0.588199 0.087588 0.323532 0.168920
H39   H     H_    0.740468 0.146308 0.396651 0.182125
C47   C     C_3   0.306130 0.921086 0.628141 -0.406572
C48   C     C_3   0.134959 0.972813 0.666143 -0.687492
H40   H     H_    0.180809 0.016076 0.720317 0.232018
H41   H     H_    0.068593 0.014546 0.622757 0.227109
H42   H     H_    0.026120 0.925853 0.686019 0.203591
H43   H     H_    0.259532 0.853692 0.603349 0.182125
H44   H     H_    0.411801 0.912411 0.676468 0.168920

loop_
_geom_bond_atom_site_label_1
_geom_bond_atom_site_label_2
_ccdc_geom_bond_type
C14   C16   S    
C41   H29   S    
C43   H34   S    
C6    C18   S    
C35   H14   S    
C48   H40   S    
C38   H17   S    
O4    C2    A    
V1    O19   S    
C46   H36   S    
C44   H30   S    
C21   C23   S    
C7    C9    S    
O9    V1    S    
C24   C26   S    
C38   H16   S    
O3    C1    A    
C23   C25   S    
C29   C31   T    
C3    C29   S    
O12   V4    S    
C39   H23   S    
C27   C45   S    
C13   C18   S    
O13   V3    S    
C41   H28   S    
C36   H11   S    
O7    C3    A    
C47   C48   S    
C34   H6    S    
C9    C11   T    
O5    C7    A    
C33   H8    S    
O7    V1    S    
C16   C19   S    
O6    C8    A    
C11   C12   S    
O8    V2    S    
C35   C36   S    
O3    V1    S    
C45   H38   S    
O14   V4    S    
C37   H18   S    
C10   C12   T    
C16   C18   S    
C13   C37   S    
C8    C10   S    
C31   C32   S    
C2    O12   A    
C43   H33   S    
C14   C39   S    
C17   C19   S    
C36   H10   S    
C18   C20   S    
C15   C33   S    
C28   C47   S    
C46   H35   S    
C44   H31   S    
C20   H2    S    
O11   V3    S    
C25   C27   S    
O17   V3    S    
C22   C25   S    
C4    C30   S    
C26   C28   S    
C38   H15   S    
C14   C17   S    
C15   C17   S    
O8    C4    A    
C37   H19   S    
C21   H3    S    
C1    O11   A    
C35   H13   S    
O15   V3    S    
C13   C19   S    
C36   H12   S    
C37   C38   S    
C14   C20   S    
C34   H5    S    
C33   H9    S    
C42   H26   S    
C40   H20   S    
C43   C44   S    
O10   V2    S    
O1    V3    S    
C48   H41   S    
C22   C24   S    
C19   H1    S    
C21   C26   S    
C40   H21   S    
O18   V4    S    
O15   C5    A    
O16   C6    A    
O1    C3    A    
C47   H44   S    
C44   H32   S    
C42   H27   S    
C21   C27   S    
V2    O20   S    
C22   C28   S    
O16   V4    S    
C34   H7    S    
C23   C41   S    
C2    C25   S    
C15   C20   S    
O5    V1    S    
O17   C7    A    
C23   C28   S    
O6    V2    S    
O10   C6    A    
O18   C8    A    
C24   C27   S    
C5    C17   S    
O2    V4    S    
C45   H39   S    
C13   C15   S    
V4    O20   S    
C24   C43   S    
C42   H25   S    
C39   H24   S    
O9    C5    A    
O13   V1    S    
C48   H42   S    
O14   V2    S    
C33   C34   S    
O2    C4    A    
O4    V2    S    
C22   H4    S    
C40   H22   S    
V3    O19   S    
C39   C40   S    
C16   C35   S    
C45   C46   S    
C1    C26   S    
C41   C42   S    
C30   C32   T    
C47   H43   S    
C46   H37   S    
