data_mof_unit_4940.cif
_audit_creation_date              2012-12-10T17:19:02-0500
_audit_creation_method            fapswitch 2.2
_symmetry_space_group_name_H-M    P1
_symmetry_Int_Tables_number       1
_space_group_crystal_system       triclinic
_cell_length_a                    10.176848
_cell_length_b                    10.79605
_cell_length_c                    13.462519
_cell_angle_alpha                 91.816263
_cell_angle_beta                  100.511108
_cell_angle_gamma                 96.016317
_cell_volume                      1444.33887582

loop_
_atom_site_label
_atom_site_type_symbol
_atom_type_description
_atom_site_fract_x
_atom_site_fract_y
_atom_site_fract_z
_atom_type_partial_charge
C1    C     C_R   0.054828 0.732855 0.496911 0.926265
C2    C     C_2   0.027290 0.069359 0.535254 -0.145980
C3    C     C_2   0.430846 0.512811 0.507454 -0.146976
C4    C     C_2   0.568943 0.488555 0.491365 -0.136199
C5    C     C_R   0.095415 0.517971 0.686552 0.881623
C6    C     C_R   0.906546 0.487899 0.313267 0.919133
C7    C     C_R   0.155529 0.555662 0.792188 -0.180527
C8    C     C_R   0.863012 0.496376 0.204087 -0.160513
C9    C     C_R   0.166740 0.674836 0.950183 -0.321112
C10   C     C_R   0.880648 0.453279 0.029680 -0.282942
C11   C     C_R   0.093406 0.627803 0.855637 0.479616
C12   C     C_R   0.948154 0.267700 0.509822 0.954333
C13   C     C_R   0.930758 0.444775 0.133014 0.452795
C14   C     C_R   0.289409 0.535550 0.823241 -0.340687
C15   C     C_R   0.752172 0.560641 0.171730 -0.343825
C16   C     C_R   0.367781 0.594847 0.910776 0.094638
C17   C     C_R   0.699234 0.567135 0.068996 0.088093
C18   C     C_R   0.303791 0.659733 0.977687 0.095304
C19   C     C_R   0.764289 0.510834 0.997566 0.117178
C20   C     C_R   0.506760 0.583443 0.935873 0.078049
C21   C     C_R   0.574288 0.613991 0.036238 0.082165
C22   C     C_3   0.153766 0.419814 0.143986 0.104189
C23   C     C_R   0.510362 0.682823 0.101197 -0.231714
C24   C     C_3   0.255268 0.325210 0.168358 -0.326564
C25   C     C_3   0.396361 0.379057 0.157878 -0.953679
C26   C     C_3   0.953853 0.764059 0.778394 0.119112
C27   C     C_3   0.912357 0.862663 0.847038 -0.363536
C28   C     C_3   0.892213 0.983339 0.792975 -0.957366
C29   C     C_R   0.579325 0.539413 0.864453 -0.263234
C30   C     C_R   0.377484 0.707092 0.071274 -0.220585
C31   C     C_R   0.707274 0.504983 0.895113 -0.143226
C32   C     C_2   0.090832 0.866102 0.505786 -0.380907
C33   C     C_2   0.923254 0.136539 0.526055 -0.378965
C34   C     C_2   0.005134 0.936671 0.537742 -0.166572
H1    H     H_    0.330888 0.758851 0.123059 0.144189
H2    H     H_    0.911789 0.896744 0.558423 0.182636
H3    H     H_    0.822031 0.094679 0.528525 0.148852
H4    H     H_    0.183813 0.906452 0.484938 0.150571
H5    H     H_    0.577891 0.414091 0.437765 0.168589
H6    H     H_    0.421670 0.588622 0.559754 0.164059
H7    H     H_    0.665194 0.623664 0.589405 0.153848
H8    H     H_    0.335483 0.373819 0.413340 0.160955
H9    H     H_    0.189432 0.506706 0.192493 0.151741
H10   H     H_    0.147479 0.441567 0.063089 0.136221
H11   H     H_    0.257286 0.295597 0.246748 0.221326
H12   H     H_    0.757681 0.465917 0.839129 0.179510
H13   H     H_    0.223317 0.241317 0.116072 0.222973
H14   H     H_    0.396983 0.404454 0.078731 0.279333
H15   H     H_    0.467361 0.308345 0.177292 0.264474
H16   H     H_    0.430915 0.462652 0.210001 0.267718
H17   H     H_    0.875023 0.747234 0.709043 0.168758
H18   H     H_    0.048583 0.800588 0.752944 0.114350
H19   H     H_    0.816992 0.826389 0.870611 0.239756
H20   H     H_    0.991375 0.883161 0.915902 0.217515
H21   H     H_    0.986990 0.022147 0.769967 0.273292
H22   H     H_    0.862702 0.053109 0.844701 0.271418
H23   H     H_    0.702747 0.597904 0.228461 0.180759
H24   H     H_    0.811465 0.965975 0.724812 0.256458
H25   H     H_    0.332109 0.472657 0.777316 0.183659
H26   H     H_    0.117266 0.724818 0.001087 0.151525
H27   H     H_    0.926697 0.406678 0.974588 0.151381
H28   H     H_    0.561369 0.719873 0.175189 0.147562
H29   H     H_    0.538554 0.530325 0.784298 0.149277
H30   H     H_    0.128748 0.110816 0.532755 0.188188
N1    N     N_2   0.322180 0.446120 0.460900 -0.190330
N2    N     N_2   0.677820 0.553880 0.539100 -0.192885
O1    O     O_R   0.935190 0.693030 0.507870 -0.621695
O2    O     O_3   0.960782 0.650005 0.827355 -0.651521
O3    O     O_R   0.064810 0.306970 0.492130 -0.604404
O4    O     O_R   0.142080 0.658430 0.482770 -0.612591
O5    O     O_R   0.857920 0.341570 0.517230 -0.608967
O6    O     O_R   0.969700 0.527180 0.651960 -0.581709
O7    O     O_R   0.030300 0.472820 0.348040 -0.573093
O8    O     O_R   0.176600 0.492580 0.626860 -0.615631
O9    O     O_R   0.823400 0.507420 0.373140 -0.616315
O10   O     O_3   0.028844 0.367237 0.163962 -0.636423
Zn1   Zn    Zn3+2 0.861850 0.523100 0.516760 0.929155
Zn2   Zn    Zn3+2 0.138150 0.476900 0.483240 0.938134

loop_
_geom_bond_atom_site_label_1
_geom_bond_atom_site_label_2
_ccdc_geom_bond_type
C12   O3    A    
C29   H29   S    
C8    C13   A    
O4    Zn2   S    
O1    Zn1   S    
C22   O10   S    
C19   C31   A    
C28   H22   S    
C27   H20   S    
C6    O9    A    
C7    C11   A    
C14   H25   S    
C26   C27   S    
C30   H1    S    
C24   H11   S    
C5    O6    A    
C5    O8    A    
C25   H16   S    
C17   C19   A    
C23   H28   S    
C22   H10   S    
C31   H12   S    
H8    N1    S    
O7    Zn2   S    
C4    H5    S    
C18   C30   A    
C32   H4    S    
C34   H2    S    
C2    C34   S    
C15   H23   S    
O3    Zn2   S    
C3    N1    D    
C28   H21   S    
C2    H30   S    
C20   C29   A    
C7    C14   A    
C23   C30   A    
C24   C25   S    
C5    C7    S    
C6    C8    S    
C1    C32   S    
C33   H3    S    
C32   C34   D    
O6    Zn1   S    
C26   H18   S    
C9    C11   A    
C22   H9    S    
C13   O10   S    
C10   C19   A    
C16   C20   A    
O9    Zn1   S    
C25   H14   S    
C2    C33   D    
C12   O5    A    
C3    H6    S    
C8    C15   A    
C21   C23   A    
C14   C16   A    
C10   H27   S    
C3    C4    S    
O5    Zn1   S    
C11   O2    S    
C6    O7    A    
C15   C17   A    
N2    Zn1   S    
N1    Zn2   S    
C24   H13   S    
C10   C13   A    
C27   H19   S    
H7    N2    S    
C28   H24   S    
C1    O4    A    
C9    H26   S    
C26   O2    S    
C29   C31   A    
C26   H17   S    
C4    N2    D    
C1    O1    A    
C22   C24   S    
C25   H15   S    
C9    C18   A    
C20   C21   A    
C16   C18   A    
O8    Zn2   S    
C27   C28   S    
C12   C33   S    
C17   C21   A    
