data_mof_unit_4535.cif
_audit_creation_date              2012-12-11T15:41:27-0500
_audit_creation_method            fapswitch 2.2
_symmetry_space_group_name_H-M    P1
_symmetry_Int_Tables_number       1
_space_group_crystal_system       triclinic
_cell_length_a                    14.901107
_cell_length_b                    15.068875
_cell_length_c                    14.77213
_cell_angle_alpha                 109.437865
_cell_angle_beta                  109.161448
_cell_angle_gamma                 110.253234
_cell_volume                      2539.29874764

loop_
_atom_site_label
_atom_site_type_symbol
_atom_type_description
_atom_site_fract_x
_atom_site_fract_y
_atom_site_fract_z
_atom_type_partial_charge
C1    C     C_R   0.249734 0.063372 0.973165 -0.113509
C2    C     C_R   0.714665 0.603759 0.760390 -0.105557
C3    C     C_R   0.356565 0.429156 0.111530 -0.189362
C4    C     C_R   0.674901 0.570838 0.824052 -0.171105
C5    C     C_R   0.453255 0.440301 0.109060 0.137347
C6    C     C_R   0.573889 0.560188 0.813769 0.132481
C7    C     C_R   0.531068 0.435840 0.190164 -0.133406
C8    C     C_R   0.513327 0.582645 0.738175 -0.137390
C9    C     C_R   0.510931 0.417492 0.270120 -0.107402
C10   C     C_R   0.553330 0.615168 0.674394 -0.112384
C11   C     C_R   0.414212 0.405765 0.271367 -0.079054
C12   C     C_R   0.803805 0.004178 0.095631 -0.128808
C13   C     C_R   0.653877 0.625855 0.685555 -0.082653
C14   C     C_R   0.478967 0.555284 0.024034 -0.230659
C15   C     C_R   0.526931 0.430120 0.881578 -0.236839
C16   C     C_R   0.747871 0.222028 0.315903 -0.119258
C17   C     C_R   0.194158 0.790907 0.699585 -0.112136
C18   C     C_R   0.503441 0.582665 0.950197 0.074205
C19   C     C_R   0.497747 0.400956 0.952424 0.063524
C20   C     C_R   0.532387 0.523660 0.881094 0.009058
C21   C     C_R   0.475742 0.464172 0.026312 0.004695
C22   C     C_R   0.862388 0.527214 0.433035 -0.199419
C23   C     C_R   0.772674 0.324455 0.328085 0.024058
C24   C     C_R   0.961944 0.523970 0.626824 -0.185511
C25   C     C_R   0.954320 0.622462 0.526912 -0.163649
C26   C     C_R   0.870787 0.428979 0.533080 -0.168209
C27   C     C_R   0.011460 0.617864 0.620195 0.137436
C28   C     C_R   0.829347 0.427535 0.432441 0.135160
C29   C     C_R   0.597828 0.928776 0.567729 -0.236027
C30   C     C_R   0.400072 0.827155 0.371595 -0.235297
C31   C     C_R   0.599895 0.920828 0.471764 0.031850
C32   C     C_R   0.398109 0.822881 0.464061 0.031854
C33   C     C_R   0.500941 0.888412 0.379640 0.053436
C34   C     C_R   0.128502 0.699875 0.699572 0.034100
C35   C     C_R   0.497468 0.892969 0.567312 0.050701
C36   C     C_R   0.126070 0.055277 0.157496 -0.177901
C37   C     C_R   0.038157 0.157803 0.060592 -0.187155
C38   C     C_R   0.035305 0.058569 0.160219 -0.175482
C39   C     C_R   0.128748 0.154358 0.057823 -0.174930
C40   C     C_R   0.409197 0.902187 0.208511 -0.146893
C41   C     C_R   0.591042 0.022535 0.776199 -0.138075
C42   C     C_R   0.984179 0.099762 0.101462 0.149084
C43   C     C_R   0.165140 0.092528 0.095486 0.151691
C44   C     C_R   0.592210 0.304709 0.005081 -0.001429
C45   C     C_R   0.501066 0.928837 0.300922 0.064133
C46   C     C_R   0.407390 0.685152 0.937253 0.019394
C47   C     C_R   0.591858 0.995905 0.300442 -0.148460
C48   C     C_R   0.406719 0.933478 0.684032 -0.131333
C49   C     C_R   0.407556 0.213165 0.917030 -0.141966
C50   C     C_R   0.592681 0.779225 0.026858 -0.129272
C51   C     C_R   0.748025 0.313862 0.224805 -0.134487
C52   C     C_R   0.192987 0.703213 0.793266 -0.137305
C53   C     C_R   0.251125 0.973202 0.066778 -0.132652
C54   C     C_R   0.805195 0.095532 0.004659 -0.142854
C55   C     C_R   0.224392 0.048868 0.051365 0.042436
C56   C     C_R   0.497969 0.943915 0.671988 0.064143
C57   C     C_R   0.868688 0.066542 0.067088 0.052200
C58   C     C_R   0.702846 0.939516 0.468251 0.113971
C59   C     C_R   0.805264 0.033885 0.553280 -0.179407
C60   C     C_R   0.901428 0.050735 0.548147 -0.111931
C61   C     C_R   0.896324 0.973557 0.458698 -0.098300
C62   C     C_R   0.795099 0.879119 0.374305 -0.125516
C63   C     C_R   0.698744 0.861753 0.379097 -0.141501
C64   C     C_R   0.296865 0.738617 0.449594 0.118836
C65   C     C_R   0.190780 0.715095 0.380240 -0.188964
C66   C     C_R   0.096887 0.631845 0.364313 -0.122973
C67   C     C_R   0.499445 0.309276 0.956038 0.017006
C68   C     C_R   0.107747 0.570617 0.415986 -0.074908
C69   C     C_R   0.212524 0.594383 0.486290 -0.107692
C70   C     C_R   0.306551 0.677840 0.503091 -0.143900
C71   C     C_R   0.704262 0.376453 0.027374 0.101118
C72   C     C_R   0.763753 0.330987 0.994553 -0.140336
C73   C     C_R   0.868457 0.398110 0.014265 -0.123193
C74   C     C_R   0.915005 0.511564 0.067064 -0.082933
C75   C     C_R   0.857350 0.558050 0.101231 -0.145929
C76   C     C_R   0.753100 0.491190 0.082514 -0.175970
C77   C     C_R   0.297607 0.594537 0.898490 0.124799
C78   C     C_R   0.500519 0.676565 0.953188 -0.011720
C79   C     C_R   0.240780 0.499585 0.794294 -0.128487
C80   C     C_R   0.138967 0.412333 0.759808 -0.122175
C81   C     C_R   0.093951 0.418631 0.829566 -0.112979
C82   C     C_R   0.150793 0.512148 0.934053 -0.137220
C83   C     C_R   0.252465 0.599708 0.968706 -0.191891
C84   C     C_R   0.337573 0.412513 0.192715 -0.114975
H1    H     H_    0.263132 0.404402 0.194361 0.122695
H2    H     H_    0.547345 0.380977 0.828733 0.139723
H3    H     H_    0.826493 0.530578 0.358578 0.110277
H4    H     H_    0.999376 0.518768 0.699587 0.126643
H5    H     H_    0.674658 0.964947 0.642749 0.122904
H6    H     H_    0.323249 0.783552 0.294365 0.114533
H7    H     H_    0.157042 0.013287 0.193898 0.107206
H8    H     H_    0.005050 0.196496 0.020683 0.106292
H9    H     H_    0.757695 0.199924 0.379280 0.093530
H10   H     H_    0.166530 0.822610 0.647307 0.086724
H11   H     H_    0.999959 0.019018 0.198921 0.104668
H12   H     H_    0.792537 0.611938 0.768947 0.115909
H13   H     H_    0.161902 0.190843 0.016014 0.118263
H14   H     H_    0.324357 0.841826 0.175216 0.080159
H15   H     H_    0.676490 0.052640 0.798335 0.094715
H16   H     H_    0.677470 0.025598 0.352941 0.117961
H17   H     H_    0.320743 0.883259 0.620990 0.115131
H18   H     H_    0.323013 0.186263 0.861795 0.099503
H19   H     H_    0.677914 0.799802 0.064816 0.107806
H20   H     H_    0.759516 0.378094 0.205855 0.109277
H21   H     H_    0.161968 0.659114 0.830444 0.118881
H22   H     H_    0.241608 0.941622 0.120792 0.094573
H23   H     H_    0.296170 0.433752 0.050832 0.132819
H24   H     H_    0.833963 0.155435 0.980853 0.079990
H25   H     H_    0.399016 0.392246 0.333741 0.109266
H26   H     H_    0.684497 0.650935 0.635968 0.110376
H27   H     H_    0.236676 0.113372 0.938780 0.092600
H28   H     H_    0.830348 0.980467 0.156314 0.083564
H29   H     H_    0.986527 0.695528 0.521385 0.112789
H30   H     H_    0.842101 0.355066 0.537699 0.109913
H31   H     H_    0.810445 0.095158 0.622425 0.104980
H32   H     H_    0.979905 0.123850 0.613399 0.102783
H33   H     H_    0.970837 0.986921 0.454806 0.096771
H34   H     H_    0.723225 0.554258 0.881890 0.128147
H35   H     H_    0.791232 0.819363 0.305094 0.103815
H36   H     H_    0.620863 0.788153 0.313051 0.113643
H37   H     H_    0.180541 0.761439 0.339259 0.105089
H38   H     H_    0.015556 0.614575 0.311855 0.124069
H39   H     H_    0.035035 0.504962 0.401945 0.124090
H40   H     H_    0.220928 0.547751 0.527348 0.108166
H41   H     H_    0.387045 0.694422 0.557001 0.105512
H42   H     H_    0.728990 0.243794 0.952390 0.112925
H43   H     H_    0.913303 0.362041 0.988132 0.095174
H44   H     H_    0.996032 0.563502 0.082257 0.094500
H45   H     H_    0.608111 0.448371 0.192984 0.096282
H46   H     H_    0.893928 0.646090 0.143251 0.105369
H47   H     H_    0.711541 0.529581 0.112269 0.117161
H48   H     H_    0.274740 0.493328 0.739573 0.096710
H49   H     H_    0.095026 0.339747 0.679040 0.105607
H50   H     H_    0.015251 0.350899 0.802808 0.099490
H51   H     H_    0.116394 0.516541 0.988459 0.107506
H52   H     H_    0.296599 0.670642 0.050556 0.112728
H53   H     H_    0.434770 0.573782 0.727369 0.098732
H54   H     H_    0.571007 0.413672 0.331928 0.117247
H55   H     H_    0.506153 0.631464 0.615714 0.104531
H56   H     H_    0.463643 0.606619 0.081320 0.134399
N1    N     N_R   0.293810 0.002730 0.945950 -0.040883
N2    N     N_R   0.443210 0.997250 0.791090 -0.042612
N3    N     N_R   0.443180 0.152110 0.945950 -0.044121
N4    N     N_R   0.556820 0.847890 0.054050 -0.048421
N5    N     N_R   0.706170 0.208950 0.152090 -0.039203
N6    N     N_R   0.293830 0.791050 0.847910 -0.042893
N7    N     N_R   0.293800 0.945910 0.002760 -0.039940
N8    N     N_R   0.706200 0.054090 0.997240 -0.039719
N9    N     N_R   0.706190 0.997270 0.054050 -0.035599
N10   N     N_R   0.706160 0.152130 0.208910 -0.038981
N11   N     N_R   0.293840 0.847870 0.791090 -0.041255
N12   N     N_R   0.443140 0.945920 0.152090 -0.037746
N13   N     N_R   0.556860 0.054080 0.847910 -0.049199
N14   N     N_R   0.556830 0.208940 0.002760 -0.057260
N15   N     N_R   0.443170 0.791060 0.997240 -0.060951
N16   N     N_R   0.556790 0.002750 0.208910 -0.039205
Ni1   Ni    Ni4+2 0.369690 0.999990 0.869700 0.207404
Ni2   Ni    Ni4+2 0.630310 0.000010 0.130300 0.212004
Ni3   Ni    Ni4+2 0.369670 0.869670 0.000000 0.205872
Ni4   Ni    Ni4+2 0.630330 0.130330 0.000000 0.210602

loop_
_geom_bond_atom_site_label_1
_geom_bond_atom_site_label_2
_ccdc_geom_bond_type
C66   C68   A    
C11   H25   S    
C33   C45   S    
C73   C74   A    
C14   C18   A    
C53   C55   A    
C24   C27   A    
C30   H6    S    
N7    Ni3   S    
C29   H5    S    
C81   C82   A    
C81   H50   S    
C15   C19   A    
C46   N15   A    
C16   H9    S    
C62   C63   A    
N11   Ni1   S    
C14   C21   A    
C54   N8    A    
C19   C21   A    
C24   C26   A    
C38   C42   A    
C40   H14   S    
C71   C76   A    
C76   H47   S    
C39   H13   S    
C47   N16   A    
C77   C83   A    
C53   N7    A    
C40   N12   A    
C44   C71   S    
C48   C56   A    
N8    Ni4   S    
C37   C42   A    
C2    C13   A    
C53   H22   S    
C74   H44   S    
N12   N16   A    
C68   C69   A    
C22   C25   A    
C38   H11   S    
C41   H15   S    
C19   C67   S    
C64   C70   A    
N10   Ni2   S    
N9    Ni2   S    
N5    N10   A    
C37   H8    S    
C75   H46   S    
C61   C62   A    
C45   C47   A    
N12   Ni3   S    
C59   C60   A    
C22   C28   A    
C4    H34   S    
C17   N11   A    
C50   C78   A    
C68   H39   S    
C50   N4    A    
N3    Ni1   S    
C41   N13   A    
C77   C79   A    
C27   C34   S    
C15   C20   A    
C37   C39   A    
C74   C75   A    
C61   H33   S    
C32   C35   A    
N8    N9    A    
C32   C64   S    
C4    C6    A    
C49   H18   S    
C5    C7    A    
N5    Ni4   S    
C80   C81   A    
N3    N14   A    
C39   C43   A    
N6    Ni3   S    
C69   H40   S    
C3    H23   S    
C51   H20   S    
C22   H3    S    
N15   Ni3   S    
C2    H12   S    
C42   C57   S    
C80   H49   S    
N6    N11   A    
C72   H42   S    
C8    H53   S    
C36   C43   A    
C2    C4    A    
C75   C76   A    
C26   H30   S    
C41   C56   A    
N14   Ni4   S    
C13   H26   S    
C25   H29   S    
C47   H16   S    
C24   H4    S    
C9    H54   S    
C23   C51   A    
C18   C78   S    
C79   H48   S    
C66   H38   S    
C62   H35   S    
C48   N2    A    
C23   C28   S    
C84   H1    S    
C9    C11   A    
C83   H52   S    
C15   H2    S    
C12   C57   A    
C36   H7    S    
N1    Ni1   S    
C14   H56   S    
C52   H21   S    
C82   C83   A    
C16   C23   A    
C65   H37   S    
C60   H32   S    
C17   C34   A    
N2    Ni1   S    
N4    Ni2   S    
C12   H28   S    
C70   H41   S    
C46   C78   A    
C43   C55   S    
C58   C63   A    
C7    C9    A    
C31   C33   A    
C52   N6    A    
C49   C67   A    
C30   C33   A    
C35   C56   S    
C34   C52   A    
C12   N9    A    
C8    C10   A    
C72   C73   A    
C3    C5    A    
C10   C13   A    
C31   C58   S    
C46   C77   S    
C6    C8    A    
C11   C84   A    
C25   C27   A    
C6    C20   S    
C29   C35   A    
C26   C28   A    
C54   H24   S    
C44   N14   A    
C64   C65   A    
N4    N15   A    
C36   C38   A    
C82   H51   S    
C71   C72   A    
C29   C31   A    
C73   H43   S    
C1    H27   S    
C30   C32   A    
C63   H36   S    
N13   Ni4   S    
C48   H17   S    
C49   N3    A    
N16   Ni2   S    
C18   C20   A    
N2    N13   A    
C1    C55   A    
C69   C70   A    
C58   C59   A    
C7    H45   S    
C1    N1    A    
N1    N7    A    
C79   C80   A    
C50   H19   S    
C5    C21   S    
C40   C45   A    
C59   H31   S    
C65   C66   A    
C10   H55   S    
C3    C84   A    
C51   N5    A    
C60   C61   A    
C44   C67   A    
C16   N10   A    
C17   H10   S    
C54   C57   A    
