data_mof_unit_1883.cif
_audit_creation_date              2012-12-11T14:07:17-0500
_audit_creation_method            fapswitch 2.2
_symmetry_space_group_name_H-M    P1
_symmetry_Int_Tables_number       1
_space_group_crystal_system       triclinic
_cell_length_a                    19.855795
_cell_length_b                    17.006818
_cell_length_c                    15.597256
_cell_angle_alpha                 90.166625
_cell_angle_beta                  53.028815
_cell_angle_gamma                 90.194821
_cell_volume                      4207.93379002

loop_
_atom_site_label
_atom_site_type_symbol
_atom_type_description
_atom_site_fract_x
_atom_site_fract_y
_atom_site_fract_z
_atom_type_partial_charge
C1    C     C_R   0.361244 0.191782 0.013768 -0.034204
C2    C     C_R   0.336759 0.831559 0.059038 0.000473
C3    C     C_R   0.861245 0.691783 0.013765 -0.034204
C4    C     C_R   0.836759 0.331559 0.059038 0.000474
C5    C     C_R   0.669977 0.915076 0.048191 0.531960
C6    C     C_R   0.628891 0.106492 0.109091 0.533799
C7    C     C_R   0.169976 0.415075 0.048193 0.531961
C8    C     C_R   0.128891 0.606492 0.109091 0.533795
C9    C     C_R   0.647031 0.184691 0.077447 -0.203467
C10   C     C_R   0.712829 0.854490 0.972249 -0.187533
C11   C     C_R   0.147032 0.684691 0.077446 -0.203467
C12   C     C_R   0.212828 0.354489 0.972252 -0.187535
C13   C     C_R   0.603140 0.813588 0.700880 0.094710
C14   C     C_R   0.693305 0.137699 0.676936 -0.051043
C15   C     C_R   0.103138 0.313587 0.700882 0.094711
C16   C     C_R   0.193304 0.637700 0.676936 -0.051069
C17   C     C_3   0.180168 0.131954 0.511673 0.253401
C18   C     C_3   0.262335 0.811352 0.481474 0.236726
C19   C     C_3   0.680166 0.631954 0.511672 0.253410
C20   C     C_3   0.762333 0.311351 0.481474 0.236725
C21   C     C_3   0.113295 0.181725 0.611684 0.250074
C22   C     C_3   0.215410 0.768313 0.588843 0.323252
C23   C     C_3   0.613294 0.681727 0.611683 0.249968
C24   C     C_3   0.715410 0.268312 0.588843 0.323248
C25   C     C_3   0.302611 0.224222 0.455765 -0.770983
C26   C     C_3   0.394423 0.739051 0.431754 -0.668135
C27   C     C_3   0.802611 0.724220 0.455765 -0.770993
C28   C     C_3   0.894423 0.239054 0.431755 -0.668265
C29   C     C_3   0.707933 0.757535 0.405230 0.424576
C30   C     C_3   0.808408 0.183821 0.375421 0.462756
C31   C     C_3   0.207931 0.257533 0.405231 0.424585
C32   C     C_3   0.308406 0.683823 0.375422 0.462760
C33   C     C_3   0.250203 0.187770 0.421427 0.169481
C34   C     C_3   0.340061 0.761487 0.393757 0.080053
C35   C     C_3   0.750203 0.687770 0.421427 0.169483
C36   C     C_3   0.840061 0.261486 0.393757 0.080100
C37   C     C_3   0.651628 0.764882 0.602050 0.051301
C38   C     C_3   0.750832 0.182298 0.573720 0.078532
C39   C     C_3   0.151626 0.264881 0.602051 0.051248
C40   C     C_3   0.250831 0.682299 0.573720 0.078533
C41   C     C_3   0.743817 0.760940 0.567190 0.366054
C42   C     C_3   0.845617 0.181905 0.528162 0.351863
C43   C     C_3   0.243817 0.260942 0.567189 0.366055
C44   C     C_3   0.345616 0.681905 0.528162 0.351857
C45   C     C_R   0.399618 0.799486 0.204299 -0.155311
C46   C     C_R   0.352503 0.174784 0.219123 -0.229408
C47   C     C_R   0.899618 0.299486 0.204299 -0.155326
C48   C     C_R   0.852503 0.674784 0.219123 -0.229420
C49   C     C_3   0.656329 0.806742 0.509032 -0.709725
C50   C     C_3   0.749456 0.142229 0.483747 -0.676828
C51   C     C_3   0.156326 0.306740 0.509034 -0.709730
C52   C     C_3   0.249454 0.642231 0.483748 -0.676826
C53   C     C_2   0.211612 0.731361 0.070008 0.392895
C54   C     C_2   0.277922 0.303709 0.956439 0.371699
C55   C     C_2   0.711611 0.231361 0.070009 0.392895
C56   C     C_2   0.777923 0.803711 0.956436 0.371705
C57   C     C_2   0.709716 0.311009 0.066544 0.411229
C58   C     C_2   0.760484 0.726047 0.976661 0.409305
C59   C     C_2   0.209717 0.811009 0.066544 0.411228
C60   C     C_2   0.260482 0.226046 0.976664 0.409308
C61   C     C_R   0.328241 0.912795 0.955352 -0.122368
C62   C     C_R   0.349292 0.103664 0.918681 -0.156399
C63   C     C_R   0.828241 0.412795 0.955352 -0.122370
C64   C     C_R   0.849293 0.603664 0.918680 -0.156401
C65   C     C_R   0.358955 0.081892 0.314384 0.432591
C66   C     C_R   0.413115 0.887370 0.297259 0.491254
C67   C     C_R   0.858954 0.581892 0.314383 0.432604
C68   C     C_R   0.913115 0.387370 0.297259 0.491265
C69   C     C_R   0.321282 0.175351 0.969209 0.013167
C70   C     C_R   0.285290 0.854664 0.033289 -0.027224
C71   C     C_R   0.821284 0.675352 0.969206 0.013169
C72   C     C_R   0.785290 0.354664 0.033289 -0.027224
C73   C     C_R   0.389875 0.811008 0.297646 0.008426
C74   C     C_R   0.310880 0.143983 0.321407 0.124299
C75   C     C_R   0.889875 0.311008 0.297646 0.008420
C76   C     C_R   0.810879 0.643982 0.321406 0.124320
C77   C     C_R   0.619275 0.200794 0.017771 -0.063632
C78   C     C_R   0.664423 0.829414 0.941851 -0.102227
C79   C     C_R   0.119275 0.700794 0.017771 -0.063634
C80   C     C_R   0.164422 0.329413 0.941853 -0.102229
C81   C     C_R   0.595180 0.800067 0.794251 0.590534
C82   C     C_R   0.651866 0.168778 0.780725 0.594784
C83   C     C_R   0.095179 0.300067 0.794251 0.590536
C84   C     C_R   0.151866 0.668779 0.780725 0.594784
C85   C     C_R   0.642771 0.075806 0.686958 -0.246280
C86   C     C_R   0.587754 0.892528 0.700615 -0.320755
C87   C     C_R   0.142770 0.575807 0.686958 -0.246273
C88   C     C_R   0.087753 0.392528 0.700615 -0.320753
H1    H     H_    0.558577 0.690537 0.609890 0.175356
H2    H     H_    0.647710 0.263196 0.622366 0.162438
H3    H     H_    0.058578 0.190533 0.609892 0.175367
H4    H     H_    0.147710 0.763198 0.622364 0.162439
H5    H     H_    0.344901 0.181456 0.455160 0.250165
H6    H     H_    0.411480 0.792545 0.455811 0.270579
H7    H     H_    0.844900 0.681453 0.455160 0.250166
H8    H     H_    0.911477 0.292548 0.455814 0.270569
H9    H     H_    0.757100 0.797418 0.340811 0.039705
H10   H     H_    0.864210 0.145738 0.319302 0.038137
H11   H     H_    0.257098 0.297417 0.340813 0.039704
H12   H     H_    0.364207 0.645739 0.319301 0.038132
H13   H     H_    0.687889 0.865037 0.491410 0.173483
H14   H     H_    0.770028 0.079788 0.472024 0.158841
H15   H     H_    0.187884 0.365036 0.491412 0.173487
H16   H     H_    0.270025 0.579790 0.472024 0.158841
H17   H     H_    0.345432 0.270404 0.396972 0.193383
H18   H     H_    0.454382 0.710977 0.365033 0.202939
H19   H     H_    0.845432 0.770402 0.396972 0.193384
H20   H     H_    0.954383 0.210982 0.365035 0.202958
H21   H     H_    0.401043 0.743798 0.169643 0.154398
H22   H     H_    0.337045 0.227394 0.196853 0.124700
H23   H     H_    0.901043 0.243799 0.169643 0.154405
H24   H     H_    0.837043 0.727393 0.196853 0.124703
H25   H     H_    0.612996 0.258191 0.994054 0.231806
H26   H     H_    0.679455 0.782992 0.885613 0.192076
H27   H     H_    0.112996 0.758191 0.994054 0.231807
H28   H     H_    0.179454 0.282990 0.885615 0.192075
H29   H     H_    0.209980 0.090052 0.534042 0.119490
H30   H     H_    0.283388 0.869518 0.491167 0.130122
H31   H     H_    0.709975 0.590050 0.534042 0.119526
H32   H     H_    0.783384 0.369517 0.491167 0.130129
N1    N     N_R   0.408680 0.130160 0.995800 -0.048224
N2    N     N_R   0.408680 0.869840 0.995800 -0.060783
N3    N     N_R   0.908680 0.630160 0.995800 -0.048223
N4    N     N_R   0.908680 0.369840 0.995800 -0.060782
N5    N     N_R   0.421680 0.867580 0.153120 -0.091462
N6    N     N_R   0.421680 0.132420 0.153120 -0.072650
N7    N     N_R   0.921680 0.367580 0.153120 -0.091461
N8    N     N_R   0.921680 0.632420 0.153120 -0.072650
N9    N     N_R   0.403730 0.921770 0.935950 -0.039335
N10   N     N_R   0.403730 0.078230 0.935950 -0.039021
N11   N     N_R   0.903730 0.421770 0.935950 -0.039335
N12   N     N_R   0.903730 0.578230 0.935950 -0.039020
N13   N     N_R   0.426630 0.075970 0.212960 -0.105862
N14   N     N_R   0.426630 0.924030 0.212960 -0.106948
N15   N     N_R   0.926630 0.575970 0.212960 -0.105865
N16   N     N_R   0.926630 0.424030 0.212960 -0.106948
N17   N     N_R   0.591320 0.134600 0.004200 -0.087872
N18   N     N_R   0.591320 0.865400 0.004200 -0.088207
N19   N     N_R   0.091320 0.634600 0.004200 -0.087873
N20   N     N_R   0.091320 0.365400 0.004200 -0.088208
N21   N     N_R   0.578320 0.867660 0.846880 -0.132140
N22   N     N_R   0.578320 0.132340 0.846880 -0.084482
N23   N     N_R   0.078320 0.367660 0.846880 -0.132139
N24   N     N_R   0.078320 0.632340 0.846880 -0.084481
N25   N     N_R   0.573370 0.074390 0.787040 -0.059962
N26   N     N_R   0.573370 0.925610 0.787040 -0.057723
N27   N     N_R   0.073370 0.574390 0.787040 -0.059961
N28   N     N_R   0.073370 0.425610 0.787040 -0.057725
N29   N     N_R   0.596270 0.927870 0.064040 -0.083426
N30   N     N_R   0.596270 0.072130 0.064040 -0.093834
N31   N     N_R   0.096270 0.427870 0.064040 -0.083427
N32   N     N_R   0.096270 0.572130 0.064040 -0.093835
Ni1   Ni    Ni4+2 0.500000 0.131190 0.000000 0.246536
Ni2   Ni    Ni4+2 0.500000 0.868810 0.000000 0.214377
Ni3   Ni    Ni4+2 0.000000 0.631190 0.000000 0.246536
Ni4   Ni    Ni4+2 0.000000 0.368810 0.000000 0.214378
Ni5   Ni    Ni4+2 0.488650 0.000000 0.862740 0.215786
Ni6   Ni    Ni4+2 0.988650 0.500000 0.862740 0.215784
Ni7   Ni    Ni4+2 0.511350 1.000000 0.137260 0.255113
Ni8   Ni    Ni4+2 0.011350 0.500000 0.137260 0.255113
H33   H     H_    0.362314 0.247513 0.046065 0.129399
H34   H     H_    0.322929 0.788407 0.117941 0.166577
H35   H     H_    0.862316 0.747514 0.046062 0.129398
H36   H     H_    0.822929 0.288407 0.117941 0.166579
O1    O     O_3   0.141797 0.088837 0.474568 -0.688953
H37   H     H_    0.108622 0.046307 0.527574 0.336554
O2    O     O_3   0.206997 0.825151 0.454842 -0.686646
H38   H     H_    0.228951 0.871281 0.406118 0.335683
O3    O     O_3   0.641796 0.588838 0.474565 -0.688937
H39   H     H_    0.608564 0.546344 0.527620 0.336539
O4    O     O_3   0.706995 0.325146 0.454842 -0.686643
H40   H     H_    0.728951 0.371273 0.406112 0.335694
O5    O     O_3   0.079891 0.142241 0.708719 -0.685413
H41   H     H_    0.125807 0.115571 0.704891 0.348067
O6    O     O_3   0.217973 0.814779 0.661570 -0.702113
H42   H     H_    0.277708 0.824139 0.631626 0.355707
O7    O     O_3   0.579888 0.642243 0.708719 -0.685422
H43   H     H_    0.625802 0.615570 0.704891 0.348071
O8    O     O_3   0.717974 0.314779 0.661569 -0.702114
H44   H     H_    0.777709 0.324138 0.631624 0.355698
O9    O     O_3   0.749161 0.722386 0.642879 -0.719382
H45   H     H_    0.751346 0.664859 0.631469 0.335530
O10   O     O_3   0.858072 0.202369 0.604735 -0.779200
H46   H     H_    0.917501 0.189420 0.573330 0.345453
O11   O     O_3   0.249162 0.222391 0.642878 -0.719388
H47   H     H_    0.251349 0.164864 0.631469 0.335529
O12   O     O_3   0.358072 0.702372 0.604733 -0.779216
H48   H     H_    0.417479 0.689369 0.573364 0.345448
O13   O     O_3   0.656467 0.729495 0.377744 -0.694061
H49   H     H_    0.645092 0.774828 0.348211 0.323547
O14   O     O_3   0.764613 0.197652 0.331923 -0.702592
H50   H     H_    0.761762 0.146637 0.303089 0.318441
O15   O     O_3   0.156466 0.229491 0.377745 -0.694063
H51   H     H_    0.145089 0.274824 0.348214 0.323543
O16   O     O_3   0.264610 0.697656 0.331925 -0.702588
H52   H     H_    0.261757 0.646642 0.303091 0.318439
H53   H     H_    0.591861 0.817590 0.532774 0.225556
H54   H     H_    0.684006 0.142882 0.507852 0.240779
H55   H     H_    0.091857 0.317586 0.532777 0.225548
H56   H     H_    0.184004 0.642884 0.507853 0.240777
H57   H     H_    0.766463 0.822231 0.560964 0.126040
H58   H     H_    0.870687 0.121202 0.499245 0.100531
H59   H     H_    0.266461 0.322234 0.560963 0.126043
H60   H     H_    0.370683 0.621201 0.499245 0.100482
O17   O     O_3   0.283155 0.693066 0.044913 -0.782835
H61   H     H_    0.279437 0.635905 0.036016 0.341104
O18   O     O_3   0.356444 0.333477 0.917722 -0.774932
H62   H     H_    0.357435 0.390236 0.902524 0.331171
O19   O     O_3   0.783154 0.193066 0.044916 -0.782840
H63   H     H_    0.779437 0.135907 0.036015 0.341110
O20   O     O_3   0.856446 0.833478 0.917719 -0.774924
H64   H     H_    0.857435 0.890239 0.902528 0.331167
O21   O     O_3   0.639280 0.349858 0.090209 -0.781924
H65   H     H_    0.650408 0.407216 0.084377 0.324987
O22   O     O_3   0.681830 0.695814 0.015834 -0.775264
H66   H     H_    0.680473 0.638856 0.030382 0.325201
O23   O     O_3   0.139279 0.849858 0.090210 -0.781924
H67   H     H_    0.150408 0.907216 0.084378 0.324987
O24   O     O_3   0.181828 0.195813 0.015838 -0.775266
H68   H     H_    0.180469 0.138855 0.030391 0.325202
H69   H     H_    0.307077 0.943691 0.915156 0.117445
H70   H     H_    0.336710 0.076216 0.867025 0.123080
H71   H     H_    0.807077 0.443691 0.915157 0.117445
H72   H     H_    0.836711 0.576217 0.867024 0.123079
O25   O     O_3   0.350048 0.046352 0.399368 -0.786737
H73   H     H_    0.406410 0.048641 0.383176 0.337361
O26   O     O_3   0.449145 0.909628 0.346099 -0.763859
H74   H     H_    0.492227 0.950073 0.299770 0.349374
O27   O     O_3   0.850046 0.546350 0.399368 -0.786731
H75   H     H_    0.906408 0.548639 0.383178 0.337357
O28   O     O_3   0.949144 0.409628 0.346099 -0.763861
H76   H     H_    0.992227 0.450073 0.299770 0.349373
O29   O     O_3   0.584314 0.727625 0.839751 -0.692461
H77   H     H_    0.558892 0.736130 0.916519 0.309068
O30   O     O_3   0.677169 0.228860 0.813629 -0.739891
H78   H     H_    0.738674 0.225141 0.773000 0.376182
O31   O     O_3   0.084312 0.227624 0.839753 -0.692464
H79   H     H_    0.058893 0.236130 0.916520 0.309067
O32   O     O_3   0.177170 0.728859 0.813629 -0.739890
H80   H     H_    0.238674 0.725139 0.773000 0.376176
H81   H     H_    0.652670 0.037655 0.625068 0.151430
H82   H     H_    0.578773 0.922660 0.647285 0.156562
H83   H     H_    0.152669 0.537656 0.625068 0.151429
H84   H     H_    0.078772 0.422660 0.647285 0.156561
O33   O     O_3   0.689665 0.945504 0.112248 -0.717924
H85   H     H_    0.744448 0.923267 0.088362 0.315818
O34   O     O_3   0.618027 0.076652 0.198583 -0.719398
H86   H     H_    0.637314 0.116891 0.225601 0.325903
O35   O     O_3   0.189663 0.445503 0.112250 -0.717920
H87   H     H_    0.244445 0.423264 0.088366 0.315817
O36   O     O_3   0.118027 0.576651 0.198582 -0.719397
H88   H     H_    0.137314 0.616891 0.225601 0.325900

loop_
_geom_bond_atom_site_label_1
_geom_bond_atom_site_label_2
_ccdc_geom_bond_type
C61   C70   A    
N5    N14   A    
C79   N19   A    
O4    H40   S    
N32   Ni8   S    
C8    O36   S    
C25   H5    S    
O1    H37   S    
C77   N17   A    
C79   H27   S    
N3    N12   A    
O3    H39   S    
C48   C76   A    
C67   N15   A    
O32   H80   S    
C64   N12   A    
N1    N10   A    
C82   N22   A    
C2    H34   S    
C6    C9    A    
C83   O31   S    
C22   O6    S    
C53   C59   D    
C26   C44   S    
O36   H88   S    
N26   Ni5   S    
C54   C60   D    
O5    H41   S    
C68   C75   A    
O15   H51   S    
C64   H72   S    
O35   H87   S    
N1    Ni1   S    
C7    O35   S    
N10   Ni5   S    
C60   C69   S    
O9    H45   S    
C8    N32   A    
C85   N25   A    
C44   O12   S    
C38   C42   S    
C51   H55   S    
N24   N27   A    
C49   H13   S    
C45   H21   S    
C58   C71   S    
C14   C38   S    
C43   O11   S    
C51   H15   S    
C86   N26   A    
N19   N32   A    
C16   C84   A    
C5    N29   A    
C4    N4    A    
C45   C73   A    
C64   C71   A    
N23   Ni4   S    
O34   H86   S    
C62   N10   A    
C32   C52   S    
N8    Ni3   S    
C39   C51   S    
C66   N14   A    
C27   H7    S    
C26   C34   S    
C52   H16   S    
C20   C24   S    
N6    N13   A    
C45   N5    A    
C20   H32   S    
C30   C36   S    
C66   O26   S    
C16   C87   A    
C24   C38   S    
O30   H78   S    
C4    H36   S    
C52   H56   S    
C63   N11   A    
C10   C56   S    
O29   H77   S    
C18   H30   S    
N2    N9    A    
C13   C37   S    
C11   C53   S    
C68   O28   S    
C3    H35   S    
C58   O22   S    
N18   Ni2   S    
C81   N21   A    
N14   Ni7   S    
C30   C50   S    
C19   H31   S    
N22   Ni1   S    
C12   C54   S    
C82   O30   S    
C1    C69   A    
N2    Ni2   S    
N22   N25   A    
C41   O9    S    
C78   H26   S    
C17   C33   S    
C32   O16   S    
C77   H25   S    
C78   N18   A    
N9    Ni5   S    
C3    N3    A    
O19   H63   S    
C61   H69   S    
C2    N2    A    
N18   N29   A    
C10   C78   A    
C7    C12   A    
C35   C76   S    
C49   H53   S    
N30   Ni7   S    
C25   H17   S    
O18   H62   S    
C84   N24   A    
C63   H71   S    
C6    O34   S    
C68   N16   A    
N7    N16   A    
C56   O20   S    
C59   O23   S    
N8    N15   A    
C31   C51   S    
O2    H38   S    
C31   O15   S    
C19   C23   S    
C15   C83   A    
C59   C70   S    
C27   C35   S    
O23   H67   S    
C40   C52   S    
C66   C73   A    
N12   Ni6   S    
C65   C74   A    
O14   H50   S    
C62   C69   A    
N13   Ni7   S    
C32   C34   S    
C13   C86   A    
N11   Ni6   S    
C3    C71   A    
O22   H66   S    
O10   H46   S    
O27   H75   S    
C36   C75   S    
C23   C37   S    
C26   H18   S    
C55   O19   S    
N25   Ni5   S    
C27   C41   S    
O12   H48   S    
C53   O17   S    
O26   H74   S    
C21   C39   S    
N4    Ni4   S    
O21   H65   S    
C86   H82   S    
C13   C81   A    
C22   C40   S    
C24   O8    S    
C85   H81   S    
O25   H73   S    
C88   N28   A    
C65   O25   S    
C50   H54   S    
N28   Ni6   S    
C30   O14   S    
C29   C49   S    
C6    N30   A    
N29   Ni7   S    
N20   N31   A    
C67   O27   S    
C37   C49   S    
O8    H44   S    
C11   C79   A    
N21   N26   A    
N20   Ni4   S    
C9    C55   S    
C25   C43   S    
C48   H24   S    
C57   O21   S    
C50   H14   S    
C31   H11   S    
C26   H6    S    
C55   C57   D    
C43   H59   S    
N4    N11   A    
C29   O13   S    
N17   N30   A    
C60   O24   S    
C84   O32   S    
C14   C82   A    
C41   H57   S    
C16   C40   S    
C4    C72   A    
N5    Ni2   S    
C30   H10   S    
C21   H3    S    
C17   O1    S    
O24   H68   S    
C15   C39   S    
O17   H61   S    
N17   Ni1   S    
C31   C33   S    
N15   Ni8   S    
C18   C22   S    
C46   N6    A    
C54   O18   S    
C80   H28   S    
C19   O3    S    
C14   C85   A    
C5    O33   S    
C24   H2    S    
N7    Ni4   S    
C88   H84   S    
C39   C43   S    
C18   O2    S    
C23   H1    S    
C47   N7    A    
C38   C50   S    
C61   N9    A    
C42   O10   S    
N19   Ni3   S    
C29   C35   S    
C21   O5    S    
C29   H9    S    
C28   H8    S    
N16   Ni8   S    
N31   Ni8   S    
N24   Ni3   S    
C46   H22   S    
C9    C77   A    
C47   C75   A    
C5    C10   A    
O6    H42   S    
C80   N20   A    
C83   N23   A    
C27   H19   S    
O11   H47   S    
C2    C70   A    
C48   N8    A    
C18   C34   S    
C8    C11   A    
C47   H23   S    
O31   H79   S    
C12   C80   A    
C28   C42   S    
C56   C58   D    
C81   O29   S    
C62   H70   S    
C57   C72   S    
C37   C41   S    
O13   H49   S    
C28   H20   S    
C1    N1    A    
N23   N28   A    
C23   O7    S    
C42   H58   S    
C34   C73   S    
C1    H33   S    
O16   H52   S    
C20   C36   S    
N6    Ni1   S    
C32   H12   S    
C33   C74   S    
C40   C44   S    
C20   O4    S    
C7    N31   A    
C63   C72   A    
C28   C36   S    
O7    H43   S    
C87   N27   A    
O28   H76   S    
C44   H60   S    
C22   H4    S    
C19   C35   S    
C67   C76   A    
O20   H64   S    
N21   Ni2   S    
O33   H85   S    
N27   Ni6   S    
C46   C74   A    
C65   N13   A    
C87   H83   S    
N3    Ni3   S    
C17   H29   S    
C25   C33   S    
C15   C88   A    
C17   C21   S    
