data_mof_unit_1606.cif
_audit_creation_date              2012-12-10T17:55:28-0500
_audit_creation_method            fapswitch 2.2
_symmetry_space_group_name_H-M    P1
_symmetry_Int_Tables_number       1
_space_group_crystal_system       triclinic
_cell_length_a                    10.74902
_cell_length_b                    9.543709
_cell_length_c                    10.920896
_cell_angle_alpha                 90.000251
_cell_angle_beta                  89.923552
_cell_angle_gamma                 90.001624
_cell_volume                      1120.32478547

loop_
_atom_site_label
_atom_site_type_symbol
_atom_type_description
_atom_site_fract_x
_atom_site_fract_y
_atom_site_fract_z
_atom_type_partial_charge
C1    C     C_R   0.262725 0.499941 0.500731 0.835626
C2    C     C_R   0.737274 0.499947 0.499269 0.835590
C3    C     C_R   0.497594 0.500020 0.265320 0.831005
C4    C     C_R   0.502405 0.500021 0.734680 0.831009
C5    C     C_2   0.497393 0.384763 0.932984 -0.150691
C6    C     C_2   0.502604 0.384763 0.067015 -0.150665
C7    C     C_2   0.509271 0.502127 0.866696 -0.319571
C8    C     C_2   0.490729 0.502126 0.133304 -0.319572
C9    C     C_R   0.066536 0.500072 0.387398 0.118956
C10   C     C_R   0.935783 0.498515 0.386064 0.128896
C11   C     C_R   0.871326 0.499785 0.498902 -0.129122
C12   C     C_R   0.128673 0.499764 0.501097 -0.129121
C13   C     C_R   0.933464 0.499889 0.612599 0.119045
C14   C     C_R   0.064216 0.498294 0.613932 0.128841
C15   C     C_R   0.412127 0.074334 0.435013 0.483111
C16   C     C_R   0.587879 0.074337 0.564979 0.483072
C17   C     C_R   0.415822 0.925004 0.432103 -0.141858
C18   C     C_R   0.584172 0.925009 0.567903 -0.141868
Cu1   Cu    Cu3+1 0.500000 0.640660 0.500000 0.938676
Cu2   Cu    Cu3+1 0.500000 0.359340 0.500000 0.999870
H1    H     H_    0.485285 0.284045 0.888181 0.177743
H2    H     H_    0.514709 0.284045 0.111817 0.177737
H3    H     H_    0.526785 0.603305 0.907896 0.147808
H4    H     H_    0.473218 0.603303 0.092104 0.147807
H5    H     H_    0.350246 0.867670 0.376232 0.149233
H6    H     H_    0.649742 0.867687 0.623794 0.149258
N1    N     N_R   0.500000 0.852070 0.500000 -0.195583
N2    N     N_R   0.500000 0.147940 0.500000 -0.228061
O1    O     O_R   0.319640 0.618740 0.499990 -0.581304
O2    O     O_R   0.680360 0.618740 0.500010 -0.581304
O3    O     O_R   0.319620 0.381170 0.499990 -0.559126
O4    O     O_R   0.680380 0.381170 0.500010 -0.559175
O5    O     O_R   0.500000 0.618750 0.321940 -0.586098
O6    O     O_R   0.500000 0.618750 0.678060 -0.586067
O7    O     O_R   0.499970 0.381180 0.321940 -0.548547
O8    O     O_R   0.500030 0.381180 0.678060 -0.548563
C19   C     C_3   0.142740 0.501808 0.269703 -0.845965
H7    H     H_    0.203760 0.408044 0.266249 0.244776
H8    H     H_    0.087237 0.501781 0.184590 0.236032
H9    H     H_    0.201770 0.597280 0.267445 0.221628
C20   C     C_3   0.866435 0.495366 0.264913 -0.843443
H10   H     H_    0.764045 0.492227 0.274193 0.216467
H11   H     H_    0.889017 0.590745 0.211071 0.234520
H12   H     H_    0.893398 0.400317 0.212557 0.231656
C21   C     C_3   0.857259 0.501496 0.730294 -0.846017
H13   H     H_    0.798282 0.597001 0.732660 0.221589
H14   H     H_    0.796180 0.407775 0.733641 0.244859
H15   H     H_    0.912760 0.501302 0.815407 0.236025
C22   C     C_3   0.133563 0.494894 0.735080 -0.843496
H16   H     H_    0.235951 0.491713 0.725800 0.216481
H17   H     H_    0.111025 0.590191 0.789051 0.234523
H18   H     H_    0.106553 0.399768 0.787306 0.231722
O9    O     O_3   0.326122 0.146880 0.365006 -0.586033
C23   C     C_3   0.202305 0.108108 0.395643 0.038142
H19   H     H_    0.153648 0.202214 0.431245 0.182440
H20   H     H_    0.194143 0.026840 0.468780 0.117654
C24   C     C_3   0.134302 0.058499 0.280723 -0.349971
H21   H     H_    0.138930 0.141601 0.209521 0.229573
H22   H     H_    0.180347 0.962931 0.244308 0.209653
C25   C     C_3   0.998079 0.025640 0.308127 -0.919950
H23   H     H_    0.991050 0.940818 0.377474 0.258203
H24   H     H_    0.951151 0.990346 0.223037 0.258251
H25   H     H_    0.949725 0.120674 0.342737 0.252863
O10   O     O_3   0.673873 0.146875 0.635001 -0.586069
C26   C     C_3   0.797697 0.108156 0.604340 0.037964
H26   H     H_    0.846188 0.202146 0.568291 0.182513
H27   H     H_    0.805885 0.026491 0.531550 0.117546
C27   C     C_3   0.865891 0.059254 0.719372 -0.349635
H28   H     H_    0.861049 0.142613 0.790327 0.229641
H29   H     H_    0.820126 0.963658 0.756078 0.209689
C28   C     C_3   0.002195 0.026798 0.692015 -0.920225
H30   H     H_    0.009444 0.941702 0.622952 0.258164
H31   H     H_    0.049266 0.992060 0.777201 0.258250
H32   H     H_    0.050249 0.121868 0.657073 0.252991

loop_
_geom_bond_atom_site_label_1
_geom_bond_atom_site_label_2
_ccdc_geom_bond_type
C16   N2    A    
C28   H32   S    
C4    O8    A    
O9    C23   S    
C19   H7    S    
Cu2   N2    S    
C20   H10   S    
C17   N1    A    
Cu1   Cu2   S    
C18   H6    S    
C3    O7    A    
C2    O2    A    
C26   C27   S    
C17   H5    S    
O10   C26   S    
C22   H18   S    
C1    O1    A    
C9    C19   S    
C24   H21   S    
C28   H30   S    
C19   H8    S    
C16   C18   A    
C13   C14   A    
C23   C24   S    
C10   C20   S    
C13   C21   S    
C20   H11   S    
C15   N2    A    
C1    C12   S    
C27   C28   S    
C7    H3    S    
C2    C11   S    
C15   O9    S    
C2    O4    A    
Cu1   N1    S    
C8    H4    S    
C12   C14   A    
C3    C8    S    
C19   H9    S    
C23   H20   S    
C10   C11   A    
C21   H14   S    
C1    O3    A    
Cu2   O4    S    
C5    C6    S    
Cu2   O3    S    
C20   H12   S    
C4    O6    A    
Cu1   O1    S    
C24   H22   S    
C14   C22   S    
C25   H25   S    
C9    C12   A    
C3    O5    A    
C22   H16   S    
Cu2   O8    S    
C11   C13   A    
C5    H1    S    
C5    C7    D    
C26   H26   S    
C9    C10   A    
C21   H15   S    
C28   H31   S    
C15   C17   A    
C27   H29   S    
C23   H19   S    
C25   H23   S    
C24   C25   S    
C6    C8    D    
C16   O10   S    
C4    C7    S    
C21   H13   S    
Cu1   O2    S    
Cu2   O7    S    
C25   H24   S    
C18   N1    A    
C26   H27   S    
Cu1   O5    S    
C27   H28   S    
C22   H17   S    
Cu1   O6    S    
C6    H2    S    
