data_mof_unit_1999.cif
_audit_creation_date              2012-12-11T15:37:39-0500
_audit_creation_method            fapswitch 2.2
_symmetry_space_group_name_H-M    P1
_symmetry_Int_Tables_number       1
_space_group_crystal_system       triclinic
_cell_length_a                    17.380793
_cell_length_b                    24.23884
_cell_length_c                    14.817029
_cell_angle_alpha                 89.998846
_cell_angle_beta                  125.875095
_cell_angle_gamma                 90.001987
_cell_volume                      5058.08919299

loop_
_atom_site_label
_atom_site_type_symbol
_atom_type_description
_atom_site_fract_x
_atom_site_fract_y
_atom_site_fract_z
_atom_type_partial_charge
C1    C     C_R   0.808209 0.623598 0.907655 -0.135114
C2    C     C_R   0.152244 0.347979 0.091562 -0.134802
C3    C     C_R   0.152237 0.652023 0.091558 -0.134805
C4    C     C_R   0.808206 0.376396 0.907670 -0.135125
C5    C     C_R   0.308210 0.123617 0.907679 -0.135127
C6    C     C_R   0.652265 0.847975 0.091549 -0.134826
C7    C     C_R   0.652224 0.152031 0.091549 -0.134803
C8    C     C_R   0.308207 0.876394 0.907683 -0.135122
C9    C     C_3   0.412050 0.500000 0.433695 0.158804
C10   C     C_3   0.595602 0.499999 0.555224 0.144085
C11   C     C_3   0.912039 0.999999 0.433708 0.158784
C12   C     C_3   0.095590 1.000000 0.555238 0.144088
C13   C     C_R   0.657845 0.314790 0.899667 -0.153793
C14   C     C_R   0.211827 0.767819 0.100320 -0.155491
C15   C     C_R   0.211859 0.232188 0.100338 -0.155478
C16   C     C_R   0.657861 0.685231 0.899574 -0.153776
C17   C     C_R   0.157809 0.814831 0.899750 -0.153844
C18   C     C_R   0.711669 0.267877 0.100244 -0.155458
C19   C     C_R   0.711561 0.732078 0.100195 -0.155450
C20   C     C_R   0.157806 0.185162 0.899759 -0.153832
C21   C     C_R   0.111567 0.768061 0.898672 -0.160077
C22   C     C_R   0.758655 0.314194 0.101183 -0.158720
C23   C     C_R   0.758536 0.685755 0.101112 -0.158721
C24   C     C_R   0.111589 0.231943 0.898688 -0.160088
C25   C     C_R   0.611636 0.268007 0.898603 -0.160081
C26   C     C_R   0.258792 0.814140 0.101265 -0.158724
C27   C     C_R   0.258815 0.185865 0.101282 -0.158712
C28   C     C_R   0.611706 0.732032 0.898531 -0.160044
C29   C     C_R   0.144791 0.741265 0.998986 0.128028
C30   C     C_R   0.738900 0.333934 0.000937 0.128948
C31   C     C_R   0.738853 0.666053 0.000863 0.128940
C32   C     C_R   0.144815 0.258739 0.999000 0.128025
C33   C     C_R   0.644749 0.241270 0.998932 0.128010
C34   C     C_R   0.238940 0.833930 0.001008 0.128986
C35   C     C_R   0.238945 0.166068 0.001016 0.128976
C36   C     C_R   0.644755 0.758734 0.998893 0.128010
C37   C     C_R   0.110271 0.450087 0.632312 -0.160957
C38   C     C_R   0.114205 0.549937 0.541698 -0.152986
C39   C     C_R   0.114207 0.450066 0.541700 -0.152978
C40   C     C_R   0.110270 0.549916 0.632311 -0.160957
C41   C     C_R   0.610263 0.950085 0.632305 -0.160973
C42   C     C_R   0.614219 0.049936 0.541706 -0.152988
C43   C     C_R   0.614204 0.950064 0.541697 -0.152964
C44   C     C_R   0.610275 0.049915 0.632313 -0.160962
C45   C     C_R   0.105398 0.500002 0.488609 0.132976
C46   C     C_R   0.096760 0.500002 0.669053 0.133985
C47   C     C_R   0.605407 0.000000 0.488614 0.132991
C48   C     C_R   0.596756 1.000000 0.669049 0.133996
C49   C     C_R   0.903642 0.376566 0.094257 -0.117435
C50   C     C_R   0.055778 0.651421 0.906480 -0.145386
C51   C     C_R   0.055779 0.348578 0.906482 -0.145387
C52   C     C_R   0.903624 0.623432 0.094242 -0.117433
C53   C     C_R   0.403654 0.876570 0.094269 -0.117443
C54   C     C_R   0.555757 0.151422 0.906471 -0.145400
C55   C     C_R   0.555773 0.848584 0.906467 -0.145408
C56   C     C_R   0.403656 0.123432 0.094269 -0.117440
C57   C     C_R   0.052386 0.545966 0.306748 -0.153616
C58   C     C_R   0.019076 0.453604 0.750626 -0.118700
C59   C     C_R   0.019076 0.546397 0.750625 -0.118704
C60   C     C_R   0.052391 0.454035 0.306751 -0.153602
C61   C     C_R   0.552398 0.045965 0.306755 -0.153598
C62   C     C_R   0.519071 0.953604 0.750621 -0.118696
C63   C     C_R   0.519075 0.046396 0.750624 -0.118700
C64   C     C_R   0.552399 0.954035 0.306756 -0.153576
C65   C     C_R   0.746992 0.454793 0.692456 -0.118334
C66   C     C_R   0.258054 0.545501 0.303514 -0.090796
C67   C     C_R   0.258053 0.454499 0.303516 -0.090802
C68   C     C_R   0.746995 0.545204 0.692452 -0.118340
C69   C     C_R   0.246983 0.954794 0.692460 -0.118333
C70   C     C_R   0.758049 0.045501 0.303517 -0.090808
C71   C     C_R   0.758046 0.954499 0.303520 -0.090828
C72   C     C_R   0.246984 0.045206 0.692461 -0.118332
C73   C     C_R   0.812188 0.636102 0.001455 0.051462
C74   C     C_R   0.120195 0.316514 0.998426 0.058658
C75   C     C_R   0.120186 0.683488 0.998420 0.058667
C76   C     C_R   0.812206 0.363890 0.001485 0.051463
C77   C     C_R   0.312222 0.136114 0.001510 0.051472
C78   C     C_R   0.620194 0.816515 0.998396 0.058674
C79   C     C_R   0.620156 0.183494 0.998403 0.058660
C80   C     C_R   0.312218 0.863891 0.001511 0.051464
C81   C     C_R   0.070389 0.500001 0.371690 0.065582
C82   C     C_R   0.050463 0.500001 0.725556 0.047113
C83   C     C_R   0.570402 0.000000 0.371697 0.065588
C84   C     C_R   0.550459 0.000000 0.725551 0.047113
C85   C     C_R   0.698247 0.499998 0.628330 0.113114
C86   C     C_R   0.309543 0.500000 0.363844 0.062000
C87   C     C_R   0.198233 0.000000 0.628340 0.113090
C88   C     C_R   0.809533 0.000000 0.363851 0.062062
C89   C     C_3   0.535378 0.454742 0.558448 -0.090576
C90   C     C_3   0.472024 0.545238 0.430140 -0.082346
C91   C     C_3   0.472020 0.454762 0.430139 -0.082354
C92   C     C_3   0.535382 0.545256 0.558450 -0.090588
C93   C     C_3   0.035368 0.954748 0.558478 -0.090609
C94   C     C_3   0.972012 0.045232 0.430139 -0.082356
C95   C     C_3   0.972012 0.954756 0.430169 -0.082355
C96   C     C_3   0.035368 0.045262 0.558448 -0.090575
C97   C     C_3   0.473953 0.500000 0.560335 -0.139022
C98   C     C_3   0.533739 0.499999 0.428466 -0.146281
C99   C     C_3   0.973940 0.000010 0.560348 -0.139023
C100  C     C_3   0.033729 0.999989 0.428481 -0.146248
H1    H     H_    0.748413 0.627782 0.821976 0.081031
H2    H     H_    0.194096 0.333954 0.176338 0.084789
H3    H     H_    0.194082 0.666051 0.176332 0.084788
H4    H     H_    0.748391 0.372206 0.821994 0.081033
H5    H     H_    0.248389 0.127827 0.822003 0.081054
H6    H     H_    0.694165 0.833946 0.176326 0.084814
H7    H     H_    0.694090 0.166062 0.176323 0.084805
H8    H     H_    0.248384 0.872194 0.822010 0.081056
H9    H     H_    0.931954 0.371152 0.180717 0.096072
H10   H     H_    0.007467 0.665534 0.821559 0.090044
H11   H     H_    0.007469 0.334461 0.821563 0.090046
H12   H     H_    0.931916 0.628851 0.180696 0.096087
H13   H     H_    0.431978 0.871162 0.180734 0.096055
H14   H     H_    0.507430 0.165531 0.821551 0.090049
H15   H     H_    0.507430 0.834471 0.821551 0.090052
H16   H     H_    0.431980 0.128837 0.180733 0.096054
H17   H     H_    0.071218 0.588114 0.334994 0.086950
H18   H     H_    0.029528 0.410918 0.740145 0.096640
H19   H     H_    0.029525 0.589083 0.740142 0.096640
H20   H     H_    0.071228 0.411889 0.335001 0.086941
H21   H     H_    0.571239 0.088111 0.335005 0.086932
H22   H     H_    0.529519 0.910918 0.740135 0.096628
H23   H     H_    0.529528 0.089083 0.740143 0.096637
H24   H     H_    0.571244 0.911889 0.335009 0.086938
H25   H     H_    0.446887 0.500000 0.612089 0.149190
H26   H     H_    0.560832 0.499999 0.376750 0.154286
H27   H     H_    0.946873 0.000018 0.612100 0.149191
H28   H     H_    0.060823 0.999981 0.376766 0.154287
H29   H     H_    0.562197 0.417369 0.611917 0.139310
H30   H     H_    0.444591 0.582469 0.376297 0.150751
H31   H     H_    0.444583 0.417531 0.376294 0.150749
H32   H     H_    0.562205 0.582629 0.611920 0.139304
H33   H     H_    0.062190 0.917380 0.611962 0.139290
H34   H     H_    0.944578 0.082459 0.376282 0.150755
H35   H     H_    0.944577 0.917520 0.376339 0.150735
H36   H     H_    0.062189 0.082639 0.611905 0.139311
H37   H     H_    0.635735 0.331691 0.820381 0.116057
H38   H     H_    0.235095 0.750646 0.179769 0.118893
H39   H     H_    0.235147 0.249368 0.179793 0.118890
H40   H     H_    0.635753 0.668337 0.820263 0.116029
H41   H     H_    0.135619 0.831779 0.820470 0.116085
H42   H     H_    0.734838 0.250743 0.179695 0.118882
H43   H     H_    0.734627 0.749169 0.179662 0.118854
H44   H     H_    0.135604 0.168203 0.820476 0.116077
H45   H     H_    0.056132 0.750623 0.818959 0.117505
H46   H     H_    0.816552 0.330454 0.180811 0.115078
H47   H     H_    0.816358 0.669448 0.180736 0.115097
H48   H     H_    0.056167 0.249385 0.818982 0.117509
H49   H     H_    0.556335 0.250514 0.818902 0.117492
H50   H     H_    0.316752 0.830359 0.180897 0.115057
H51   H     H_    0.316786 0.169651 0.180915 0.115051
H52   H     H_    0.556478 0.749553 0.818812 0.117468
H53   H     H_    0.107536 0.410731 0.664572 0.113679
H54   H     H_    0.114099 0.589331 0.507533 0.116815
H55   H     H_    0.114105 0.410671 0.507539 0.116812
H56   H     H_    0.107536 0.589272 0.664572 0.113678
H57   H     H_    0.607523 0.910729 0.664561 0.113669
H58   H     H_    0.614127 0.089332 0.507550 0.116809
H59   H     H_    0.614096 0.910670 0.507531 0.116813
H60   H     H_    0.607543 0.089272 0.664575 0.113671
N1    N     N_R   0.892620 0.603790 0.941800 -0.045613
N2    N     N_R   0.107380 0.396210 0.058200 -0.043798
N3    N     N_R   0.107380 0.603790 0.058200 -0.043800
N4    N     N_R   0.892620 0.396210 0.941800 -0.045611
N5    N     N_R   0.392620 0.103790 0.941800 -0.045608
N6    N     N_R   0.607380 0.896210 0.058200 -0.043798
N7    N     N_R   0.607380 0.103790 0.058200 -0.043801
N8    N     N_R   0.392620 0.896210 0.941800 -0.045613
N9    N     N_R   0.952210 0.397600 0.057910 -0.040941
N10   N     N_R   0.047790 0.602400 0.942090 -0.038482
N11   N     N_R   0.047790 0.397600 0.942090 -0.038481
N12   N     N_R   0.952210 0.602400 0.057910 -0.040940
N13   N     N_R   0.452210 0.897600 0.057910 -0.040944
N14   N     N_R   0.547790 0.102400 0.942090 -0.038479
N15   N     N_R   0.547790 0.897600 0.942090 -0.038477
N16   N     N_R   0.452210 0.102400 0.057910 -0.040942
N17   N     N_R   0.026300 0.529110 0.206760 -0.039531
N18   N     N_R   0.973700 0.470890 0.793240 -0.045952
N19   N     N_R   0.973700 0.529110 0.793240 -0.045954
N20   N     N_R   0.026300 0.470890 0.206760 -0.039533
N21   N     N_R   0.526300 0.029110 0.206760 -0.039533
N22   N     N_R   0.473700 0.970890 0.793240 -0.045950
N23   N     N_R   0.473700 0.029110 0.793240 -0.045951
N24   N     N_R   0.526300 0.970890 0.206760 -0.039534
N25   N     N_R   0.818530 0.472270 0.792960 -0.073800
N26   N     N_R   0.181470 0.527730 0.207040 -0.075084
N27   N     N_R   0.181470 0.472270 0.207040 -0.075084
N28   N     N_R   0.818530 0.527730 0.792960 -0.073802
N29   N     N_R   0.318530 0.972270 0.792960 -0.073803
N30   N     N_R   0.681470 0.027730 0.207040 -0.075085
N31   N     N_R   0.681470 0.972270 0.207040 -0.075082
N32   N     N_R   0.318530 0.027730 0.792960 -0.073800
Ni1   Ni    Ni4+2 0.934150 0.565840 0.869060 0.209631
Ni2   Ni    Ni4+2 0.065850 0.434160 0.130940 0.206251
Ni3   Ni    Ni4+2 0.065850 0.565840 0.130940 0.206253
Ni4   Ni    Ni4+2 0.934150 0.434160 0.869060 0.209638
Ni5   Ni    Ni4+2 0.434150 0.065840 0.869060 0.209641
Ni6   Ni    Ni4+2 0.565850 0.934160 0.130940 0.206249
Ni7   Ni    Ni4+2 0.565850 0.065840 0.130940 0.206247
Ni8   Ni    Ni4+2 0.434150 0.934160 0.869060 0.209639
C101  C     C_2   0.745687 0.399992 0.648165 0.477532
H61   H     H_    0.799059 0.369579 0.702476 0.011334
O1    O     O_2   0.686473 0.388620 0.550247 -0.585154
C102  C     C_2   0.261456 0.598770 0.353757 0.478257
H62   H     H_    0.199413 0.625123 0.312052 0.001183
O2    O     O_2   0.331614 0.612645 0.444661 -0.595307
C103  C     C_2   0.261452 0.401232 0.353761 0.478245
H63   H     H_    0.199407 0.374878 0.312054 0.001183
O3    O     O_2   0.331608 0.387358 0.444669 -0.595304
C104  C     C_2   0.745694 0.600003 0.648153 0.477529
H64   H     H_    0.799066 0.630416 0.702460 0.011329
O4    O     O_2   0.686481 0.611373 0.550235 -0.585159
C105  C     C_2   0.245664 0.899991 0.648165 0.477548
H65   H     H_    0.299035 0.869577 0.702473 0.011338
O5    O     O_2   0.186439 0.888618 0.550250 -0.585146
C106  C     C_2   0.761451 0.098773 0.353751 0.478267
H66   H     H_    0.699412 0.125128 0.312039 0.001172
O6    O     O_2   0.831606 0.112648 0.444657 -0.595318
C107  C     C_2   0.761439 0.901231 0.353758 0.478241
H67   H     H_    0.699411 0.874863 0.312011 0.001175
O7    O     O_2   0.831564 0.887373 0.444707 -0.595290
C108  C     C_2   0.245673 0.100008 0.648164 0.477538
H68   H     H_    0.299044 0.130423 0.702474 0.011332
O8    O     O_2   0.186455 0.111377 0.550243 -0.585137

loop_
_geom_bond_atom_site_label_1
_geom_bond_atom_site_label_2
_ccdc_geom_bond_type
C16   C28   A    
C49   N9    A    
C6    N6    A    
C10   C85   S    
C21   C29   A    
N30   N31   A    
C41   C43   A    
C101  H61   S    
C20   H44   S    
C94   C100  S    
C59   C82   A    
C58   H18   S    
C68   C104  S    
C9    C91   S    
N6    Ni6   S    
N18   N19   A    
C53   N13   A    
C15   C32   A    
C96   H36   S    
C5    H5    S    
C105  H65   S    
C16   C31   A    
C40   C46   A    
N6    N15   A    
N23   Ni5   S    
C56   N16   A    
C25   H49   S    
C92   H32   S    
C106  O6    D    
C43   H59   S    
C19   C36   A    
C58   C82   A    
C32   C74   S    
C31   C73   S    
C91   H31   S    
C52   H12   S    
C11   C95   S    
C96   C99   S    
C14   H38   S    
C50   H10   S    
C89   H29   S    
C11   C99   S    
C10   C98   S    
N3    N10   A    
N22   N23   A    
C38   C45   A    
C62   C84   A    
C8    N8    A    
C34   C80   S    
C46   C82   S    
N1    N12   A    
C15   C27   A    
C26   C34   A    
N2    N11   A    
C22   H46   S    
C10   C89   S    
C53   H13   S    
N14   Ni5   S    
C92   C97   S    
C9    C97   S    
C4    N4    A    
C60   H20   S    
C8    C80   A    
C47   C83   S    
C89   C91   S    
C3    C75   A    
C93   C99   S    
C69   C87   A    
C3    N3    A    
C39   C45   A    
C64   N24   A    
C66   C102  S    
C10   C92   S    
C93   C95   S    
C38   C40   A    
C100  H28   S    
N20   Ni2   S    
C68   C85   A    
C101  O1    D    
C2    N2    A    
N4    N9    A    
C16   H40   S    
C42   C44   A    
C8    H8    S    
N31   Ni6   S    
C18   C33   A    
C67   N27   A    
N30   Ni7   S    
C15   H39   S    
C105  O5    D    
C56   H16   S    
N8    N13   A    
N15   Ni8   S    
C65   N25   A    
C63   N23   A    
C103  H63   S    
C20   C24   A    
N26   Ni3   S    
C26   H50   S    
C53   C80   A    
N22   Ni8   S    
C106  H66   S    
C50   N10   A    
C52   C73   A    
C24   H48   S    
C69   N29   A    
C107  H67   S    
C55   C78   A    
C12   C96   S    
C95   C100  S    
C33   C79   S    
N25   N28   A    
C99   H27   S    
C27   C35   A    
C108  O8    D    
C64   H24   S    
N18   Ni4   S    
C35   C77   S    
C17   C21   A    
C56   C77   A    
C48   C84   S    
C51   C74   A    
C39   H55   S    
N5    N16   A    
C13   H37   S    
N29   N32   A    
C19   C23   A    
C24   C32   A    
C64   C83   A    
C37   H53   S    
C9    C86   S    
C107  O7    D    
C30   C76   S    
C60   C81   A    
C13   C30   A    
C90   C92   S    
C2    H2    S    
N3    Ni3   S    
C11   C88   S    
N17   N20   A    
C72   C108  S    
N2    Ni2   S    
C25   C33   A    
C95   H35   S    
C6    H6    S    
C49   C76   A    
N1    Ni1   S    
C58   N18   A    
N32   Ni5   S    
C14   C26   A    
C94   C96   S    
C55   N15   A    
C51   H11   S    
N7    N14   A    
C41   H57   S    
N29   Ni8   S    
C97   H25   S    
C102  O2    D    
N28   Ni1   S    
C28   H52   S    
C5    N5    A    
C66   N26   A    
N27   Ni2   S    
C61   C83   A    
C44   H60   S    
C4    C76   A    
C57   C81   A    
C12   C93   S    
C21   H45   S    
C17   C34   A    
C38   H54   S    
N16   Ni7   S    
C5    C77   A    
N21   Ni7   S    
C1    H1    S    
C62   H22   S    
C72   C87   A    
C67   C103  S    
C70   N30   A    
C7    C79   A    
C54   C79   A    
N19   Ni1   S    
N21   N24   A    
C3    H3    S    
C68   N28   A    
C7    N7    A    
C42   H58   S    
C67   C86   A    
C59   H19   S    
C22   C30   A    
C12   C87   S    
C27   H51   S    
N13   Ni6   S    
C18   C22   A    
C61   N21   A    
C62   N22   A    
C20   C35   A    
C45   C81   S    
C70   C88   A    
C61   H21   S    
C11   C94   S    
N11   Ni4   S    
C13   C25   A    
C2    C74   A    
C9    C90   S    
C66   C86   A    
N10   Ni1   S    
C63   H23   S    
N4    Ni4   S    
C65   C85   A    
N9    Ni2   S    
C29   C75   S    
C18   H42   S    
N25   Ni4   S    
C60   N20   A    
C71   C107  S    
N24   Ni6   S    
C69   C105  S    
C63   C84   A    
C1    C73   A    
C7    H7    S    
C104  O4    D    
C51   N11   A    
N26   N27   A    
C49   H9    S    
C70   C106  S    
C37   C39   A    
C23   H47   S    
C50   C75   A    
C57   N17   A    
C54   N14   A    
C55   H15   S    
C54   H14   S    
C59   N19   A    
C52   N12   A    
C94   H34   S    
C41   C48   A    
C72   N32   A    
C4    H4    S    
N17   Ni3   S    
C42   C47   A    
C91   C98   S    
C108  H68   S    
N8    Ni8   S    
C17   H41   S    
C19   H43   S    
C57   H17   S    
C12   C100  S    
C6    C78   A    
C1    N1    A    
C71   C88   A    
C90   H30   S    
C98   H26   S    
C65   C101  S    
C102  H62   S    
C28   C36   A    
C104  H64   S    
C89   C97   S    
C103  O3    D    
N7    Ni7   S    
C40   H56   S    
N12   Ni3   S    
C36   C78   S    
C14   C29   A    
C71   N31   A    
C37   C46   A    
C43   C47   A    
C90   C98   S    
N5    Ni5   S    
C44   C48   A    
C93   H33   S    
C23   C31   A    
