data_mof_unit_583.cif
_audit_creation_date              2012-12-11T16:30:34-0500
_audit_creation_method            fapswitch 2.2
_symmetry_space_group_name_H-M    P1
_symmetry_Int_Tables_number       1
_space_group_crystal_system       triclinic
_cell_length_a                    6.937677
_cell_length_b                    14.484918
_cell_length_c                    16.084476
_cell_angle_alpha                 89.999935
_cell_angle_beta                  89.903908
_cell_angle_gamma                 90.0
_cell_volume                      1616.35378146

loop_
_atom_site_label
_atom_site_type_symbol
_atom_type_description
_atom_site_fract_x
_atom_site_fract_y
_atom_site_fract_z
_atom_type_partial_charge
O1    O     O_R   0.611670 0.415650 0.164070 -0.551929
O2    O     O_R   0.388330 0.915650 0.835930 -0.551930
O3    O     O_R   0.940950 0.405490 0.337780 -0.563035
O4    O     O_R   0.059050 0.905490 0.662220 -0.563027
O5    O     O_R   0.111350 0.584350 0.338470 -0.525724
O6    O     O_R   0.888650 0.084350 0.661530 -0.525709
C1    C     C_R   0.772330 0.382820 0.366724 0.657452
C2    C     C_R   0.227669 0.882820 0.633275 0.657465
O7    O     O_R   0.941380 0.404630 0.164680 -0.514782
O8    O     O_R   0.058620 0.904630 0.835320 -0.514786
O9    O     O_R   0.111780 0.583470 0.164130 -0.470128
O10   O     O_R   0.888220 0.083470 0.835870 -0.470136
C3    C     C_R   0.771571 0.381298 0.137106 0.807561
C4    C     C_R   0.228430 0.881298 0.862894 0.807561
O11   O     O_R   0.611240 0.416530 0.338400 -0.554861
O12   O     O_R   0.388760 0.916530 0.661600 -0.554879
O13   O     O_3   0.778020 0.558680 0.251290 -0.345326
O14   O     O_3   0.221980 0.058680 0.748710 -0.345321
V1    V     V_3+5 0.052840 0.489110 0.251260 1.560959
V2    V     V_3+5 0.947160 0.989110 0.748740 1.560959
O15   O     O_R   0.441500 0.594510 0.164760 -0.541393
O16   O     O_R   0.558500 0.094510 0.835240 -0.541385
C5    C     C_R   0.272128 0.616731 0.136082 0.933921
C6    C     C_R   0.727871 0.116730 0.863919 0.933943
O17   O     O_R   0.441080 0.595370 0.337860 -0.555738
O18   O     O_R   0.558920 0.095370 0.662140 -0.555740
C7    C     C_R   0.272545 0.615781 0.368662 0.732938
C8    C     C_R   0.727456 0.115780 0.631337 0.732886
V3    V     V_3+5 0.552850 0.510890 0.251270 1.493889
V4    V     V_3+5 0.447150 0.010890 0.748730 1.493879
O19   O     O_3   0.277800 0.441320 0.251250 -0.391102
O20   O     O_3   0.722200 0.941320 0.748750 -0.391108
C9    C     C_3   0.124110 0.651078 0.510494 -0.286049
C10   C     C_3   0.875975 0.151099 0.489524 -0.286059
H1    H     H_    0.978243 0.639518 0.483957 0.114542
H2    H     H_    0.021837 0.139575 0.516080 0.114558
H3    H     H_    0.173285 0.582873 0.534200 0.193724
H4    H     H_    0.826883 0.082880 0.465818 0.193710
C11   C     C_3   0.109432 0.723217 0.582620 0.026506
C12   C     C_3   0.890631 0.223233 0.417393 0.026495
H5    H     H_    0.956089 0.745811 0.586203 0.113093
H6    H     H_    0.043960 0.245850 0.413819 0.113103
H7    H     H_    0.038783 0.767573 0.378746 0.215552
H8    H     H_    0.961122 0.267609 0.621278 0.215607
H9    H     H_    0.000226 0.863757 0.488398 0.125788
H10   H     H_    0.999691 0.363792 0.511627 0.125800
C13   C     C_3   0.181898 0.778777 0.408181 -0.324185
C14   C     C_3   0.818019 0.278789 0.591825 -0.324163
C15   C     C_3   0.464583 0.703580 0.480922 0.053511
C16   C     C_3   0.535441 0.203541 0.519048 0.053479
C17   C     C_3   0.262208 0.685282 0.440645 -0.015122
C18   C     C_3   0.737800 0.185280 0.559353 -0.015139
H11   H     H_    0.566392 0.728130 0.431935 0.115300
H12   H     H_    0.433568 0.228063 0.568021 0.115310
C19   C     C_3   0.237343 0.810818 0.563406 0.033365
C20   C     C_3   0.762655 0.310817 0.436593 0.033363
C21   C     C_3   0.157456 0.850648 0.479891 0.000299
C22   C     C_3   0.842463 0.350661 0.520116 0.000289
C23   C     C_3   0.449682 0.779940 0.548445 -0.299372
C24   C     C_3   0.550326 0.279909 0.451532 -0.299303
H13   H     H_    0.514160 0.756806 0.608042 0.129672
H14   H     H_    0.485890 0.256768 0.391929 0.129688
H15   H     H_    0.539468 0.839782 0.529145 0.123960
H16   H     H_    0.460491 0.339735 0.470826 0.123951
H17   H     H_    0.280105 0.805689 0.359116 0.206886
H18   H     H_    0.719760 0.305687 0.640878 0.206840
C25   C     C_R   0.124327 0.933517 0.032659 0.367618
C26   C     C_R   0.875677 0.433516 0.967342 0.367616
C27   C     C_R   0.067052 0.958833 0.112378 0.447390
C28   C     C_R   0.932949 0.458832 0.887622 0.447391
C29   C     C_R   0.065192 0.894463 0.175801 0.449514
C30   C     C_R   0.934795 0.394463 0.824198 0.449515
C31   C     C_R   0.125263 0.804265 0.161095 0.388117
C32   C     C_R   0.874718 0.304266 0.838904 0.388116
C33   C     C_R   0.188198 0.775382 0.080805 -0.201478
C34   C     C_R   0.811795 0.275382 0.919195 -0.201476
C35   C     C_R   0.182259 0.841123 0.014504 -0.211663
C36   C     C_R   0.817740 0.341122 0.985497 -0.211661
C37   C     C_R   0.258886 0.683999 0.066009 -0.059525
C38   C     C_R   0.741112 0.183998 0.933992 -0.059533
C39   C     C_R   0.322432 0.658367 0.984595 0.112159
C40   C     C_R   0.677578 0.158365 0.015407 0.112160
C41   C     C_R   0.326247 0.726308 0.920285 0.015262
C42   C     C_R   0.673769 0.226305 0.079718 0.015268
C43   C     C_R   0.242950 0.814859 0.933396 -0.065766
C44   C     C_R   0.757054 0.314858 0.066604 -0.065772
C45   C     C_R   0.381829 0.566461 0.963926 0.191235
C46   C     C_R   0.618185 0.066458 0.036076 0.191229
C47   C     C_R   0.468350 0.547923 0.887168 -0.034607
C48   C     C_R   0.531681 0.047917 0.112836 -0.034608
C49   C     C_R   0.494473 0.616912 0.828681 0.292435
C50   C     C_R   0.505574 0.116902 0.171328 0.292426
C51   C     C_R   0.416375 0.704355 0.843530 -0.206867
C52   C     C_R   0.583664 0.204347 0.156478 -0.206840
H19   H     H_    0.517319 0.478587 0.873246 0.083799
H20   H     H_    0.482714 0.978580 0.126759 0.083809
H21   H     H_    0.430540 0.754978 0.794639 0.091181
H22   H     H_    0.569512 0.254968 0.205370 0.091159
N1    N     N_3   0.246491 0.939146 0.458232 -0.692042
H23   H     H_    0.166847 0.969020 0.410054 0.297245
H24   H     H_    0.385855 0.928795 0.435271 0.249050
N2    N     N_3   0.753361 0.439147 0.541763 -0.691998
H25   H     H_    0.832949 0.469031 0.589953 0.297226
H26   H     H_    0.613983 0.428780 0.564701 0.249049
N3    N     N_3   0.602495 0.596835 0.754649 -0.589514
H27   H     H_    0.621916 0.656486 0.719092 0.216241
H28   H     H_    0.522804 0.550072 0.719072 0.239045
N4    N     N_3   0.397577 0.096821 0.245364 -0.589537
H29   H     H_    0.378156 0.156470 0.280922 0.216265
H30   H     H_    0.477288 0.050061 0.280937 0.239060
F1    F     F_    0.129137 0.002039 0.975171 -0.649216
F2    F     F_    0.870876 0.502037 0.024830 -0.649213
F3    F     F_    0.015668 0.047440 0.128489 -0.606360
F4    F     F_    0.984342 0.547438 0.871512 -0.606351
F5    F     F_    0.007543 0.920052 0.253094 -0.633521
F6    F     F_    0.992434 0.420053 0.746904 -0.633513
F7    F     F_    0.120937 0.746592 0.227021 -0.699879
F8    F     F_    0.879025 0.246595 0.772977 -0.699887
N5    N     N_3   0.350480 0.489900 0.018514 -0.647294
H31   H     H_    0.266228 0.441147 0.987550 0.224823
H32   H     H_    0.483740 0.458966 0.028662 0.243912
N6    N     N_3   0.649520 0.989899 0.981485 -0.647303
H33   H     H_    0.516258 0.958966 0.971340 0.243918
H34   H     H_    0.733777 0.941143 0.012444 0.224817
N7    N     N_3   0.153993 0.679258 0.662332 -0.597043
H35   H     H_    0.297564 0.658452 0.663072 0.251622
H36   H     H_    0.131931 0.726311 0.710633 0.223222
N8    N     N_3   0.846125 0.179261 0.337682 -0.597050
H37   H     H_    0.702573 0.158424 0.336935 0.251675
H38   H     H_    0.868155 0.226315 0.289378 0.223226
N9    N     N_3   0.542700 0.619077 0.518245 -0.680385
H39   H     H_    0.670898 0.635092 0.549093 0.233372
H40   H     H_    0.583149 0.573952 0.470894 0.257701
N10   N     N_3   0.457434 0.119028 0.481703 -0.680439
H41   H     H_    0.329146 0.135011 0.450910 0.233436
H42   H     H_    0.417186 0.073843 0.529039 0.257671

loop_
_geom_bond_atom_site_label_1
_geom_bond_atom_site_label_2
_ccdc_geom_bond_type
C11   N7    S    
C19   C23   S    
O13   V3    S    
C49   N3    S    
C25   C35   A    
O4    C2    A    
V1    O19   S    
N8    H37   S    
C11   H5    S    
C28   F4    S    
C15   N9    S    
H9    C21   S    
C9    C11   S    
C32   C34   A    
C10   C12   S    
C42   C44   A    
O3    C1    A    
C40   C46   A    
C49   C51   A    
C52   H22   S    
O12   V4    S    
C41   C51   A    
N4    H29   S    
C24   H14   S    
O7    V1    S    
C26   F2    S    
C27   C29   A    
O7    C3    A    
O13   V1    S    
O5    C7    A    
C6    C38   S    
O6    C8    A    
O8    V2    S    
C15   C17   S    
C3    C44   S    
C16   C18   S    
O3    V1    S    
C22   N2    S    
C47   C49   A    
C50   N4    S    
C10   H2    S    
C36   C44   A    
C12   H6    S    
C35   C43   A    
C2    O12   A    
H10   C22   S    
C26   C36   A    
C31   C33   A    
C1    C20   S    
C2    C19   S    
O1    V3    S    
O18   C8    A    
C39   C41   A    
C7    C17   S    
O11   V3    S    
N5    H32   S    
O15   C5    A    
O17   V3    S    
C32   F8    S    
C11   C19   S    
C23   H13   S    
C31   F7    S    
C30   C32   A    
C16   N10   S    
C37   C39   A    
N10   H42   S    
C1    O11   A    
C12   C20   S    
O15   V3    S    
C9    H3    S    
C20   C24   S    
C25   C27   A    
C12   N8    S    
C47   H19   S    
C14   C22   S    
C45   N5    S    
C13   C21   S    
N3    H28   S    
C48   C50   A    
N1    H23   S    
O9    V1    S    
O10   V2    S    
C50   C52   A    
C29   F5    S    
C42   C52   A    
N2    H26   S    
C33   C35   A    
C39   C45   A    
O14   V4    S    
C46   N6    S    
N1    H24   S    
C46   C48   A    
O18   V4    S    
C40   C42   A    
C19   C21   S    
O8    C4    A    
N7    H35   S    
O16   C6    A    
O1    C3    A    
N6    H34   S    
N9    H39   S    
C51   H21   S    
C29   C31   A    
V2    O20   S    
C25   F1    S    
O10   C6    A    
O16   V4    S    
C41   C43   A    
C10   H4    S    
C23   H15   S    
C34   C38   A    
C4    C43   S    
C34   C36   A    
N9    H40   S    
N8    H38   S    
C13   C17   S    
N5    H31   S    
N4    H30   S    
C48   H20   S    
N10   H41   S    
O5    V1    S    
C9    C17   S    
O6    V2    S    
N3    H27   S    
C30   F6    S    
C10   C18   S    
C15   C23   S    
C24   H16   S    
O2    V4    S    
C16   C24   S    
C45   C47   A    
C16   H12   S    
V4    O20   S    
C8    C18   S    
C33   C37   A    
C15   H11   S    
O9    C5    A    
C9    H1    S    
C38   C40   A    
C20   C22   S    
O14   V2    S    
N2    H25   S    
O2    C4    A    
O4    V2    S    
C14   C18   S    
V3    O19   S    
C27   F3    S    
N7    H36   S    
C26   C28   A    
C28   C30   A    
C14   H18   S    
C5    C37   S    
N6    H33   S    
H7    C13   S    
C13   H17   S    
H8    C14   S    
O17   C7    A    
C21   N1    S    
