data_mof_unit_4161.cif
_audit_creation_date              2012-12-11T14:44:35-0500
_audit_creation_method            fapswitch 2.2
_symmetry_space_group_name_H-M    P1
_symmetry_Int_Tables_number       1
_space_group_crystal_system       triclinic
_cell_length_a                    19.838851
_cell_length_b                    7.22363
_cell_length_c                    19.772408
_cell_angle_alpha                 88.834636
_cell_angle_beta                  98.40309
_cell_angle_gamma                 88.792131
_cell_volume                      2801.72617475

loop_
_atom_site_label
_atom_site_type_symbol
_atom_type_description
_atom_site_fract_x
_atom_site_fract_y
_atom_site_fract_z
_atom_type_partial_charge
O1    O     O_R   0.673210 0.377390 0.686390 -0.534600
O2    O     O_R   0.326790 0.622610 0.313610 -0.534601
O3    O     O_R   0.826790 0.877390 0.813610 -0.535792
O4    O     O_R   0.173210 0.122610 0.186390 -0.535795
O5    O     O_R   0.810750 0.706450 0.681250 -0.541259
O6    O     O_R   0.189250 0.293550 0.318750 -0.541258
O7    O     O_R   0.689250 0.206450 0.818750 -0.541532
O8    O     O_R   0.310750 0.793550 0.181250 -0.541537
C1    C     C_R   0.831103 0.538437 0.665290 0.699770
C2    C     C_R   0.168897 0.461563 0.334710 0.699787
C3    C     C_R   0.668664 0.038432 0.834413 0.701140
C4    C     C_R   0.331336 0.961568 0.165586 0.701123
O9    O     O_R   0.672750 0.707060 0.678240 -0.538324
O10   O     O_R   0.327250 0.292940 0.321760 -0.538325
O11   O     O_R   0.827250 0.207060 0.821760 -0.538084
O12   O     O_R   0.172750 0.792940 0.178240 -0.538071
O13   O     O_R   0.687800 0.877990 0.810580 -0.537959
O14   O     O_R   0.312200 0.122010 0.189420 -0.537961
O15   O     O_R   0.812200 0.377990 0.689420 -0.538118
O16   O     O_R   0.187800 0.622010 0.310580 -0.538113
C5    C     C_R   0.648314 0.541652 0.661017 0.693290
C6    C     C_R   0.351686 0.458348 0.338983 0.693287
C7    C     C_R   0.851779 0.034995 0.838325 0.698406
C8    C     C_R   0.148221 0.965005 0.161674 0.698388
O17   O     O_3   0.755100 0.544060 0.793420 -0.374113
O18   O     O_3   0.244900 0.455940 0.206580 -0.374114
O19   O     O_3   0.744900 0.044060 0.706580 -0.375478
O20   O     O_3   0.255100 0.955940 0.293420 -0.375478
V1    V     V_3+5 0.749050 0.818670 0.741950 1.402391
V2    V     V_3+5 0.250950 0.181330 0.258050 1.402399
V3    V     V_3+5 0.750950 0.318670 0.758050 1.397288
V4    V     V_3+5 0.249050 0.681330 0.241950 1.397305
C9    C     C_R   0.086863 0.990979 0.109085 -0.076883
C10   C     C_R   0.913141 0.009021 0.890908 -0.076990
C11   C     C_R   0.412746 0.455202 0.392911 -0.070632
C12   C     C_R   0.587255 0.544798 0.607088 -0.070633
C13   C     C_R   0.014174 0.819914 0.936447 -0.003127
C14   C     C_R   0.985831 0.180045 0.063538 -0.003116
C15   C     C_R   0.480556 0.698339 0.554404 -0.002968
C16   C     C_R   0.519447 0.301662 0.445593 -0.002988
C17   C     C_R   0.958900 0.861251 0.885240 -0.195522
C18   C     C_R   0.041108 0.138764 0.114743 -0.195397
C19   C     C_R   0.537666 0.686418 0.605732 -0.188355
C20   C     C_R   0.462337 0.313589 0.394264 -0.188370
C21   C     C_R   0.923277 0.117546 0.949097 -0.259365
C22   C     C_R   0.076722 0.882418 0.050905 -0.259461
C23   C     C_R   0.579497 0.413168 0.555587 -0.255029
C24   C     C_R   0.420502 0.586825 0.444415 -0.255031
C25   C     C_R   0.976891 0.075157 0.003195 0.092012
C26   C     C_R   0.023122 0.924819 0.996792 0.091933
C27   C     C_R   0.525188 0.428075 0.500254 0.080135
C28   C     C_R   0.474814 0.571923 0.499744 0.080144
H1    H     H_    0.111991 0.767824 0.047777 0.139570
H2    H     H_    0.887991 0.232090 0.952253 0.139596
H3    H     H_    0.382916 0.698346 0.441436 0.141033
H4    H     H_    0.617079 0.301637 0.558571 0.141033
C29   C     C_R   0.578491 0.870334 0.886368 -0.213853
C30   C     C_R   0.421509 0.129665 0.113632 -0.213864
C31   C     C_R   0.924525 0.675607 0.608494 -0.219871
C32   C     C_R   0.075475 0.324393 0.391507 -0.219861
C33   C     C_R   0.618925 0.027817 0.883756 -0.079199
C34   C     C_R   0.381075 0.972183 0.116244 -0.079194
C35   C     C_R   0.880265 0.528705 0.615423 -0.077841
C36   C     C_R   0.119735 0.471294 0.384577 -0.077842
C37   C     C_R   0.611244 0.174170 0.928225 -0.225791
C38   C     C_R   0.388756 0.825829 0.071775 -0.225810
C39   C     C_R   0.884063 0.370807 0.575341 -0.222852
C40   C     C_R   0.115937 0.629193 0.424659 -0.222845
C41   C     C_R   0.564389 0.163421 0.974976 0.089984
C42   C     C_R   0.435611 0.836578 0.025024 0.089986
C43   C     C_R   0.931124 0.359173 0.528859 0.089507
C44   C     C_R   0.068876 0.640827 0.471141 0.089508
C45   C     C_R   0.523823 0.005579 0.976754 0.055185
C46   C     C_R   0.476177 0.994420 0.023247 0.055187
C47   C     C_R   0.975923 0.505931 0.523000 0.054879
C48   C     C_R   0.024076 0.494069 0.477000 0.054878
C49   C     C_R   0.530815 0.858848 0.932125 0.087854
C50   C     C_R   0.469185 0.141151 0.067876 0.087857
C51   C     C_R   0.972720 0.664414 0.563127 0.090216
C52   C     C_R   0.027280 0.335586 0.436873 0.090214
C53   C     C_R   0.557405 0.307668 0.020125 -0.189670
C54   C     C_R   0.442595 0.692331 0.979875 -0.189662
C55   C     C_R   0.934276 0.203156 0.488145 -0.198173
C56   C     C_R   0.065724 0.796845 0.511855 -0.198173
C57   C     C_R   0.510185 0.296743 0.066096 -0.192358
C58   C     C_R   0.489816 0.703255 0.933904 -0.192343
C59   C     C_R   0.981870 0.191561 0.442542 -0.185539
C60   C     C_R   0.018129 0.808439 0.557458 -0.185543
H5    H     H_    0.583411 0.757133 0.852113 0.127706
H6    H     H_    0.416589 0.242866 0.147887 0.127705
H7    H     H_    0.922414 0.797266 0.639413 0.124979
H8    H     H_    0.077586 0.202734 0.360587 0.124983
H9    H     H_    0.642231 0.295708 0.927045 0.130248
H10   H     H_    0.357769 0.704292 0.072955 0.130226
H11   H     H_    0.849934 0.257386 0.579857 0.129852
H12   H     H_    0.150065 0.742614 0.420143 0.129855
H13   H     H_    0.588310 0.429492 0.019717 0.133831
H14   H     H_    0.411690 0.570507 0.980284 0.133817
H15   H     H_    0.900098 0.089477 0.491787 0.130330
H16   H     H_    0.099901 0.910524 0.508212 0.130334
H17   H     H_    0.048078 0.222254 0.160101 0.127104
H18   H     H_    0.951925 0.777790 0.839874 0.127086
H19   H     H_    0.457566 0.214249 0.353554 0.122791
H20   H     H_    0.542437 0.785763 0.646440 0.122797
C61   C     C_R   0.061484 0.666207 0.924742 0.080729
C62   C     C_R   0.130243 0.700369 0.920492 -0.145455
C63   C     C_R   0.174587 0.554807 0.909326 -0.112340
C64   C     C_R   0.150415 0.375031 0.901287 -0.097954
C65   C     C_R   0.081820 0.340708 0.904112 -0.108818
C66   C     C_R   0.037411 0.485661 0.915739 -0.126114
H21   H     H_    0.149422 0.839380 0.926141 0.105919
H22   H     H_    0.227640 0.581481 0.906709 0.109577
H23   H     H_    0.184734 0.262506 0.892495 0.103679
H24   H     H_    0.063102 0.201865 0.897069 0.124445
H25   H     H_    0.984387 0.457672 0.917938 0.121792
C67   C     C_R   0.938477 0.333615 0.075251 0.080663
C68   C     C_R   0.962441 0.514335 0.084030 -0.126037
C69   C     C_R   0.917980 0.659158 0.095672 -0.108829
C70   C     C_R   0.849444 0.624510 0.098744 -0.098004
C71   C     C_R   0.825383 0.444558 0.090914 -0.112355
C72   C     C_R   0.869779 0.299144 0.079714 -0.145375
H26   H     H_    0.015420 0.542545 0.081643 0.121856
H27   H     H_    0.936611 0.798147 0.102541 0.124389
H28   H     H_    0.815085 0.736923 0.107561 0.103674
H29   H     H_    0.772377 0.417637 0.093721 0.109592
H30   H     H_    0.850691 0.159997 0.074218 0.105878
C73   C     C_R   0.427477 0.842755 0.560568 0.079017
C74   C     C_R   0.445075 0.029676 0.566836 -0.128709
C75   C     C_R   0.395272 0.165576 0.573122 -0.102206
C76   C     C_R   0.327652 0.116037 0.573615 -0.100170
C77   C     C_R   0.309871 0.930107 0.568822 -0.112820
C78   C     C_R   0.359617 0.793625 0.563039 -0.141155
H31   H     H_    0.497300 0.069832 0.566713 0.120713
H32   H     H_    0.409087 0.309232 0.577896 0.118844
H33   H     H_    0.289149 0.221558 0.578252 0.103788
H34   H     H_    0.257577 0.891611 0.569835 0.108508
H35   H     H_    0.345237 0.649845 0.560142 0.103060
C79   C     C_R   0.572522 0.157232 0.439430 0.079029
C80   C     C_R   0.640391 0.206334 0.436994 -0.141173
C81   C     C_R   0.690134 0.069832 0.431228 -0.112815
C82   C     C_R   0.672342 0.883909 0.426412 -0.100162
C83   C     C_R   0.604713 0.834400 0.426863 -0.102205
C84   C     C_R   0.554913 0.970321 0.433136 -0.128713
H36   H     H_    0.654780 0.350105 0.439913 0.103062
H37   H     H_    0.742435 0.108303 0.430248 0.108499
H38   H     H_    0.710842 0.778371 0.421790 0.103783
H39   H     H_    0.590890 0.690749 0.422069 0.118846
H40   H     H_    0.502683 0.930185 0.433232 0.120701
H41   H     H_    0.505561 0.410550 0.100129 0.132791
H42   H     H_    0.494439 0.589449 0.899872 0.132792
H43   H     H_    0.983308 0.069385 0.411834 0.135756
H44   H     H_    0.016692 0.930615 0.588166 0.135754

loop_
_geom_bond_atom_site_label_1
_geom_bond_atom_site_label_2
_ccdc_geom_bond_type
O17   V3    S    
C24   H3    S    
C55   C59   A    
C61   C66   A    
O1    C5    A    
O19   V1    S    
O13   V1    S    
C45   C46   A    
O3    C7    A    
C76   H33   S    
C68   H26   S    
C44   C48   A    
O15   V3    S    
C74   C75   A    
C5    C12   S    
C70   H28   S    
C64   C65   A    
O7    C3    A    
C6    C11   S    
O5    C1    A    
C40   H12   S    
C29   H5    S    
C9    C18   A    
C36   C40   A    
O9    V1    S    
C14   C18   A    
C52   C59   A    
C79   C84   A    
C58   H42   S    
C82   H38   S    
O4    C8    A    
C62   C63   A    
O1    V3    S    
C14   C67   S    
C67   C68   A    
C12   C23   A    
O2    V4    S    
C63   H22   S    
O3    V1    S    
C19   H20   S    
C69   C70   A    
C82   C83   A    
C1    O15   A    
C32   C52   A    
C2    O16   A    
C16   C79   S    
C42   C46   A    
C63   C64   A    
C41   C45   A    
O14   V2    S    
C16   C20   A    
C43   C55   A    
C40   C44   A    
C38   H10   S    
O11   C7    A    
C15   C28   A    
O12   C8    A    
C55   H15   S    
C39   H11   S    
C9    C22   A    
C60   H44   S    
C10   C17   A    
O10   V2    S    
C11   C24   A    
C51   C60   A    
C20   H19   S    
O5    V1    S    
C62   H21   S    
C32   H8    S    
C84   H40   S    
C35   C39   A    
O7    V3    S    
C67   C72   A    
C54   H14   S    
C27   C28   A    
C56   H16   S    
C29   C49   A    
C15   C73   S    
C81   C82   A    
C77   H34   S    
C79   C80   A    
C31   C51   A    
C14   C25   A    
C34   C38   A    
C71   H29   S    
C23   C27   A    
C13   C61   S    
C54   C58   A    
O4    V2    S    
O8    V4    S    
C64   H23   S    
C47   C48   A    
O2    C6    A    
C4    C34   S    
C80   H36   S    
C21   C25   A    
O8    C4    A    
C7    C10   S    
C17   H18   S    
O9    C5    A    
C10   C21   A    
C31   H7    S    
C70   C71   A    
O11   V3    S    
C11   C20   A    
C73   C78   A    
C44   C56   A    
C30   C34   A    
C30   H6    S    
C65   H24   S    
C50   C57   A    
O6    V2    S    
C49   C58   A    
C4    O14   A    
C77   C78   A    
C18   H17   S    
C71   C72   A    
C75   C76   A    
O16   V4    S    
C3    O13   A    
C1    C35   S    
C83   H39   S    
C2    C36   S    
C48   C52   A    
C3    C33   S    
C81   H37   S    
C21   H2    S    
C15   C19   A    
C80   C81   A    
C29   C33   A    
O18   V4    S    
O12   V4    S    
C16   C27   A    
C61   C62   A    
C22   C26   A    
C31   C35   A    
C8    C9    S    
C32   C36   A    
O10   C6    A    
O20   V2    S    
C76   C77   A    
C78   H35   S    
C72   H30   S    
C68   C69   A    
C43   C47   A    
C13   C26   A    
C38   C42   A    
C56   C60   A    
C53   H13   S    
C37   C41   A    
C22   H1    S    
C37   H9    S    
C39   C43   A    
C69   H27   S    
C13   C17   A    
C42   C54   A    
C57   H41   S    
C41   C53   A    
O6    C2    A    
C30   C50   A    
C75   H32   S    
C33   C37   A    
C24   C28   A    
C25   C26   A    
C46   C50   A    
C65   C66   A    
C45   C49   A    
C83   C84   A    
C12   C19   A    
C59   H43   S    
C74   H31   S    
C47   C51   A    
C66   H25   S    
C53   C57   A    
C73   C74   A    
C23   H4    S    
