data_mof_unit_171.cif
_audit_creation_date              2012-10-26T21:00:35-0400
_audit_creation_method            fapswitch 2.2
_symmetry_space_group_name_H-M    P1
_symmetry_Int_Tables_number       1
_space_group_crystal_system       triclinic
_cell_length_a                    10.77505
_cell_length_b                    9.601402
_cell_length_c                    10.849201
_cell_angle_alpha                 89.19704
_cell_angle_beta                  89.613477
_cell_angle_gamma                 90.210346
_cell_volume                      1122.26673746

loop_
_atom_site_label
_atom_site_type_symbol
_atom_type_description
_atom_site_fract_x
_atom_site_fract_y
_atom_site_fract_z
_atom_type_partial_charge
C1    C     C_R   0.262622 0.499748 0.497383 0.561684
C2    C     C_R   0.488364 0.499607 0.737024 0.541129
C3    C     C_R   0.531143 0.763069 0.101417 -0.074924
C4    C     C_R   0.407972 0.747890 0.878404 -0.072608
C5    C     C_R   0.511515 0.883482 0.031319 0.100838
C6    C     C_R   0.435044 0.877245 0.927338 0.108971
C7    C     C_R   0.454691 0.626328 0.934455 0.004129
C8    C     C_R   0.493072 0.632408 0.057672 0.015671
C9    C     C_R   0.498186 0.506371 0.127077 0.016993
C10   C     C_R   0.470981 0.500618 0.870947 -0.001807
C11   C     C_R   0.486711 0.380328 0.065811 -0.109757
C12   C     C_R   0.737560 0.500234 0.497042 0.567839
C13   C     C_R   0.487362 0.377864 0.938465 -0.113357
C14   C     C_R   0.063389 0.423177 0.581577 -0.146313
C15   C     C_R   0.935116 0.423528 0.581485 -0.146991
C16   C     C_R   0.871674 0.500523 0.491995 0.009519
C17   C     C_R   0.128923 0.499225 0.491768 0.008436
C18   C     C_R   0.936502 0.573911 0.398124 0.101096
C19   C     C_R   0.066704 0.572485 0.397499 0.096947
C20   C     C_R   0.426335 0.075075 0.421082 0.048143
C21   C     C_R   0.574550 0.073195 0.578131 0.051974
C22   C     C_R   0.426602 0.926906 0.420894 0.037302
C23   C     C_R   0.574282 0.924940 0.578384 0.045560
C24   C     C_R   0.502331 0.501822 0.261941 0.568683
Cu1   Cu    Cu3+1 0.500000 0.640660 0.500000 0.986707
Cu2   Cu    Cu3+1 0.500000 0.359340 0.500000 0.998914
H1    H     H_    0.481939 0.283668 0.116831 0.182891
H2    H     H_    0.633699 0.868948 0.641782 0.133780
H3    H     H_    0.502703 0.280748 0.893011 0.192149
H4    H     H_    0.586804 0.772825 0.182766 0.189384
H5    H     H_    0.353116 0.743261 0.795352 0.165849
H6    H     H_    0.111803 0.365387 0.652956 0.153846
H7    H     H_    0.885067 0.365723 0.652651 0.141584
H8    H     H_    0.367035 0.131041 0.357550 0.132195
H9    H     H_    0.634145 0.127703 0.641356 0.129412
H10   H     H_    0.367930 0.872620 0.356950 0.148640
I1    I     I_    0.626975 0.053583 0.071161 -0.375897
I2    I     I_    0.355666 0.051190 0.838031 -0.383402
I3    I     I_    0.838552 0.677096 0.253055 -0.268335
I4    I     I_    0.169495 0.669093 0.249284 -0.296975
N1    N     N_R   0.500000 0.852070 0.500000 -0.235052
N2    N     N_R   0.500000 0.147940 0.500000 -0.225332
O1    O     O_R   0.319640 0.618740 0.499990 -0.488309
O2    O     O_R   0.680360 0.618740 0.500010 -0.483108
O3    O     O_R   0.319620 0.381170 0.499990 -0.496797
O4    O     O_R   0.680380 0.381170 0.500010 -0.497247
O5    O     O_R   0.500000 0.618810 0.319650 -0.506660
O6    O     O_R   0.500000 0.618810 0.680350 -0.518889
O7    O     O_R   0.499970 0.381240 0.319640 -0.500373
O8    O     O_R   0.500030 0.381240 0.680360 -0.498134

loop_
_geom_bond_atom_site_label_1
_geom_bond_atom_site_label_2
_ccdc_geom_bond_type
C7    C10   A    
C20   N2    A    
C18   I3    S    
C6    I2    S    
C9    C24   S    
C21   H9    S    
C5    I1    S    
C3    H4    S    
C9    C11   A    
Cu1   O5    S    
C1    C17   S    
C23   N1    A    
C11   H1    S    
C20   H8    S    
Cu1   O1    S    
Cu2   O8    S    
C7    C8    A    
C12   O2    A    
C14   H6    S    
C10   C13   A    
C23   H2    S    
C11   C13   A    
C14   C17   A    
C1    O3    A    
C4    C7    A    
C15   C16   A    
Cu1   O2    S    
C13   H3    S    
C17   C19   A    
C20   C22   A    
C3    C8    A    
C21   C23   A    
C5    C6    A    
C4    H5    S    
C19   I4    S    
Cu2   O4    S    
C4    C6    A    
C21   N2    A    
C22   N1    A    
C22   H10   S    
Cu2   N2    S    
C16   C18   A    
C18   C19   A    
Cu2   O7    S    
Cu1   N1    S    
C24   O7    A    
C14   C15   A    
C2    O8    A    
Cu2   O3    S    
C2    O6    A    
Cu1   Cu2   S    
C24   O5    A    
Cu1   O6    S    
C1    O1    A    
C12   C16   S    
C15   H7    S    
C8    C9    A    
C3    C5    A    
C12   O4    A    
C2    C10   S    
