data_mof_unit_3414.cif
_audit_creation_date              2012-10-26T19:15:06-0400
_audit_creation_method            fapswitch 2.2
_symmetry_space_group_name_H-M    P1
_symmetry_Int_Tables_number       1
_space_group_crystal_system       triclinic
_cell_length_a                    10.848321
_cell_length_b                    10.815432
_cell_length_c                    9.570317
_cell_angle_alpha                 90.063387
_cell_angle_beta                  89.378637
_cell_angle_gamma                 91.810731
_cell_volume                      1122.25136144

loop_
_atom_site_label
_atom_site_type_symbol
_atom_type_description
_atom_site_fract_x
_atom_site_fract_y
_atom_site_fract_z
_atom_type_partial_charge
C1    C     C_R   0.501110 0.262551 0.500050 0.541004
C2    C     C_R   0.468379 0.935528 0.619113 0.051914
C3    C     C_3   0.345184 0.926780 0.690685 -0.259611
C4    C     C_R   0.263063 0.508353 0.500507 0.543476
C5    C     C_3   0.347175 0.066753 0.691592 -0.231337
C6    C     C_R   0.575080 0.580851 0.072807 0.174136
C7    C     C_R   0.433180 0.412303 0.072917 0.112542
C8    C     C_R   0.434455 0.413508 0.924292 0.038766
C9    C     C_R   0.575884 0.580157 0.925522 0.113301
C10   C     C_3   0.574554 0.717752 0.918876 -0.121283
C11   C     C_3   0.572303 0.718550 0.077412 -0.259159
C12   C     C_R   0.935440 0.519738 0.620542 -0.044352
C13   C     C_R   0.501159 0.737632 0.500130 0.559053
C14   C     C_R   0.737951 0.505875 0.498542 0.549955
C15   C     C_R   0.061378 0.518760 0.622534 -0.046738
C16   C     C_R   0.131638 0.532456 0.500465 -0.047088
C17   C     C_R   0.070972 0.571210 0.377846 0.018072
C18   C     C_R   0.940438 0.561181 0.372458 0.022986
C19   C     C_R   0.871880 0.525383 0.495196 -0.038891
C20   C     C_2   0.142361 0.620803 0.255325 0.634587
C21   C     C_2   0.354004 0.315178 0.141201 0.280112
C22   C     C_2   0.690951 0.773329 0.855720 0.238785
C23   C     C_3   0.921807 0.436304 0.744412 -0.219405
C24   C     C_2   0.881170 0.587035 0.237369 0.616968
C25   C     C_2   0.110176 0.308540 0.716806 0.237938
C26   C     C_3   0.062508 0.434671 0.746906 -0.078227
C27   C     C_R   0.469375 0.063127 0.619166 0.035634
C28   C     C_R   0.509303 0.129644 0.501531 0.010132
C29   C     C_R   0.561623 0.066613 0.388453 -0.122455
C30   C     C_R   0.561880 0.937660 0.389036 -0.124970
C31   C     C_R   0.508680 0.871258 0.501671 0.025994
Cu1   Cu    Cu3+1 0.499990 0.499980 0.640670 0.954406
Cu2   Cu    Cu3+1 0.500010 0.500020 0.359330 1.004605
H1    H     H_    0.348971 0.887244 0.797360 0.152690
H2    H     H_    0.102986 0.480256 0.840726 0.179161
H3    H     H_    0.599162 0.116462 0.298716 0.164551
H4    H     H_    0.600760 0.890455 0.300513 0.139078
H5    H     H_    0.272087 0.884945 0.623253 0.156525
H6    H     H_    0.183812 0.606646 0.050197 0.323345
H7    H     H_    0.318224 0.325094 0.245410 0.167772
H8    H     H_    0.764354 0.714784 0.819575 0.118427
H9    H     H_    0.859697 0.710696 0.083127 0.329130
H10   H     H_    0.108106 0.270947 0.611578 0.101963
H11   H     H_    0.275012 0.106194 0.624857 0.153738
H12   H     H_    0.354876 0.106943 0.798176 0.216108
H13   H     H_    0.379246 0.346722 0.866088 0.186741
H14   H     H_    0.488971 0.752040 0.872729 0.152581
H15   H     H_    0.656317 0.760033 0.125485 0.155371
H16   H     H_    0.484124 0.752346 0.121097 0.167290
H17   H     H_    0.881858 0.484592 0.836160 0.167647
H18   H     H_    0.874976 0.346282 0.718275 0.162678
N1    N     N_R   0.500790 0.500930 0.147930 -0.253852
N2    N     N_R   0.500790 0.500890 0.852020 -0.271902
O1    O     O_R   0.500000 0.319640 0.618810 -0.497735
O2    O     O_R   0.128999 0.565359 0.124098 -0.683744
O3    O     O_2   0.325512 0.220042 0.078900 -0.501997
O4    O     O_2   0.704109 0.885443 0.845717 -0.477778
O5    O     O_2   0.837562 0.501866 0.167666 -0.490455
O6    O     O_R   0.887829 0.707108 0.183586 -0.684223
O7    O     O_2   0.147853 0.245913 0.812247 -0.478798
O8    O     O_R   0.500010 0.319680 0.381230 -0.529496
O9    O     O_R   0.319650 0.499970 0.618810 -0.506797
O10   O     O_R   0.319660 0.500010 0.381230 -0.514177
O11   O     O_R   0.499990 0.680320 0.618770 -0.513870
O12   O     O_R   0.500000 0.680360 0.381190 -0.495984
O13   O     O_R   0.680340 0.499990 0.618770 -0.505334
O14   O     O_R   0.680350 0.500030 0.381190 -0.462463
O15   O     O_2   0.213735 0.709530 0.270326 -0.497039

loop_
_geom_bond_atom_site_label_1
_geom_bond_atom_site_label_2
_ccdc_geom_bond_type
H9    O6    S    
C4    C16   S    
C21   O3    D    
C14   O14   A    
C2    C27   A    
C11   H16   S    
C25   O7    D    
C1    C28   S    
C9    C10   S    
C26   H2    S    
C5    C27   S    
C23   H18   S    
C4    O10   A    
C12   C15   A    
Cu2   O10   S    
C1    O1    A    
Cu1   Cu2   S    
C25   H10   S    
C22   O4    D    
C2    C3    S    
C14   O13   A    
C8    N2    A    
Cu2   O12   S    
C7    C8    A    
C13   O12   A    
C10   C22   S    
Cu2   N1    S    
C21   H7    S    
C29   H3    S    
Cu1   O11   S    
C11   H15   S    
C29   C30   A    
C13   O11   A    
C6    C9    A    
C20   O2    S    
C18   C24   S    
C12   C19   A    
Cu1   O13   S    
C28   C29   A    
C5    H11   S    
C13   C31   S    
C7    N1    A    
C17   C18   A    
C24   O6    S    
C30   C31   A    
C16   C17   A    
C8    H13   S    
C22   H8    S    
C9    N2    A    
C10   C11   S    
Cu1   O9    S    
C15   C16   A    
C24   O5    D    
C4    O9    A    
Cu1   N2    S    
C6    C11   S    
C17   C20   S    
Cu2   O14   S    
Cu2   O8    S    
C18   C19   A    
C23   C26   S    
Cu1   O1    S    
C10   H14   S    
C15   C26   S    
C23   H17   S    
C12   C23   S    
C3    C5    S    
C3    H1    S    
C6    N1    A    
C25   C26   S    
C7    C21   S    
C5    H12   S    
C14   C19   S    
C20   O15   D    
H6    O2    S    
C30   H4    S    
C3    H5    S    
C2    C31   A    
C27   C28   A    
C1    O8    A    
