data_mof_unit_3658.cif
_audit_creation_date              2012-12-10T17:46:22-0500
_audit_creation_method            fapswitch 2.2
_symmetry_space_group_name_H-M    P1
_symmetry_Int_Tables_number       1
_space_group_crystal_system       triclinic
_cell_length_a                    14.125305
_cell_length_b                    10.716398
_cell_length_c                    9.984021
_cell_angle_alpha                 92.388171
_cell_angle_beta                  90.626309
_cell_angle_gamma                 92.985172
_cell_volume                      1507.81350312

loop_
_atom_site_label
_atom_site_type_symbol
_atom_type_description
_atom_site_fract_x
_atom_site_fract_y
_atom_site_fract_z
_atom_type_partial_charge
C1    C     C_R   0.505597 0.261353 0.497404 0.853133
C2    C     C_R   0.466074 0.058271 0.394558 -0.244606
C3    C     C_R   0.458872 0.930991 0.402979 -0.211886
C4    C     C_R   0.329438 0.499591 0.499408 0.881189
C5    C     C_R   0.498331 0.875027 0.512946 -0.111449
C6    C     C_R   0.373520 0.336878 0.130914 -0.171152
C7    C     C_R   0.308211 0.257836 0.057549 0.191864
C8    C     C_R   0.307532 0.259651 0.918229 -0.240262
C9    C     C_R   0.370511 0.339598 0.852689 -0.158395
C10   C     C_R   0.435850 0.421945 0.923874 0.133384
C11   C     C_R   0.437122 0.420442 0.067721 0.086610
C12   C     C_1   0.772034 0.499641 0.501657 -0.225957
C13   C     C_R   0.562245 0.575239 0.076486 -0.000350
C14   C     C_R   0.566352 0.569511 0.933084 0.128100
C15   C     C_R   0.499494 0.740546 0.503853 0.883401
C16   C     C_R   0.670548 0.500295 0.500614 0.892411
C17   C     C_1   0.227900 0.499692 0.498436 -0.219685
C18   C     C_1   0.142556 0.499588 0.498543 -0.016865
C19   C     C_1   0.042598 0.499382 0.499356 0.004549
C20   C     C_1   0.957268 0.499296 0.500350 -0.004686
C21   C     C_1   0.857340 0.499349 0.501407 -0.037785
C22   C     C_3   0.651068 0.633113 0.866803 -0.367632
C23   C     C_R   0.629708 0.145990 0.684253 -0.156852
C24   C     C_3   0.735143 0.548575 0.860320 -0.815823
C25   C     C_R   0.622980 0.670789 0.152761 0.202491
C26   C     C_R   0.713825 0.644083 0.198309 -0.108679
C27   C     C_R   0.773392 0.738224 0.260159 -0.164369
C28   C     C_R   0.743840 0.860450 0.273469 -0.123560
C29   C     C_R   0.655133 0.888935 0.223599 -0.146873
C30   C     C_R   0.595108 0.794767 0.162631 -0.173065
C31   C     C_3   0.240297 0.170056 0.128187 -0.434217
C32   C     C_3   0.167572 0.241757 0.207962 -0.845232
C33   C     C_R   0.661537 0.096246 0.801917 -0.127285
C34   C     C_R   0.628111 0.977730 0.835379 -0.163133
C35   C     C_R   0.569637 0.904982 0.745733 -0.209768
C36   C     C_R   0.544620 0.949080 0.618883 0.109058
C37   C     C_R   0.565151 0.075761 0.597355 0.101187
C38   C     C_R   0.517140 0.130192 0.492403 -0.109443
H1    H     H_    0.430091 0.100770 0.313137 0.155808
H2    H     H_    0.712561 0.452072 0.824262 0.266563
H3    H     H_    0.789211 0.587545 0.791454 0.248838
H4    H     H_    0.769029 0.543256 0.960106 0.230880
H5    H     H_    0.632974 0.662263 0.766465 0.251994
H6    H     H_    0.674564 0.722193 0.919986 0.174395
H7    H     H_    0.738135 0.550099 0.187306 0.127960
H8    H     H_    0.842730 0.716536 0.296969 0.142421
H9    H     H_    0.790110 0.933360 0.320937 0.133018
H10   H     H_    0.633146 0.984171 0.231331 0.150663
H11   H     H_    0.527182 0.818420 0.122183 0.120082
H12   H     H_    0.258342 0.198176 0.859315 0.146476
H13   H     H_    0.203112 0.301679 0.288817 0.255993
H14   H     H_    0.127689 0.301066 0.140918 0.265611
H15   H     H_    0.116657 0.174641 0.254610 0.247393
H16   H     H_    0.201631 0.104523 0.054833 0.209627
H17   H     H_    0.280452 0.112563 0.196703 0.195092
H18   H     H_    0.366693 0.332490 0.746042 0.209218
H19   H     H_    0.655104 0.239897 0.662391 0.143118
H20   H     H_    0.708767 0.151683 0.869751 0.132101
H21   H     H_    0.647069 0.942541 0.931445 0.140294
H22   H     H_    0.539197 0.820006 0.783328 0.165768
H23   H     H_    0.420899 0.876066 0.323992 0.161920
H24   H     H_    0.373487 0.329999 0.237140 0.203665
N1    N     N_R   0.499190 0.498800 0.142780 -0.140502
N2    N     N_R   0.499160 0.498720 0.857170 -0.129627
O1    O     O_R   0.500000 0.316780 0.614690 -0.627695
O2    O     O_R   0.499990 0.316750 0.385360 -0.635223
O3    O     O_R   0.373720 0.500010 0.614690 -0.608673
O4    O     O_R   0.373710 0.499990 0.385360 -0.612781
O5    O     O_R   0.500010 0.683250 0.614640 -0.645754
O6    O     O_R   0.500000 0.683220 0.385310 -0.594322
O7    O     O_R   0.626290 0.500010 0.614640 -0.607591
O8    O     O_R   0.626280 0.499990 0.385310 -0.594049
Zn1   Zn    Zn3+2 0.500010 0.500020 0.653130 0.909957
Zn2   Zn    Zn3+2 0.499990 0.499980 0.346870 0.928995

loop_
_geom_bond_atom_site_label_1
_geom_bond_atom_site_label_2
_ccdc_geom_bond_type
O6    Zn2   S    
C4    O3    A    
C1    O1    A    
N2    Zn1   S    
C32   H13   S    
O5    Zn1   S    
C37   C38   A    
O3    Zn1   S    
N1    Zn2   S    
C32   H14   S    
C29   C30   A    
C24   H4    S    
C9    C10   A    
C2    C38   A    
C22   H5    S    
C16   O8    A    
C3    C5    A    
C14   N2    A    
C6    H24   S    
C17   C18   T    
C8    C9    A    
C7    C8    A    
C28   H9    S    
C9    H18   S    
C13   C14   A    
C24   H3    S    
C6    C11   A    
C14   C22   S    
C26   C27   A    
C33   H20   S    
C16   O7    A    
C1    C38   S    
C34   C35   A    
C12   C16   S    
C4    C17   S    
C12   C21   T    
C27   H8    S    
C36   C37   A    
C24   H2    S    
C30   H11   S    
C33   C34   A    
C2    C3    A    
C6    C7    A    
C11   N1    A    
C13   N1    A    
C3    H23   S    
C31   H16   S    
C34   H21   S    
C15   O5    A    
C22   C24   S    
C5    C15   S    
C7    C31   S    
C10   C11   A    
C29   H10   S    
O4    Zn2   S    
O2    Zn2   S    
C5    C36   A    
C8    H12   S    
C32   H15   S    
C25   C30   A    
O1    Zn1   S    
C20   C21   S    
C23   C33   A    
O8    Zn2   S    
C18   C19   S    
O7    Zn1   S    
C27   C28   A    
C23   H19   S    
C15   O6    A    
C28   C29   A    
C22   H6    S    
C26   H7    S    
C31   H17   S    
C25   C26   A    
C23   C37   A    
C4    O4    A    
C2    H1    S    
C31   C32   S    
C10   N2    A    
C19   C20   T    
C35   H22   S    
C13   C25   S    
C35   C36   A    
C1    O2    A    
