data_mof_unit_3495.cif
_audit_creation_date              2013-03-05T15:47:34-0500
_audit_creation_method            fapswitch 2.2
_symmetry_space_group_name_H-M    P1
_symmetry_Int_Tables_number       1
_space_group_crystal_system       triclinic
_cell_length_a                    7.196138
_cell_length_b                    14.882562
_cell_length_c                    22.838394
_cell_angle_alpha                 90.0
_cell_angle_beta                  89.979011
_cell_angle_gamma                 89.996449
_cell_volume                      2445.92262701

loop_
_atom_site_label
_atom_site_type_symbol
_atom_site_description
_atom_site_fract_x
_atom_site_fract_y
_atom_site_fract_z
_atom_type_partial_charge
O1    O     O_R   0.390810 0.844810 0.447340 -0.588231
O2    O     O_R   0.109190 0.155190 0.947340 -0.588074
O3    O     O_R   0.890810 0.655190 0.552660 -0.587544
O4    O     O_R   0.609190 0.344810 0.052660 -0.588310
O5    O     O_R   0.720550 0.655820 0.440420 -0.580757
O6    O     O_R   0.779450 0.344180 0.940420 -0.580579
O7    O     O_R   0.220550 0.844180 0.559580 -0.580510
O8    O     O_R   0.279450 0.155820 0.059580 -0.580588
C1    C     C_R   0.553073 0.625451 0.426642 1.003489
C2    C     C_R   0.946994 0.374554 0.926665 0.999572
C3    C     C_R   0.053023 0.874579 0.573329 1.000036
C4    C     C_R   0.446954 0.125457 0.073353 1.000266
O9    O     O_R   0.720530 0.844130 0.440420 -0.594797
O10   O     O_R   0.779470 0.155870 0.940420 -0.594871
O11   O     O_R   0.220530 0.655870 0.559580 -0.595522
O12   O     O_R   0.279470 0.344130 0.059580 -0.594727
O13   O     O_R   0.890830 0.844810 0.552660 -0.560227
O14   O     O_R   0.609170 0.155190 0.052660 -0.560185
O15   O     O_R   0.390830 0.655190 0.447340 -0.560569
O16   O     O_R   0.109170 0.344810 0.947340 -0.560187
C5    C     C_R   0.551037 0.872365 0.424556 0.944835
C6    C     C_R   0.949006 0.127643 0.924556 0.945018
C7    C     C_R   0.050981 0.627674 0.575464 0.944141
C8    C     C_R   0.448950 0.372378 0.075434 0.945189
O17   O     O_3   0.557310 0.749980 0.536820 -0.257341
O18   O     O_3   0.942690 0.250020 0.036820 -0.257385
O19   O     O_3   0.057310 0.750020 0.463180 -0.257650
O20   O     O_3   0.442690 0.249980 0.963180 -0.257389
V1    V     V_3+5 0.832160 0.749980 0.493170 1.290540
V2    V     V_3+5 0.667840 0.250020 0.993170 1.290341
V3    V     V_3+5 0.332160 0.750020 0.506830 1.290113
V4    V     V_3+5 0.167840 0.249980 0.006830 1.290549
C9    C     C_R   0.769389 0.577529 0.848090 -0.091460
C10   C     C_R   0.731127 0.422592 0.347844 -0.091486
C11   C     C_R   0.268819 0.922692 0.152110 -0.091319
C12   C     C_R   0.230980 0.077406 0.652032 -0.091693
H1    H     H_    0.677817 0.633316 0.858059 0.175629
H2    H     H_    0.822844 0.366824 0.357690 0.177346
H3    H     H_    0.177017 0.866980 0.142212 0.175968
H4    H     H_    0.322680 0.133153 0.642103 0.175806
C13   C     C_R   0.943470 0.449385 0.882921 -0.299156
C14   C     C_R   0.556852 0.550615 0.382868 -0.300141
C15   C     C_R   0.443276 0.050655 0.117133 -0.299399
C16   C     C_R   0.056637 0.949396 0.617107 -0.299250
C17   C     C_R   0.167632 0.478752 0.602797 -0.162769
C18   C     C_R   0.331523 0.521141 0.102872 -0.162448
C19   C     C_R   0.668365 0.021138 0.397129 -0.162456
C20   C     C_R   0.831855 0.978837 0.897192 -0.162718
C21   C     C_R   0.197976 0.408186 0.641091 -0.054411
C22   C     C_R   0.300918 0.591640 0.141205 -0.054745
C23   C     C_R   0.698909 0.091658 0.358811 -0.054811
C24   C     C_R   0.801400 0.908290 0.858899 -0.054501
C25   C     C_R   0.124568 0.410359 0.697301 -0.049843
C26   C     C_R   0.374610 0.589541 0.197361 -0.050291
C27   C     C_R   0.625216 0.089575 0.302656 -0.050322
C28   C     C_R   0.875079 0.910368 0.802726 -0.050240
C29   C     C_R   0.016934 0.483619 0.717281 0.112525
C30   C     C_R   0.482796 0.516429 0.217242 0.112992
C31   C     C_R   0.517100 0.016454 0.282757 0.113068
C32   C     C_R   0.983091 0.983510 0.782778 0.112664
C33   C     C_R   0.954248 0.546430 0.673567 0.032312
C34   C     C_R   0.545692 0.453751 0.173458 0.032421
C35   C     C_R   0.454252 0.953747 0.326526 0.032392
C36   C     C_R   0.045864 0.046255 0.826518 0.032508
C37   C     C_R   0.958540 0.493377 0.777657 -0.050748
C38   C     C_R   0.541466 0.506682 0.277581 -0.050097
C39   C     C_R   0.458457 0.006732 0.222415 -0.050765
C40   C     C_R   0.041662 0.993254 0.722413 -0.051002
C41   C     C_R   0.823942 0.560622 0.790212 -0.014416
C42   C     C_R   0.676335 0.439534 0.290015 -0.015098
C43   C     C_R   0.323572 0.939599 0.209957 -0.014707
C44   C     C_R   0.176385 0.060452 0.709905 -0.014618
C45   C     C_R   0.734771 0.607821 0.745002 0.295554
C46   C     C_R   0.765584 0.392477 0.244727 0.295754
C47   C     C_R   0.234347 0.892516 0.255237 0.295770
C48   C     C_R   0.265623 0.107547 0.755158 0.295835
C49   C     C_R   0.792400 0.597024 0.686544 -0.267085
C50   C     C_R   0.707877 0.403368 0.186299 -0.268156
C51   C     C_R   0.292082 0.903364 0.313672 -0.268271
C52   C     C_R   0.207957 0.096682 0.813612 -0.268011
C53   C     C_R   0.023519 0.439630 0.826398 0.324327
C54   C     C_R   0.476465 0.560315 0.326396 0.323624
C55   C     C_R   0.523503 0.060383 0.173618 0.324271
C56   C     C_R   0.976689 0.939577 0.673636 0.325083
C57   C     C_R   0.826548 0.523249 0.893936 -0.122213
C58   C     C_R   0.674237 0.476832 0.393769 -0.123285
C59   C     C_R   0.326024 0.976886 0.106207 -0.122342
C60   C     C_R   0.173691 0.023228 0.606141 -0.122357
C61   C     C_R   0.047738 0.549436 0.617391 -0.131154
C62   C     C_R   0.451965 0.450633 0.117354 -0.132100
C63   C     C_R   0.547983 0.950619 0.382634 -0.131797
C64   C     C_R   0.952153 0.049377 0.882650 -0.131762
H5    H     H_    0.235834 0.477161 0.560488 0.158870
H6    H     H_    0.263121 0.522664 0.060610 0.160264
H7    H     H_    0.736763 0.022654 0.439391 0.160070
H8    H     H_    0.763449 0.977329 0.939469 0.159780
H9    H     H_    0.145533 0.350656 0.722534 0.187174
H10   H     H_    0.353377 0.649191 0.222627 0.187472
H11   H     H_    0.646381 0.149245 0.277405 0.187362
H12   H     H_    0.854009 0.850666 0.777516 0.187656
H13   H     H_    0.282428 0.351705 0.627434 0.160121
H14   H     H_    0.216035 0.648001 0.127622 0.160792
H15   H     H_    0.783736 0.148027 0.372405 0.160944
H16   H     H_    0.716654 0.851900 0.872528 0.160700
C65   C     C_2   0.764035 0.547193 0.953579 1.040362
O21   O     O_2   0.874001 0.544457 0.994178 -0.642688
O22   O     O_R   0.582421 0.577430 0.962836 -0.778743
H17   H     H_    0.558331 0.593878 0.005233 0.329204
C66   C     C_2   0.737837 0.452981 0.453338 1.040229
O23   O     O_2   0.630039 0.458323 0.494467 -0.643074
O24   O     O_R   0.917811 0.419985 0.461997 -0.779531
H18   H     H_    0.942802 0.404117 0.504437 0.329207
C67   C     C_2   0.263068 0.952993 0.046607 1.040596
O25   O     O_2   0.372520 0.956098 0.005859 -0.642718
O26   O     O_R   0.081614 0.922439 0.037543 -0.778809
H19   H     H_    0.057200 0.906075 0.995157 0.329090
C68   C     C_2   0.236329 0.047199 0.546512 1.040340
O27   O     O_2   0.126554 0.044322 0.505868 -0.642657
O28   O     O_R   0.417855 0.077588 0.537313 -0.778946
H20   H     H_    0.442049 0.094020 0.494920 0.329132
N1    N     N_R   0.566352 0.656057 0.757772 0.242381
O29   O     O_R   0.567513 0.743244 0.761112 -0.337467
O30   O     O_R   0.415123 0.612203 0.770379 -0.367681
N2    N     N_R   0.934048 0.344245 0.257400 0.242596
O31   O     O_R   0.932899 0.257054 0.260723 -0.337189
O32   O     O_R   0.085299 0.388098 0.269947 -0.367691
N3    N     N_R   0.065913 0.844279 0.242552 0.242548
O33   O     O_R   0.067054 0.757082 0.239293 -0.337245
O34   O     O_R   0.914690 0.888125 0.229945 -0.367741
N4    N     N_R   0.434000 0.155817 0.742420 0.242564
O35   O     O_R   0.432725 0.243006 0.739092 -0.337048
O36   O     O_R   0.585256 0.111997 0.729779 -0.368011
N5    N     N_R   0.174595 0.378259 0.820891 0.226880
O37   O     O_R   0.343279 0.408293 0.814783 -0.310714
O38   O     O_R   0.145825 0.292748 0.827768 -0.433837
N6    N     N_R   0.325141 0.621564 0.321007 0.226737
O39   O     O_R   0.156535 0.591393 0.315002 -0.311415
O40   O     O_R   0.353645 0.707104 0.327847 -0.433686
N7    N     N_R   0.674763 0.121653 0.179031 0.226846
O41   O     O_R   0.843399 0.091505 0.185013 -0.310946
O42   O     O_R   0.646187 0.207184 0.172177 -0.433632
N8    N     N_R   0.826062 0.877988 0.679144 0.226699
O43   O     O_R   0.657041 0.907755 0.684902 -0.310475
O44   O     O_R   0.855649 0.792507 0.672462 -0.434731
C69   C     C_2   0.651774 0.614228 0.640676 1.129153
O45   O     O_2   0.553936 0.681285 0.642564 -0.522981
O46   O     O_R   0.621716 0.549669 0.597508 -0.772288
H21   H     H_    0.521586 0.568614 0.569006 0.342995
C70   C     C_2   0.848457 0.386420 0.140322 1.129115
O47   O     O_2   0.947219 0.319688 0.142251 -0.523474
O48   O     O_R   0.877185 0.450794 0.096927 -0.773788
H22   H     H_    0.976961 0.431875 0.068265 0.341995
C71   C     C_2   0.151511 0.886413 0.359650 1.129139
O49   O     O_2   0.052754 0.819686 0.357721 -0.523552
O50   O     O_R   0.122780 0.950788 0.403047 -0.773643
H23   H     H_    0.023004 0.931882 0.431711 0.342010
C72   C     C_2   0.348522 0.113679 0.859553 1.129068
O51   O     O_2   0.447114 0.180466 0.857617 -0.523483
O52   O     O_R   0.377430 0.049280 0.902916 -0.773398
H24   H     H_    0.477212 0.068194 0.931552 0.342139

loop_
_geom_bond_atom_site_label_1
_geom_bond_atom_site_label_2
_geom_bond_distance
_ccdc_geom_bond_type
C30   C34   1.440320 A    
C46   N2    1.438343 S    
C39   C55   1.448559 A    
C72   O51   1.222018 D    
C27   C31   1.412947 A    
O19   V1    1.758803 S    
C68   O27   1.219862 D    
O13   V1    2.004122 S    
O3    C7    1.329604 A    
O24   H18   1.013745 S    
C14   C54   1.421050 A    
C44   C48   1.404396 A    
C17   H5    1.083879 S    
C55   N7    1.425404 S    
C69   O45   1.222060 D    
C35   C51   1.417978 A    
C12   C60   1.385258 A    
O1    C5    1.329661 A    
C65   O22   1.398197 S    
C30   C38   1.448698 A    
C1    C14   1.496868 S    
C22   C26   1.388357 A    
O9    V1    2.015086 S    
C4    C15   1.496570 S    
C68   O28   1.398187 S    
C21   H13   1.083056 S    
C11   H3    1.084050 S    
O4    C8    1.329674 A    
C37   C41   1.421838 A    
C38   C54   1.448584 A    
C23   H15   1.083051 S    
O26   H19   1.013595 S    
O1    V3    2.003462 S    
C15   C55   1.420907 A    
O2    V4    2.003672 S    
C10   C58   1.385283 A    
O3    V1    2.003635 S    
C9    C57   1.385060 A    
C31   C39   1.448677 A    
C11   C59   1.385182 A    
C1    O15   1.334912 A    
C24   H16   1.083052 S    
O46   H21   1.011295 S    
C33   C49   1.418073 A    
O2    C6    1.329688 A    
O48   H22   1.011405 S    
C7    C61   1.507717 S    
C41   C45   1.404180 A    
N4    O36   1.301181 A    
C14   C58   1.407597 A    
C56   N8    1.425102 S    
C71   O50   1.393833 S    
C17   C61   1.400620 A    
C10   C42   1.401318 A    
C23   C27   1.388336 A    
C9    C41   1.401521 A    
O11   C7    1.340172 A    
O15   V3    2.003876 S    
O12   C8    1.340019 A    
C2    C13   1.496331 S    
C36   C52   1.417938 A    
C70   O48   1.393809 S    
C48   N4    1.438288 S    
O10   V2    2.014735 S    
O16   V4    2.004085 S    
C57   C65   1.477949 S    
C69   O46   1.393597 S    
C33   C61   1.449135 A    
O5    V1    2.015200 S    
C27   H11   1.069733 S    
O7    V3    2.014779 S    
C40   C56   1.448507 A    
C12   H4    1.084054 S    
C58   C66   1.478759 S    
N6    O40   1.298914 A    
C2    O16   1.334631 A    
C25   C29   1.412983 A    
O18   V4    1.758802 S    
C19   C23   1.384032 A    
C25   H9    1.069777 S    
O11   V3    2.014804 S    
C9    H1    1.084074 S    
C28   C32   1.412973 A    
C40   C44   1.421836 A    
O8    V4    2.015132 S    
O7    C3    1.325245 A    
N3    O34   1.301184 A    
C42   C46   1.404349 A    
C51   C71   1.479469 S    
C37   C53   1.448423 A    
O52   H24   1.011393 S    
C18   H6    1.083843 S    
C17   C21   1.384053 A    
O8    C4    1.325254 A    
C13   C53   1.420834 A    
C26   C30   1.412935 A    
O9    C5    1.340058 A    
C3    C16   1.496714 S    
O28   H20   1.013597 S    
C53   N5    1.425390 S    
N1    O29   1.299829 A    
O14   V2    2.003913 S    
O6    V2    2.014849 S    
C22   H14   1.083049 S    
C45   N1    1.438366 S    
C20   C64   1.400616 A    
N5    O37   1.301035 A    
N8    O44   1.298842 A    
C28   H12   1.069594 S    
O22   H17   1.013599 S    
C4    O14   1.334716 A    
N3    O33   1.299865 A    
C49   C69   1.479091 S    
N2    O32   1.301177 A    
C67   O25   1.219844 D    
C5    C63   1.507821 S    
C3    O13   1.334857 A    
C6    C64   1.507719 S    
C20   H8    1.083855 S    
C10   H2    1.084003 S    
C19   C63   1.400652 A    
O17   V3    1.759265 S    
C34   C50   1.417930 A    
C48   C52   1.407185 A    
O5    C1    1.325188 A    
N6    O39   1.301059 A    
C16   C56   1.420777 A    
C8    C62   1.507791 S    
O6    C2    1.325312 A    
N7    O41   1.301031 A    
C29   C33   1.440245 A    
C18   C62   1.400651 A    
O12   V4    2.015156 S    
C13   C57   1.406907 A    
C65   O21   1.219884 D    
C18   C22   1.384054 A    
C31   C35   1.440292 A    
C32   C36   1.440250 A    
C59   C67   1.478161 S    
C15   C59   1.407049 A    
O10   C6    1.340062 A    
C66   O24   1.399177 S    
N4    O35   1.299855 A    
C71   O49   1.222003 D    
C16   C60   1.406972 A    
C70   O47   1.222010 D    
C43   C47   1.404377 A    
N7    O42   1.298896 A    
C52   C72   1.479462 S    
C38   C42   1.421735 A    
C21   C25   1.388367 A    
C34   C62   1.448965 A    
O20   V2    1.759265 S    
C39   C43   1.421843 A    
C54   N6    1.425426 S    
N1    O30   1.301166 A    
C11   C43   1.401549 A    
C12   C44   1.401622 A    
C20   C24   1.383969 A    
C32   C40   1.448752 A    
C45   C49   1.407069 A    
C72   O52   1.393844 S    
C46   C50   1.407038 A    
C35   C63   1.449058 A    
O50   H23   1.011406 S    
N5    O38   1.298891 A    
C19   H7    1.083847 S    
N8    O43   1.301055 A    
C26   H10   1.069720 S    
C36   C64   1.449044 A    
C67   O26   1.398191 S    
C60   C68   1.478034 S    
C66   O23   1.220602 D    
C47   C51   1.407174 A    
O4    V2    2.003425 S    
C24   C28   1.388317 A    
C50   C70   1.479450 S    
N2    O31   1.299862 A    
C29   C37   1.448652 A    
C47   N3    1.438326 S    
