data_mof_unit_141.cif
_audit_creation_date              2012-12-11T16:53:30-0500
_audit_creation_method            fapswitch 2.2
_symmetry_space_group_name_H-M    P1
_symmetry_Int_Tables_number       1
_space_group_crystal_system       triclinic
_cell_length_a                    14.930758
_cell_length_b                    14.77862
_cell_length_c                    17.030587
_cell_angle_alpha                 109.080026
_cell_angle_beta                  106.145566
_cell_angle_gamma                 108.01704
_cell_volume                      3061.98315837

loop_
_atom_site_label
_atom_site_type_symbol
_atom_type_description
_atom_site_fract_x
_atom_site_fract_y
_atom_site_fract_z
_atom_type_partial_charge
C1    C     C_R   0.091229 0.274548 0.041023 0.527584
C2    C     C_R   0.026881 0.583890 0.747796 0.067795
C3    C     C_R   0.762523 0.195677 0.726979 0.056781
C4    C     C_R   0.359973 0.563976 0.053894 0.029509
C5    C     C_R   0.269041 0.690519 0.254503 -0.167969
C6    C     C_R   0.745506 0.561460 0.970735 -0.140881
C7    C     C_R   0.891715 0.449840 0.190366 -0.130908
C8    C     C_R   0.083750 0.807578 0.022974 -0.127065
C9    C     C_R   0.913208 0.724003 0.942217 -0.124647
C10   C     C_R   0.064566 0.541185 0.265617 -0.124224
C11   C     C_R   0.273378 0.790569 0.181457 -0.123079
C12   C     C_R   0.936026 0.522471 0.748767 -0.143020
C13   C     C_R   0.731148 0.459777 0.042428 -0.124603
C14   C     C_R   0.324790 0.789597 0.262895 0.086678
C15   C     C_R   0.704967 0.537132 0.028530 0.071091
C16   C     C_R   0.972744 0.519501 0.276543 0.058455
C17   C     C_R   0.998182 0.823984 0.986723 0.061148
C18   C     C_R   0.520908 0.654485 0.040842 0.162649
C19   C     C_R   0.471516 0.602216 0.083072 0.037431
C20   C     C_R   0.527509 0.569047 0.139556 -0.197257
C21   C     C_R   0.615466 0.560425 0.131559 -0.194758
C22   C     C_R   0.646044 0.585006 0.067185 0.035595
C23   C     C_R   0.772489 0.201106 0.811880 -0.113868
C24   C     C_R   0.607533 0.645904 0.032992 0.162093
C25   C     C_3   0.575053 0.640346 0.939410 -0.524163
C26   C     C_3   0.480214 0.649561 0.947736 -0.516045
C27   C     C_R   0.963453 0.562087 0.363053 0.131019
C28   C     C_R   0.034463 0.626228 0.681939 0.128425
C29   C     C_R   0.138108 0.691912 0.608352 -0.220288
C30   C     C_R   0.131831 0.680679 0.684737 -0.178187
C31   C     C_R   0.943664 0.598707 0.607942 -0.281873
C32   C     C_R   0.949263 0.603339 0.529310 0.189922
C33   C     C_R   0.047343 0.645333 0.528213 0.186107
C34   C     C_R   0.299526 0.594941 0.002093 -0.143057
C35   C     C_R   0.053483 0.627966 0.445185 -0.277676
C36   C     C_R   0.865575 0.531983 0.365353 -0.171510
C37   C     C_R   0.858554 0.553950 0.448594 -0.225045
C38   C     C_R   0.722004 0.098220 0.642432 0.137255
C39   C     C_R   0.427521 0.867236 0.337000 -0.038440
C40   C     C_R   0.588338 0.025975 0.398364 -0.217691
C41   C     C_R   0.492852 0.949749 0.326419 -0.217746
C42   C     C_R   0.462365 0.857725 0.418964 0.402763
C43   C     C_R   0.562954 0.925860 0.485273 0.090708
C44   C     C_R   0.621581 0.016732 0.479379 0.111327
C45   C     C_R   0.786201 0.297853 0.735810 -0.132884
C46   C     C_R   0.703418 0.102914 0.558803 -0.240323
C47   C     C_R   0.681038 0.999126 0.642501 -0.213451
C48   C     C_R   0.600147 0.913058 0.563971 -0.146514
C49   C     C_R   0.093097 0.062053 0.926892 0.102258
C50   C     C_R   0.007429 0.068446 0.943102 0.057898
C51   C     C_R   0.914562 0.972492 0.898514 -0.179333
C52   C     C_R   0.904926 0.879480 0.830863 -0.208282
C53   C     C_R   0.988182 0.879616 0.808050 0.043722
C54   C     C_R   0.083768 0.969106 0.861843 0.161275
C55   C     C_3   0.156303 0.028282 0.831794 -0.505324
C56   C     C_R   0.296990 0.500891 0.080196 -0.055166
C57   C     C_3   0.166353 0.130237 0.902135 -0.451459
C58   C     C_R   0.108308 0.604502 0.824744 -0.129286
C59   C     C_R   0.919026 0.190838 0.969797 -0.202302
C60   C     C_R   0.006999 0.172948 0.988704 -0.106706
H1    H     H_    0.738923 0.616944 0.944590 0.104833
H2    H     H_    0.811779 0.407426 0.175893 0.083961
H3    H     H_    0.164020 0.866131 0.055705 0.092785
H4    H     H_    0.836407 0.705826 0.896839 0.085980
H5    H     H_    0.143126 0.589528 0.317596 0.106650
H6    H     H_    0.302127 0.848410 0.157982 0.083185
H7    H     H_    0.701771 0.414523 0.075307 0.086240
H8    H     H_    0.496773 0.536196 0.179745 0.130086
H9    H     H_    0.650209 0.522297 0.166592 0.125140
H10   H     H_    0.628417 0.711107 0.938209 0.190078
H11   H     H_    0.857603 0.503799 0.706674 0.087744
H12   H     H_    0.555519 0.561776 0.884451 0.201987
H13   H     H_    0.478881 0.725542 0.951168 0.187045
H14   H     H_    0.407541 0.576171 0.897153 0.206177
H15   H     H_    0.129457 0.656988 0.445294 0.126848
H16   H     H_    0.794351 0.486482 0.303296 0.111175
H17   H     H_    0.213898 0.726745 0.608974 0.136668
H18   H     H_    0.782650 0.523676 0.448851 0.127309
H19   H     H_    0.203469 0.707130 0.742403 0.115285
H20   H     H_    0.867883 0.561533 0.606112 0.116018
H21   H     H_    0.741530 0.177027 0.556934 0.116769
H22   H     H_    0.749073 0.135092 0.827025 0.087156
H23   H     H_    0.701527 0.990203 0.704641 0.121173
H24   H     H_    0.633937 0.094063 0.392087 0.136840
H25   H     H_    0.560672 0.840584 0.567754 0.172441
H26   H     H_    0.468869 0.958393 0.264330 0.136329
H27   H     H_    0.846677 0.970842 0.910310 0.121553
H28   H     H_    0.831077 0.809092 0.792695 0.125971
H29   H     H_    0.229206 0.018698 0.848834 0.191221
H30   H     H_    0.117588 0.013517 0.759829 0.204097
H31   H     H_    0.245627 0.179600 0.958833 0.204211
H32   H     H_    0.325593 0.659150 0.984459 0.102457
H33   H     H_    0.133175 0.174551 0.870992 0.202723
H34   H     H_    0.784555 0.323665 0.683297 0.098819
H35   H     H_    0.323112 0.478314 0.133326 0.148138
H36   H     H_    0.188591 0.661168 0.852438 0.083226
H37   H     H_    0.840387 0.130933 0.940916 0.116869
H38   H     H_    0.295112 0.651598 0.293400 0.159567
N1    N     N_R   0.055640 0.348550 0.045600 -0.072594
N2    N     N_R   0.798340 0.505430 0.954400 -0.040635
N3    N     N_R   0.931580 0.439470 0.128350 -0.040346
N4    N     N_R   0.051950 0.704140 0.002340 -0.039866
N5    N     N_R   0.944360 0.651450 0.954400 -0.039251
N6    N     N_R   0.039170 0.492150 0.176290 -0.042969
N7    N     N_R   0.188710 0.696600 0.128350 -0.039997
N8    N     N_R   0.794820 0.447010 0.002340 -0.039488
N9    N     N_R   0.960830 0.507850 0.823710 -0.039325
N10   N     N_R   0.811290 0.303400 0.871650 -0.040766
N11   N     N_R   0.205180 0.552990 0.997660 -0.045858
N12   N     N_R   0.814810 0.361830 0.823710 -0.042152
N13   N     N_R   0.201660 0.494570 0.045600 -0.043263
N14   N     N_R   0.068420 0.560530 0.871650 -0.039140
N15   N     N_R   0.948050 0.295860 0.997660 -0.065048
N16   N     N_R   0.185190 0.638170 0.176290 -0.044461
Ni1   Ni    Ni4+2 0.119330 0.493420 0.109950 0.239550
Ni2   Ni    Ni4+2 0.880670 0.506580 0.890050 0.208068
Ni3   Ni    Ni4+2 0.872590 0.372590 0.000000 0.209010
Ni4   Ni    Ni4+2 0.127410 0.627410 0.000000 0.201701
O1    O     O_3   0.192773 0.298864 0.089930 -0.804601
H39   H     H_    0.195148 0.232636 0.089853 0.307188
O2    O     O_3   0.396484 0.793358 0.441965 -0.796540
H40   H     H_    0.332154 0.803272 0.427083 0.311571

loop_
_geom_bond_atom_site_label_1
_geom_bond_atom_site_label_2
_ccdc_geom_bond_type
C56   H35   S    
C23   H22   S    
C5    N16   A    
C9    H4    S    
N9    N14   A    
C40   H24   S    
C3    C23   A    
C19   C20   A    
N2    Ni2   S    
C2    C12   A    
C1    N1    A    
N16   Ni1   S    
C31   H20   S    
C39   C41   A    
C53   C54   A    
C41   H26   S    
C35   H15   S    
C18   C24   A    
C6    H1    S    
C36   C37   A    
C55   H30   S    
C10   N6    A    
N11   N13   A    
N1    Ni1   S    
C11   C14   A    
C49   C54   A    
C46   H21   S    
C29   C33   A    
C26   H13   S    
C49   C57   S    
C18   C19   A    
C1    O1    S    
C58   H36   S    
C36   H16   S    
C33   C35   A    
C14   C39   S    
C4    C19   S    
C15   C22   S    
C47   C48   A    
C3    C38   S    
C18   C26   S    
C11   N7    A    
C47   H23   S    
C43   C48   A    
C56   N13   A    
N4    Ni4   S    
C11   H6    S    
C59   N15   A    
C16   C27   S    
C6    C15   A    
C59   C60   A    
C57   H33   S    
C21   C22   A    
C4    C56   A    
C45   H34   S    
C44   C46   A    
N11   Ni4   S    
C39   C42   A    
C4    C34   A    
O2    H40   S    
C51   C52   A    
N7    N16   A    
C52   H28   S    
C24   C25   S    
C1    C60   A    
C51   H27   S    
C45   N12   A    
C27   C35   A    
C25   C26   S    
C3    C45   A    
C21   H9    S    
C6    N2    A    
C43   C44   A    
C7    H2    S    
C29   C30   A    
N6    Ni1   S    
C31   C32   A    
C9    N5    A    
C50   C51   A    
C38   C47   A    
C25   H12   S    
C32   C37   A    
C20   C21   A    
C5    C14   A    
N15   Ni3   S    
C30   H19   S    
C9    C17   A    
C7    C16   A    
C12   H11   S    
N3    N6    A    
C55   C57   S    
N8    Ni3   S    
C59   H37   S    
C58   N14   A    
N7    Ni4   S    
C42   C43   A    
N12   Ni2   S    
C52   C53   A    
C13   H7    S    
C10   H5    S    
C54   C55   S    
C40   C41   A    
C57   H31   S    
N10   Ni3   S    
C20   H8    S    
C28   C31   A    
C13   N8    A    
N1    N15   A    
C12   N9    A    
N13   Ni1   S    
O1    H39   S    
C2    C58   A    
C27   C36   A    
C37   H18   S    
N2    N8    A    
C8    C17   A    
C50   C60   S    
C32   C33   A    
C13   C15   A    
N5    Ni2   S    
N3    Ni3   S    
C55   H29   S    
C10   C16   A    
N14   Ni4   S    
C23   N10   A    
C28   C30   A    
C26   H14   S    
N10   N12   A    
C22   C24   A    
N4    N5    A    
C34   H32   S    
N9    Ni2   S    
C38   C46   A    
C8    H3    S    
C40   C44   A    
C29   H17   S    
C5    H38   S    
C49   C50   A    
C7    N3    A    
C34   N11   A    
C48   H25   S    
C2    C28   S    
C25   H10   S    
C8    N4    A    
C42   O2    S    
