data_mof_unit_3162.cif
_audit_creation_date              2012-12-10T18:32:00-0500
_audit_creation_method            fapswitch 2.2
_symmetry_space_group_name_H-M    P1
_symmetry_Int_Tables_number       1
_space_group_crystal_system       triclinic
_cell_length_a                    10.690387
_cell_length_b                    14.983591
_cell_length_c                    15.577296
_cell_angle_alpha                 82.381146
_cell_angle_beta                  89.067699
_cell_angle_gamma                 105.32411
_cell_volume                      2381.78173513

loop_
_atom_site_label
_atom_site_type_symbol
_atom_type_description
_atom_site_fract_x
_atom_site_fract_y
_atom_site_fract_z
_atom_type_partial_charge
C1    C     C_R   0.479809 0.441595 0.661848 0.872390
C2    C     C_R   0.444298 0.440027 0.901103 0.122234
C3    C     C_R   0.459685 0.350399 0.932118 0.178912
C4    C     C_R   0.742819 0.503292 0.494705 0.822579
C5    C     C_R   0.436032 0.503151 0.959963 0.000024
C6    C     C_R   0.465126 0.481711 0.047130 0.064456
C7    C     C_R   0.478070 0.391076 0.076194 -0.229033
C8    C     C_R   0.472066 0.325940 0.020013 -0.243773
C9    C     C_R   0.398689 0.586243 0.934651 -0.283303
C10   C     C_R   0.396916 0.649506 0.992214 0.356945
C11   C     C_R   0.436038 0.632654 0.076964 0.070971
C12   C     C_3   0.122007 0.501757 0.495699 0.126201
C13   C     C_R   0.475153 0.550100 0.103310 0.036111
C14   C     C_R   0.434452 0.695078 0.137023 -0.145487
C15   C     C_R   0.465960 0.674119 0.222490 -0.238604
C16   C     C_R   0.515269 0.558445 0.338246 0.850391
C17   C     C_R   0.521802 0.537667 0.186009 -0.254314
C18   C     C_R   0.688637 0.842149 0.640244 -0.295548
C19   C     C_R   0.653265 0.751989 0.618666 0.024535
C20   C     C_R   0.528814 0.797467 0.504876 -0.059667
C21   C     C_R   0.563321 0.890991 0.522408 -0.001683
C22   C     C_R   0.642795 0.912005 0.592778 0.175180
C23   C     C_3   0.051061 0.432908 0.436288 -0.413974
C24   C     C_R   0.518141 0.962737 0.474554 0.085739
C25   C     C_R   0.543692 0.053119 0.502243 0.085900
C26   C     C_R   0.624337 0.071088 0.572238 -0.245027
C27   C     C_R   0.674315 0.001947 0.615770 -0.196979
C28   C     C_R   0.257842 0.499751 0.498943 0.845716
C29   C     C_R   0.447087 0.946382 0.400207 -0.244179
C30   C     C_R   0.389951 0.011798 0.360006 -0.212930
C31   C     C_R   0.403286 0.096193 0.391400 0.161674
C32   C     C_R   0.483848 0.120774 0.460269 -0.004976
C33   C     C_R   0.331684 0.154576 0.355602 -0.348726
C34   C     C_3   0.113599 0.601858 0.458844 -0.431682
C35   C     C_R   0.337785 0.237893 0.387186 0.142773
C36   C     C_R   0.496922 0.211133 0.484536 -0.115241
C37   C     C_3   0.911464 0.470795 0.584082 -0.456155
C38   C     C_3   0.056194 0.473519 0.587984 -0.414255
C39   C     C_3   0.908943 0.435494 0.430867 -0.128832
C40   C     C_3   0.972778 0.609001 0.466799 -0.139918
C41   C     C_3   0.880594 0.506776 0.489995 0.081767
C42   C     C_R   0.867225 0.442740 0.337354 0.115416
C43   C     C_R   0.761322 0.373057 0.314412 -0.121479
C44   C     C_R   0.729041 0.371499 0.228123 -0.195916
C45   C     C_R   0.463326 0.405858 0.754066 -0.065958
C46   C     C_R   0.799263 0.440976 0.163353 -0.145215
C47   C     C_R   0.904518 0.510533 0.184695 -0.144890
C48   C     C_R   0.940125 0.510384 0.270661 -0.150722
C49   C     C_R   0.239938 0.284899 0.354568 0.171813
C50   C     C_R   0.269871 0.348504 0.278147 -0.132009
C51   C     C_R   0.172192 0.366765 0.225856 -0.175483
C52   C     C_R   0.042857 0.318623 0.248263 -0.094895
C53   C     C_R   0.010655 0.255744 0.324928 -0.156519
C54   C     C_R   0.108667 0.238959 0.377931 -0.221033
C55   C     C_R   0.947101 0.680217 0.393644 0.103323
C56   C     C_R   0.506716 0.593610 0.247278 -0.062963
C57   C     C_R   0.028750 0.772394 0.384843 -0.168769
C58   C     C_R   0.011652 0.841591 0.320249 -0.127533
C59   C     C_R   0.912459 0.820368 0.263272 -0.110851
C60   C     C_R   0.829571 0.730254 0.271530 -0.137920
C61   C     C_R   0.845130 0.661040 0.336931 -0.074313
C62   C     C_R   0.466923 0.287410 0.874349 -0.203595
C63   C     C_R   0.468630 0.315068 0.785362 -0.198902
C64   C     C_R   0.447432 0.466302 0.811580 -0.269284
Cl1   Cl    Cl    0.344711 0.749338 0.954437 -0.654923
H1    H     H_    0.851359 0.397906 0.605329 0.172568
H2    H     H_    0.887205 0.514021 0.631486 0.176107
H3    H     H_    0.489060 0.366950 0.142758 0.135780
H4    H     H_    0.364162 0.601929 0.871249 0.183986
H5    H     H_    0.403636 0.758010 0.119737 0.192804
H6    H     H_    0.735587 0.018405 0.669417 0.147793
H7    H     H_    0.562583 0.237576 0.532597 0.136779
H8    H     H_    0.331717 0.995008 0.304993 0.141093
H9    H     H_    0.750682 0.856997 0.693792 0.151808
H10   H     H_    0.689110 0.697783 0.654560 0.136411
H11   H     H_    0.464917 0.773920 0.455017 0.120472
H12   H     H_    0.153140 0.619575 0.390407 0.158728
H13   H     H_    0.104344 0.524788 0.630865 0.184565
H14   H     H_    0.650001 0.137981 0.595236 0.134350
H15   H     H_    0.432862 0.883241 0.371344 0.134635
H16   H     H_    0.265526 0.133273 0.305282 0.155269
H17   H     H_    0.065816 0.403657 0.616600 0.168136
H18   H     H_    0.852470 0.364849 0.462889 0.140462
H19   H     H_    0.053017 0.361273 0.464591 0.189171
H20   H     H_    0.966425 0.643411 0.525426 0.157896
H21   H     H_    0.174510 0.655190 0.495168 0.179087
H22   H     H_    0.705809 0.317699 0.362908 0.137560
H23   H     H_    0.103718 0.448985 0.371678 0.190976
H24   H     H_    0.650299 0.315538 0.211658 0.136025
H25   H     H_    0.773350 0.440070 0.096543 0.154171
H26   H     H_    0.960359 0.563540 0.134346 0.155535
H27   H     H_    0.024764 0.563069 0.284524 0.141816
H28   H     H_    0.369034 0.376816 0.255301 0.143955
H29   H     H_    0.197276 0.414462 0.165775 0.155292
H30   H     H_    0.968018 0.328850 0.205436 0.162291
H31   H     H_    0.910266 0.218198 0.342128 0.141638
H32   H     H_    0.083019 0.185420 0.434092 0.139627
H33   H     H_    0.106412 0.791006 0.428369 0.129270
H34   H     H_    0.482354 0.257348 0.045099 0.146519
H35   H     H_    0.075576 0.911695 0.314373 0.128281
H36   H     H_    0.899629 0.873766 0.212819 0.134690
H37   H     H_    0.753368 0.714075 0.226789 0.150231
H38   H     H_    0.778397 0.592815 0.341028 0.115244
H39   H     H_    0.565171 0.481814 0.206075 0.163134
H40   H     H_    0.454566 0.718967 0.269507 0.151293
H41   H     H_    0.476339 0.218220 0.897862 0.145615
H42   H     H_    0.479599 0.267152 0.741279 0.158186
H43   H     H_    0.445896 0.536102 0.784973 0.163535
N1    N     N_R   0.573860 0.731700 0.552730 -0.100198
N2    N     N_R   0.426060 0.268290 0.447230 -0.115806
O1    O     O_R   0.462770 0.383110 0.605620 -0.615298
O2    O     O_R   0.510160 0.531900 0.639510 -0.621760
O3    O     O_R   0.661510 0.425600 0.483070 -0.638051
O4    O     O_R   0.708900 0.574390 0.516960 -0.617765
O5    O     O_R   0.489840 0.468100 0.360490 -0.622307
O6    O     O_R   0.537230 0.616890 0.394380 -0.616930
O7    O     O_R   0.291100 0.425610 0.483040 -0.618255
O8    O     O_R   0.338490 0.574400 0.516930 -0.628027
Zn1   Zn    Zn3+2 0.468350 0.400660 0.477370 0.932563
Zn2   Zn    Zn3+2 0.531650 0.599340 0.522630 0.941458

loop_
_geom_bond_atom_site_label_1
_geom_bond_atom_site_label_2
_ccdc_geom_bond_type
C7    C8    A    
C39   C41   S    
C53   C54   A    
C12   C23   S    
C26   C27   A    
C29   C30   A    
C12   C28   S    
C34   C40   S    
C32   C36   A    
C4    O4    A    
C61   H38   S    
C37   C38   S    
C9    H4    S    
C28   O7    A    
O7    Zn1   S    
C1    O2    A    
C30   C31   A    
C11   C14   A    
C10   Cl1   S    
C4    C41   S    
C49   C54   A    
C55   C61   A    
C20   H11   S    
C52   H30   S    
O1    Zn1   S    
C18   C19   A    
C34   H21   S    
C24   C29   A    
C7    H3    S    
O3    Zn1   S    
C47   C48   A    
C2    C64   A    
C35   C49   S    
C31   C33   A    
C54   H32   S    
C9    C10   A    
C25   C32   A    
C59   C60   A    
C18   H9    S    
C21   C22   A    
C38   H17   S    
C53   H31   S    
C12   C38   S    
C14   H5    S    
C60   H37   S    
C16   O6    A    
C44   C46   A    
C64   H43   S    
C39   C42   S    
C19   N1    A    
C23   H19   S    
C51   C52   A    
C59   H36   S    
C4    O3    A    
C58   H35   S    
C24   C25   A    
C3    C8    A    
O2    Zn2   S    
C30   H8    S    
C38   H13   S    
C25   C26   A    
C45   C63   A    
O6    Zn2   S    
C60   C61   A    
C40   H20   S    
C43   C44   A    
C16   C56   S    
C5    C9    A    
C62   C63   A    
C31   C32   A    
C40   C55   S    
C37   H1    S    
C50   C51   A    
C42   C48   A    
C12   C34   S    
C17   C56   A    
C35   N2    A    
C46   H25   S    
C40   C41   S    
O5    Zn1   S    
C23   H23   S    
C55   C57   A    
C36   N2    A    
C2    C5    A    
C42   C43   A    
C63   H42   S    
C16   O5    A    
C27   H6    S    
C52   C53   A    
C3    C62   A    
C46   C47   A    
C18   C22   A    
C47   H26   S    
C8    H34   S    
N2    Zn1   S    
C50   H28   S    
C6    C7    A    
C62   H41   S    
C45   C64   A    
C26   H14   S    
C13   C17   A    
C22   C27   A    
C43   H22   S    
C15   C56   A    
C15   H40   S    
C19   H10   S    
C2    C3    A    
C58   C59   A    
C39   H18   S    
C34   H12   S    
C28   O8    A    
C1    O1    A    
C6    C13   A    
C17   H39   S    
C11   C13   A    
C1    C45   S    
C57   C58   A    
C5    C6    A    
C29   H15   S    
C23   C39   S    
C57   H33   S    
C37   H2    S    
C33   C35   A    
C37   C41   S    
O8    Zn2   S    
C10   C11   A    
C51   H29   S    
C20   N1    A    
C20   C21   A    
C49   C50   A    
C48   H27   S    
C21   C24   A    
C14   C15   A    
C33   H16   S    
O4    Zn2   S    
C44   H24   S    
C36   H7    S    
N1    Zn2   S    
