data_mof_unit_4222.cif
_audit_creation_date              2012-12-10T18:14:17-0500
_audit_creation_method            fapswitch 2.2
_symmetry_space_group_name_H-M    P1
_symmetry_Int_Tables_number       1
_space_group_crystal_system       triclinic
_cell_length_a                    12.743489
_cell_length_b                    12.926199
_cell_length_c                    19.123038
_cell_angle_alpha                 93.288068
_cell_angle_beta                  103.41559
_cell_angle_gamma                 80.40154
_cell_volume                      3020.61616873

loop_
_atom_site_label
_atom_site_type_symbol
_atom_type_description
_atom_site_fract_x
_atom_site_fract_y
_atom_site_fract_z
_atom_type_partial_charge
C1    C     C_R   0.437285 0.691816 0.489397 0.972785
C2    C     C_R   0.506064 0.474478 0.146024 -0.153984
C3    C     C_R   0.663901 0.078576 0.625557 -0.140506
C4    C     C_R   0.503206 0.496670 0.634145 0.988819
C5    C     C_R   0.599439 0.199393 0.527560 0.000633
C6    C     C_R   0.311049 0.833368 0.412147 -0.118505
C7    C     C_R   0.294742 0.937338 0.388262 -0.026122
C8    C     C_R   0.366569 0.004877 0.423133 -0.096102
C9    C     C_R   0.447524 0.974507 0.485727 0.001611
C10   C     C_R   0.447395 0.878945 0.517133 -0.041932
C11   C     C_R   0.525569 0.037985 0.520023 0.103429
C12   C     C_R   0.510961 0.486987 0.710519 -0.125140
C13   C     C_R   0.590225 0.012883 0.589847 0.072380
C14   C     C_R   0.573909 0.927597 0.625199 -0.219420
C15   C     C_R   0.500625 0.862540 0.590109 0.436481
C16   C     C_R   0.561738 0.308413 0.509336 0.807802
C17   C     C_R   0.538794 0.127736 0.487811 -0.193931
C18   C     C_R   0.666681 0.173187 0.595067 -0.089365
C19   C     C_R   0.393239 0.802937 0.474907 -0.115039
C20   C     C_R   0.082690 0.381716 0.374642 -0.240103
C21   C     C_R   0.800206 0.634140 0.585438 0.432887
C22   C     C_R   0.891176 0.683630 0.588489 -0.123806
C23   C     C_R   0.511440 0.464941 0.071071 0.325259
C24   C     C_R   0.964254 0.642592 0.546512 -0.235985
C25   C     C_R   0.952114 0.550163 0.505735 -0.053772
C26   C     C_R   0.851409 0.511810 0.495379 0.158563
C27   C     C_R   0.035530 0.496778 0.472345 -0.041604
C28   C     C_R   0.498588 0.498298 0.366180 0.809588
C29   C     C_R   0.004904 0.432956 0.411052 0.164812
C30   C     C_R   0.898950 0.411791 0.391093 -0.263732
C31   C     C_R   0.831179 0.434168 0.439510 -0.027296
C32   C     C_R   0.148694 0.498738 0.499213 0.048325
C33   C     C_R   0.191717 0.389343 0.401690 0.044128
C34   C     C_R   0.516208 0.470743 0.931762 0.360299
C35   C     C_R   0.465824 0.408376 0.735850 0.353907
C36   C     C_R   0.468960 0.405139 0.808625 -0.189325
C37   C     C_R   0.516765 0.478900 0.856595 -0.006362
C38   C     C_R   0.563252 0.557661 0.831655 -0.019126
C39   C     C_R   0.562116 0.558594 0.758676 -0.238742
C40   C     C_2   0.241265 0.758953 0.371517 0.429344
C41   C     C_2   0.208010 0.974719 0.324055 0.478094
C42   C     C_2   0.190165 0.546858 0.569710 0.485033
C43   C     C_2   0.909861 0.779036 0.634090 0.485779
C44   C     C_2   0.776658 0.345324 0.443683 0.541337
C45   C     C_R   0.496228 0.385367 0.181062 0.451760
C46   C     C_2   0.607790 0.643937 0.877689 0.485192
C47   C     C_2   0.495592 0.296449 0.294712 0.453031
C48   C     C_2   0.493622 0.686352 0.291894 0.570886
C49   C     C_2   0.530320 0.662783 0.143670 0.564407
C50   C     C_R   0.495598 0.392095 0.254430 -0.127577
C51   C     C_R   0.497133 0.491010 0.290060 -0.225680
C52   C     C_R   0.502928 0.581865 0.254242 -0.025930
C53   C     C_R   0.512156 0.572391 0.182073 -0.109510
Cl1   Cl    Cl    0.410060 0.308929 0.679317 -0.597480
Cl2   Cl    Cl    0.459836 0.776206 0.643156 -0.555939
Cl3   Cl    Cl    0.716029 0.676632 0.645065 -0.649034
Cl4   Cl    Cl    0.483675 0.265923 0.131535 -0.460828
H1    H     H_    0.615273 0.913507 0.680901 0.196564
H2    H     H_    0.596544 0.618849 0.738835 0.236741
H3    H     H_    0.713239 0.229483 0.626657 0.166221
H4    H     H_    0.153202 0.777208 0.364175 0.065964
H5    H     H_    0.156335 0.922029 0.292838 0.070741
H6    H     H_    0.177354 0.515592 0.617994 0.084134
H7    H     H_    0.849573 0.817532 0.662745 0.104256
H8    H     H_    0.707232 0.330579 0.401458 0.039939
H9    H     H_    0.663712 0.686171 0.860201 0.087368
H10   H     H_    0.457034 0.301896 0.339911 0.041193
H11   H     H_    0.528515 0.693775 0.348944 0.047143
H12   H     H_    0.712805 0.060742 0.679142 0.156483
H13   H     H_    0.494782 0.672256 0.086623 0.092536
H14   H     H_    0.494862 0.149505 0.434030 0.134924
H15   H     H_    0.354318 0.082697 0.402240 0.173555
H16   H     H_    0.252607 0.352161 0.373251 0.141806
H17   H     H_    0.878728 0.357042 0.346539 0.158289
H18   H     H_    0.059748 0.333860 0.326848 0.182067
H19   H     H_    0.434843 0.343988 0.828091 0.197620
H20   H     H_    0.028812 0.685663 0.543989 0.230784
N1    N     N_R   0.609214 0.471065 0.983301 -0.115998
N2    N     N_R   0.606722 0.468841 0.052187 -0.132829
N3    N     N_R   0.419079 0.461715 0.019598 -0.109292
N4    N     N_R   0.421565 0.464089 0.950750 -0.138083
N5    N     N_R   0.222200 0.444680 0.463280 -0.118654
N6    N     N_R   0.776960 0.554780 0.536340 -0.147835
O1    O     O_R   0.366740 0.627160 0.482470 -0.535082
O2    O     O_2   0.192879 0.065644 0.304999 -0.551724
O3    O     O_2   0.232913 0.625414 0.574040 -0.506231
O4    O     O_2   0.993430 0.816586 0.640111 -0.517931
O5    O     O_2   0.816852 0.280554 0.490455 -0.551494
O6    O     O_2   0.579061 0.672557 0.933242 -0.536475
O7    O     O_2   0.542245 0.210637 0.279644 -0.483754
O8    O     O_2   0.442155 0.764783 0.260121 -0.514373
O9    O     O_2   0.589180 0.724625 0.174575 -0.496445
O10   O     O_R   0.544830 0.662520 0.505920 -0.586287
O11   O     O_R   0.410920 0.482320 0.590130 -0.557733
O12   O     O_R   0.589010 0.517690 0.613590 -0.554964
O13   O     O_R   0.455170 0.337480 0.494080 -0.607717
O14   O     O_R   0.633260 0.372840 0.517530 -0.607973
O15   O     O_R   0.410990 0.482310 0.386410 -0.585984
O16   O     O_R   0.589080 0.517680 0.409870 -0.664547
O17   O     O_2   0.280820 0.679694 0.343255 -0.551899
Zn1   Zn    Zn3+2 0.381090 0.476390 0.484340 1.041807
Zn2   Zn    Zn3+2 0.618910 0.523610 0.515660 1.008468

loop_
_geom_bond_atom_site_label_1
_geom_bond_atom_site_label_2
_ccdc_geom_bond_type
C26   N6    A    
N6    Zn2   S    
C27   C29   A    
C34   C37   S    
C35   C36   A    
C7    C8    A    
C46   O6    D    
C1    O1    A    
C6    C19   A    
C45   Cl4   S    
C29   C30   A    
C33   H16   S    
C36   C37   A    
C3    H12   S    
C46   H9    S    
C10   C15   A    
C38   C39   A    
C30   H17   S    
C28   C51   S    
C16   O14   A    
C5    C17   A    
C3    C18   A    
C5    C16   S    
C36   H19   S    
C21   N6    A    
O11   Zn1   S    
C8    C9    A    
C48   O8    D    
C42   O3    D    
C34   N4    A    
C13   C14   A    
C23   N3    A    
C4    C12   S    
C33   N5    A    
O14   Zn2   S    
C3    C13   A    
O12   Zn2   S    
C26   C31   A    
C21   C22   A    
C35   Cl1   S    
O1    Zn1   S    
C44   H8    S    
C41   H5    S    
C47   H10   S    
C43   H7    S    
C47   C50   S    
C20   C29   A    
C2    C45   A    
C14   H1    S    
C16   O13   A    
C8    H15   S    
C31   C44   S    
C51   C52   A    
C24   C25   A    
N1    N2    A    
C5    C18   A    
C25   C26   A    
C1    C19   S    
C40   H4    S    
C20   H18   S    
C15   Cl2   S    
C37   C38   A    
C4    O12   A    
C22   C43   S    
C10   C19   A    
C39   H2    S    
C50   C51   A    
C48   H11   S    
C12   C35   A    
C9    C11   A    
C4    O11   A    
C20   C33   A    
C28   O16   A    
C18   H3    S    
C17   H14   S    
C49   H13   S    
C47   O7    D    
C6    C40   S    
C49   O9    D    
C41   O2    D    
C52   C53   A    
C9    C10   A    
C28   O15   A    
C11   C17   A    
C27   C32   A    
N3    N4    A    
C2    C53   A    
O10   Zn2   S    
C40   O17   D    
C21   Cl3   S    
C6    C7    A    
C25   C27   A    
O15   Zn1   S    
C32   N5    A    
C43   O4    D    
C12   C39   A    
C44   O5    D    
C34   N1    A    
C11   C13   A    
C30   C31   A    
C45   C50   A    
C49   C53   S    
N5    Zn1   S    
C22   C24   A    
C7    C41   S    
C38   C46   S    
C24   H20   S    
C48   C52   S    
O16   Zn2   S    
C1    O10   A    
C2    C23   S    
C32   C42   S    
C14   C15   A    
C23   N2    A    
O13   Zn1   S    
C42   H6    S    
