data_mof_unit_2002.cif
_audit_creation_date              2012-12-10T17:31:25-0500
_audit_creation_method            fapswitch 2.2
_symmetry_space_group_name_H-M    P1
_symmetry_Int_Tables_number       1
_space_group_crystal_system       triclinic
_cell_length_a                    19.041829
_cell_length_b                    18.404587
_cell_length_c                    12.346917
_cell_angle_alpha                 89.999891
_cell_angle_beta                  129.120404
_cell_angle_gamma                 90.001061
_cell_volume                      3357.03001291

loop_
_atom_site_label
_atom_site_type_symbol
_atom_type_description
_atom_site_fract_x
_atom_site_fract_y
_atom_site_fract_z
_atom_type_partial_charge
C1    C     C_R   0.611432 0.897515 0.651904 0.783611
C2    C     C_R   0.611446 0.102476 0.651921 0.783590
C3    C     C_R   0.111452 0.397528 0.651931 0.783544
C4    C     C_R   0.111453 0.602471 0.651931 0.783542
C5    C     C_R   0.237310 0.782300 0.028787 0.034256
C6    C     C_R   0.237309 0.217700 0.028795 0.034248
C7    C     C_R   0.737317 0.282287 0.028806 0.034257
C8    C     C_R   0.737321 0.717735 0.028837 0.034237
C9    C     C_R   0.657439 0.278483 0.015558 0.149387
C10   C     C_R   0.657510 0.721653 0.015770 0.149403
C11   C     C_R   0.157392 0.778559 0.015442 0.149410
C12   C     C_R   0.157408 0.221459 0.015490 0.149428
C13   C     C_R   0.580967 0.243752 0.898824 -0.236395
C14   C     C_R   0.581033 0.756398 0.899074 -0.236389
C15   C     C_R   0.080924 0.743825 0.898699 -0.236376
C16   C     C_R   0.080943 0.256199 0.898764 -0.236400
C17   C     C_R   0.584649 0.209205 0.802881 -0.208700
C18   C     C_R   0.584659 0.790861 0.803008 -0.208705
C19   C     C_R   0.084639 0.709235 0.802822 -0.208702
C20   C     C_R   0.084647 0.290785 0.802871 -0.208702
C21   C     C_R   0.313362 0.817117 0.145714 -0.262086
C22   C     C_R   0.313356 0.182876 0.145702 -0.262117
C23   C     C_R   0.813361 0.317132 0.145692 -0.262091
C24   C     C_R   0.813356 0.682841 0.145649 -0.262072
C25   C     C_R   0.232028 0.848102 0.229820 -0.193049
C26   C     C_R   0.232060 0.151926 0.229879 -0.193053
C27   C     C_R   0.732110 0.347979 0.229995 -0.193064
C28   C     C_R   0.732231 0.652202 0.230261 -0.193128
C29   C     C_R   0.674186 0.162666 0.735635 -0.106757
C30   C     C_R   0.674133 0.837298 0.735568 -0.106764
C31   C     C_R   0.174212 0.662648 0.735669 -0.106742
C32   C     C_R   0.174202 0.337346 0.735666 -0.106751
C33   C     C_R   0.684317 0.999994 0.286193 -0.296278
C34   C     C_R   0.184316 0.499998 0.286193 -0.296275
C35   C     C_R   0.343714 0.000001 0.627478 0.067177
C36   C     C_R   0.843714 0.500002 0.627478 0.067114
C37   C     C_R   0.309430 0.000000 0.699248 -0.250431
C38   C     C_R   0.809430 0.500004 0.699248 -0.250451
C39   C     C_R   0.384056 0.098708 0.342233 0.806585
C40   C     C_R   0.384052 0.901294 0.342230 0.806579
C41   C     C_R   0.884069 0.598720 0.342253 0.806638
C42   C     C_R   0.884060 0.401287 0.342241 0.806632
C43   C     C_R   0.368119 0.999999 0.844850 -0.193640
C44   C     C_R   0.868119 0.500003 0.844850 -0.193668
C45   C     C_R   0.462615 0.999998 0.921302 -0.009770
C46   C     C_R   0.962615 0.500001 0.921302 -0.009761
C47   C     C_R   0.494688 0.999998 0.842842 0.283949
C48   C     C_R   0.994688 0.500000 0.842842 0.283989
C49   C     C_R   0.526366 0.999997 0.072013 -0.041395
C50   C     C_R   0.026366 0.500000 0.072013 -0.041357
C51   C     C_R   0.620242 0.999995 0.140025 0.174720
C52   C     C_R   0.120242 0.499999 0.140025 0.174744
C53   C     C_R   0.649988 0.999994 0.062121 -0.271969
C54   C     C_R   0.149988 0.499999 0.062121 -0.271993
C55   C     C_R   0.588852 0.999997 0.917400 -0.170186
C56   C     C_R   0.088852 0.500000 0.917400 -0.170195
C57   C     C_R   0.501783 1.000000 0.159556 0.012883
C58   C     C_R   0.001783 0.500001 0.159556 0.012867
C59   C     C_R   0.655781 0.999997 0.365668 0.068524
C60   C     C_R   0.155781 0.499998 0.365669 0.068564
C61   C     C_R   0.655654 0.310651 0.118364 0.189793
C62   C     C_R   0.655799 0.689590 0.118720 0.189843
C63   C     C_R   0.155562 0.810798 0.118151 0.189776
C64   C     C_R   0.155598 0.189238 0.118232 0.189797
C65   C     C_R   0.309815 0.852520 0.241528 -0.096606
C66   C     C_R   0.309824 0.147485 0.241541 -0.096616
C67   C     C_R   0.809844 0.352488 0.241573 -0.096656
C68   C     C_R   0.809883 0.647552 0.241632 -0.096675
C69   C     C_R   0.748358 0.172714 0.738436 -0.188197
C70   C     C_R   0.748249 0.827184 0.738249 -0.188226
C71   C     C_R   0.248410 0.672668 0.738520 -0.188150
C72   C     C_R   0.248384 0.327306 0.738487 -0.188194
C73   C     C_R   0.315332 0.722604 0.828993 -0.151718
C74   C     C_R   0.315291 0.277353 0.828929 -0.151661
C75   C     C_R   0.815270 0.222663 0.828884 -0.151661
C76   C     C_R   0.815133 0.777209 0.828644 -0.151676
C77   C     C_R   0.312504 0.759818 0.924088 -0.176298
C78   C     C_R   0.312469 0.240144 0.924032 -0.176277
C79   C     C_R   0.812456 0.259864 0.924001 -0.176264
C80   C     C_R   0.812352 0.740044 0.923825 -0.176264
C81   C     C_R   0.739582 0.249889 0.926454 0.094105
C82   C     C_R   0.739536 0.750083 0.926400 0.094104
C83   C     C_R   0.239601 0.749873 0.926483 0.094097
C84   C     C_R   0.239588 0.250117 0.926472 0.094101
C85   C     C_R   0.665553 0.206497 0.821202 0.083094
C86   C     C_R   0.665522 0.793502 0.821200 0.083084
C87   C     C_R   0.165566 0.706494 0.821206 0.083105
C88   C     C_R   0.165560 0.293509 0.821219 0.083111
Cu1   Cu    Cu3+1 0.526340 0.000000 0.421010 0.932104
Cu2   Cu    Cu3+1 0.026340 0.500000 0.421010 0.932114
Cu3   Cu    Cu3+1 0.473640 1.000000 0.578990 0.914148
Cu4   Cu    Cu3+1 0.973640 0.500000 0.578990 0.914161
H1    H     H_    0.229861 0.875880 0.305072 0.149963
H2    H     H_    0.229906 0.124164 0.305156 0.149977
H3    H     H_    0.729973 0.375703 0.305322 0.150013
H4    H     H_    0.730138 0.624557 0.305696 0.150064
H5    H     H_    0.721805 0.999993 0.113781 0.152871
H6    H     H_    0.221804 0.499998 0.113781 0.152869
H7    H     H_    0.756229 0.999992 0.338772 0.136747
H8    H     H_    0.256229 0.499997 0.338772 0.136740
H9    H     H_    0.431943 0.000001 0.116637 0.125791
H10   H     H_    0.931943 0.500002 0.116637 0.125767
H11   H     H_    0.297464 0.000002 0.514555 0.120527
H12   H     H_    0.797465 0.500002 0.514555 0.120576
H13   H     H_    0.337814 0.999999 0.894801 0.138132
H14   H     H_    0.837813 0.500005 0.894801 0.138120
H15   H     H_    0.236957 0.000001 0.641687 0.145363
H16   H     H_    0.736957 0.500006 0.641687 0.145369
H17   H     H_    0.618943 0.999999 0.868319 0.209063
H18   H     H_    0.118943 0.500000 0.868319 0.209050
H19   H     H_    0.517459 0.242385 0.880448 0.151920
H20   H     H_    0.517565 0.757835 0.880821 0.151942
H21   H     H_    0.017394 0.742489 0.880266 0.151893
H22   H     H_    0.017424 0.257543 0.880356 0.151909
H23   H     H_    0.377015 0.817772 0.165148 0.157281
H24   H     H_    0.376990 0.182210 0.165100 0.157303
H25   H     H_    0.876985 0.317845 0.165044 0.157310
H26   H     H_    0.876943 0.682041 0.164872 0.157337
H27   H     H_    0.755508 0.141107 0.671876 0.152019
H28   H     H_    0.755378 0.858760 0.671637 0.152048
H29   H     H_    0.255569 0.641050 0.671981 0.152009
H30   H     H_    0.255538 0.358917 0.671938 0.152010
H31   H     H_    0.367048 0.797529 0.991295 0.129352
H32   H     H_    0.366991 0.202408 0.991203 0.129313
H33   H     H_    0.866989 0.297590 0.991178 0.129290
H34   H     H_    0.866870 0.702309 0.990965 0.129264
H35   H     H_    0.371169 0.731064 0.828082 0.134003
H36   H     H_    0.371110 0.268871 0.827985 0.134023
H37   H     H_    0.871089 0.231144 0.827938 0.134027
H38   H     H_    0.870912 0.768684 0.827617 0.134039
H39   H     H_    0.522021 0.186541 0.712070 0.177316
H40   H     H_    0.522019 0.813522 0.712221 0.177363
H41   H     H_    0.022016 0.686568 0.712002 0.177284
H42   H     H_    0.022022 0.313456 0.712067 0.177316
H43   H     H_    0.705089 0.999997 0.478435 0.117564
H44   H     H_    0.205089 0.499998 0.478435 0.117545
N1    N     N_R   0.566260 0.000000 0.302220 -0.177616
N2    N     N_R   0.066260 0.500000 0.302220 -0.177611
N3    N     N_R   0.434410 1.000000 0.697680 -0.206582
N4    N     N_R   0.934410 0.500000 0.697680 -0.206572
O1    O     O_R   0.608610 0.924520 0.551740 -0.578808
O2    O     O_R   0.608610 0.075480 0.551740 -0.578784
O3    O     O_R   0.108610 0.424520 0.551740 -0.578786
O4    O     O_R   0.108610 0.575480 0.551740 -0.578784
O5    O     O_R   0.564110 0.924510 0.685150 -0.601678
O6    O     O_R   0.564110 0.075490 0.685150 -0.601649
O7    O     O_R   0.064110 0.424510 0.685150 -0.601661
O8    O     O_R   0.064110 0.575490 0.685150 -0.601651
O9    O     O_R   0.435880 0.075470 0.314850 -0.583295
O10   O     O_R   0.435880 0.924530 0.314850 -0.583301
O11   O     O_R   0.935880 0.575470 0.314850 -0.583329
O12   O     O_R   0.935880 0.424530 0.314850 -0.583301
O13   O     O_R   0.391380 0.075460 0.448260 -0.595388
O14   O     O_R   0.391380 0.924540 0.448260 -0.595384
O15   O     O_R   0.891380 0.575460 0.448260 -0.595402
O16   O     O_R   0.891380 0.424540 0.448260 -0.595373
C89   C     C_3   0.573031 0.307502 0.109766 -0.906365
H45   H     H_    0.515882 0.336176 0.014443 0.231045
H46   H     H_    0.554132 0.250026 0.106871 0.235521
H47   H     H_    0.585071 0.333885 0.201114 0.235175
C90   C     C_3   0.573298 0.692947 0.110415 -0.906491
H48   H     H_    0.554505 0.750462 0.107448 0.235564
H49   H     H_    0.516035 0.664256 0.015242 0.231046
H50   H     H_    0.585431 0.666697 0.201919 0.235192
C91   C     C_3   0.072877 0.807763 0.109391 -0.906329
H51   H     H_    0.015773 0.836397 0.013958 0.231049
H52   H     H_    0.053932 0.750318 0.106595 0.235513
H53   H     H_    0.084858 0.834254 0.200606 0.235173
C92   C     C_3   0.072946 0.192314 0.109545 -0.906453
H54   H     H_    0.015831 0.163649 0.014182 0.231058
H55   H     H_    0.084967 0.165881 0.200829 0.235198
H56   H     H_    0.054004 0.249767 0.106679 0.235517

loop_
_geom_bond_atom_site_label_1
_geom_bond_atom_site_label_2
_ccdc_geom_bond_type
C26   H2    S    
C83   C87   A    
C3    O7    A    
C89   H45   S    
C17   H39   S    
C92   H54   S    
C14   C18   A    
C27   H3    S    
C25   C63   A    
C21   H23   S    
C21   C65   A    
C39   C66   S    
C90   H48   S    
C32   C72   A    
C42   O16   A    
C14   H20   S    
C4    O4    A    
C91   H51   S    
C39   O13   A    
C2    C29   S    
C9    C61   A    
C1    O1    A    
C28   C68   A    
C37   H15   S    
C35   H11   S    
C6    C12   A    
C12   C64   A    
Cu1   O1    S    
C62   C90   S    
Cu4   O8    S    
C59   N1    A    
Cu1   O2    S    
C6    C22   A    
C49   C57   A    
C48   C56   A    
C43   H13   S    
C45   C47   A    
C23   C67   A    
C64   C92   S    
Cu3   O13   S    
C26   C64   A    
C22   C66   A    
C9    C13   A    
C27   C61   A    
C30   C70   A    
C33   C59   A    
C11   C15   A    
C3    O3    A    
C74   H36   S    
C12   C16   A    
C44   C46   A    
C22   H24   S    
C49   C51   A    
C18   H40   S    
C34   H8    S    
C15   H21   S    
C58   H10   S    
C30   C86   A    
C78   H32   S    
C60   H44   S    
C29   C85   A    
Cu2   O3    S    
C35   N3    A    
C58   N2    A    
C31   C71   A    
C79   H33   S    
C91   H52   S    
C55   H17   S    
Cu4   O7    S    
C34   C60   A    
C92   H55   S    
C40   O14   A    
C10   C62   A    
C76   H38   S    
C17   C85   A    
C56   H18   S    
C90   H49   S    
C52   C54   A    
C41   C68   S    
C29   C69   A    
C53   C55   A    
Cu2   Cu4   S    
C46   C48   A    
Cu1   O9    S    
C6    C84   A    
C28   C62   A    
C48   N4    A    
C57   N1    A    
C26   C66   A    
C76   C80   A    
C31   C87   A    
Cu3   O14   S    
C72   C74   A    
C10   C14   A    
C70   H28   S    
C79   C81   A    
C53   H5    S    
C73   H35   S    
C69   H27   S    
C33   H7    S    
C50   C58   A    
Cu2   N2    S    
C15   C19   A    
C5    C83   A    
C38   C44   A    
C77   H31   S    
C61   C89   S    
C43   C45   A    
C50   C52   A    
C45   C49   A    
C25   H1    S    
C16   C20   A    
C40   O10   A    
Cu4   O16   S    
C18   C86   A    
C36   N4    A    
Cu3   N3    S    
C19   H41   S    
Cu2   O12   S    
Cu1   O10   S    
C7    C81   A    
C89   H47   S    
Cu1   N1    S    
C40   C65   S    
C70   C76   A    
C42   C67   S    
C2    O2    A    
C92   H56   S    
C8    C82   A    
C37   C43   A    
C32   C88   A    
C33   C51   A    
C1    O5    A    
C47   N3    A    
Cu4   N4    S    
Cu3   O5    S    
C90   H50   S    
C42   O12   A    
C35   C37   A    
C47   C55   A    
C7    C9    A    
C46   C50   A    
C73   C77   A    
C72   H30   S    
C24   H26   S    
C71   H29   S    
C8    C10   A    
C84   C88   A    
Cu2   O11   S    
C16   H22   S    
C23   H25   S    
C54   C56   A    
C5    C11   A    
C91   H53   S    
C41   O11   A    
C44   H14   S    
C2    O6    A    
C57   H9    S    
C39   O9    A    
C34   C52   A    
C13   C17   A    
C28   H4    S    
C20   H42   S    
C36   C38   A    
C19   C87   A    
C13   H19   S    
C82   C86   A    
C36   H12   S    
C80   H34   S    
C7    C23   A    
C20   C88   A    
C59   H43   S    
C1    C30   S    
C8    C24   A    
C80   C82   A    
C69   C75   A    
Cu4   O15   S    
C38   H16   S    
C3    C32   S    
C81   C85   A    
C4    C31   S    
C27   C67   A    
C24   C68   A    
C78   C84   A    
C63   C91   S    
C5    C21   A    
C89   H46   S    
Cu1   Cu3   S    
C74   C78   A    
C71   C73   A    
C25   C65   A    
C77   C83   A    
C54   H6    S    
C51   C53   A    
C11   C63   A    
C75   C79   A    
Cu3   O6    S    
Cu2   O4    S    
C75   H37   S    
C60   N2    A    
C41   O15   A    
C4    O8    A    
