data_mof_unit_642.cif
_audit_creation_date              2012-12-10T20:44:48-0500
_audit_creation_method            fapswitch 2.2
_symmetry_space_group_name_H-M    P1
_symmetry_Int_Tables_number       1
_space_group_crystal_system       triclinic
_cell_length_a                    9.874291
_cell_length_b                    10.807565
_cell_length_c                    16.711952
_cell_angle_alpha                 88.198712
_cell_angle_beta                  94.722927
_cell_angle_gamma                 90.859473
_cell_volume                      1776.37820005

loop_
_atom_site_label
_atom_site_type_symbol
_atom_type_description
_atom_site_fract_x
_atom_site_fract_y
_atom_site_fract_z
_atom_type_partial_charge
C1    C     C_R   0.498190 0.260226 0.497278 0.910776
C2    C     C_R   0.494754 0.127887 0.498905 -0.285778
C3    C     C_R   0.373636 0.060696 0.510545 0.316338
C4    C     C_R   0.517237 0.511525 0.653182 0.965962
C5    C     C_R   0.378857 0.932846 0.523683 0.392714
C6    C     C_R   0.500524 0.871486 0.511666 -0.228184
C7    C     C_R   0.619797 0.939703 0.504096 -0.180263
C8    C     C_3   0.721805 0.933140 0.441995 0.871699
C9    C     C_3   0.713831 0.073855 0.433435 0.264282
C10   C     C_R   0.073405 0.398363 0.527892 0.037803
C11   C     C_R   0.068322 0.589061 0.459004 -0.210957
C12   C     C_R   0.645932 0.548838 0.787494 0.357472
C13   C     C_R   0.921989 0.584522 0.453841 0.545581
C14   C     C_R   0.931729 0.399775 0.529652 -0.016588
C15   C     C_3   0.940489 0.338334 0.611750 0.718248
C16   C     C_R   0.500697 0.739831 0.502973 0.937443
C17   C     C_3   0.093908 0.329610 0.606949 0.180467
C18   C     C_R   0.481643 0.499689 0.346419 0.999189
C19   C     C_R   0.522456 0.541035 0.739211 -0.402933
C20   C     C_R   0.401021 0.569736 0.773732 0.324445
C21   C     C_R   0.397863 0.566162 0.857227 0.321043
C22   C     C_R   0.519887 0.548606 0.905673 0.067155
C23   C     C_R   0.536496 0.397759 0.139212 0.281542
C24   C     C_R   0.644453 0.547151 0.871723 0.272433
C25   C     C_3   0.789125 0.407570 0.247986 -0.140351
C26   C     C_3   0.880802 0.869108 0.550404 -0.223399
C27   C     C_3   0.918874 0.148207 0.394568 -0.235656
C28   C     C_3   0.903158 0.695696 0.331796 -0.255152
C29   C     C_3   0.793734 0.690688 0.742055 -0.306559
C30   C     C_3   0.315339 0.738739 0.257605 -0.287580
C31   C     C_3   0.181921 0.496769 0.877296 -0.097462
C32   C     C_3   0.284419 0.733074 0.716573 -0.183117
C33   C     C_R   0.558025 0.416785 0.221587 0.400294
C34   C     C_R   0.428736 0.459205 0.094534 0.020599
C35   C     C_R   0.466494 0.489455 0.259462 -0.395876
C36   C     C_R   0.355216 0.546205 0.214872 0.306491
C37   C     C_R   0.335030 0.528564 0.131828 0.340958
C38   C     C_R   0.617131 0.066567 0.498123 -0.051665
H1    H     H_    0.662351 0.110745 0.375744 0.079606
H2    H     H_    0.984254 0.831522 0.562731 0.173317
H3    H     H_    0.722064 0.904184 0.328441 0.306073
H4    H     H_    0.863867 0.189117 0.339629 0.152767
H5    H     H_    0.961830 0.057621 0.380854 0.185771
H6    H     H_    0.004811 0.211488 0.411805 0.175016
H7    H     H_    0.960026 0.618194 0.308462 0.132581
H8    H     H_    0.970876 0.777855 0.341172 0.181025
H9    H     H_    0.822168 0.720876 0.284440 0.184049
H10   H     H_    0.944018 0.497132 0.664484 0.356687
H11   H     H_    0.779416 0.236096 0.618893 0.372059
H12   H     H_    0.122005 0.662501 0.429009 0.194871
H13   H     H_    0.178623 0.342423 0.714078 0.330088
H14   H     H_    0.586558 0.303428 0.048564 0.354219
H15   H     H_    0.841459 0.532414 0.890794 0.369126
H16   H     H_    0.891245 0.702859 0.714035 0.174409
H17   H     H_    0.804922 0.738038 0.800475 0.176672
H18   H     H_    0.712958 0.735592 0.701135 0.139933
H19   H     H_    0.326872 0.781060 0.196913 0.173912
H20   H     H_    0.413697 0.743086 0.295099 0.187782
H21   H     H_    0.241593 0.795045 0.286894 0.180532
H22   H     H_    0.109808 0.496874 0.924788 0.198302
H23   H     H_    0.131271 0.234016 0.601553 0.171926
H24   H     H_    0.227411 0.402799 0.878947 0.113731
H25   H     H_    0.121907 0.514625 0.819092 0.208681
H26   H     H_    0.167536 0.623959 0.118556 0.366790
H27   H     H_    0.373192 0.767213 0.684879 0.146995
H28   H     H_    0.282360 0.778841 0.775190 0.158875
H29   H     H_    0.190556 0.759728 0.679422 0.186113
H30   H     H_    0.240708 0.157606 0.448308 0.336007
H31   H     H_    0.783821 0.505254 0.224427 0.133962
H32   H     H_    0.834312 0.349114 0.203955 0.200926
H33   H     H_    0.859000 0.406793 0.303456 0.144675
H34   H     H_    0.196039 0.922583 0.559799 0.362567
H35   H     H_    0.810477 0.798226 0.573499 0.156224
H36   H     H_    0.875882 0.956905 0.582841 0.203590
N1    N     N_2   0.520248 0.534994 0.989640 -0.056380
N2    N     N_2   0.425541 0.467443 0.010749 -0.091316
N3    N     N_R   0.142860 0.499130 0.500540 -0.090303
N4    N     N_R   0.857210 0.499170 0.500530 -0.164318
O1    O     O_R   0.614690 0.316790 0.499990 -0.592946
O2    O     O_3   0.263504 0.866140 0.540521 -0.767483
O3    O     O_3   0.855296 0.889576 0.466640 -0.569025
O4    O     O_3   0.666605 0.875388 0.372447 -0.793437
O5    O     O_3   0.835675 0.135970 0.459174 -0.534340
O6    O     O_3   0.841926 0.663297 0.403301 -0.511003
O7    O     O_3   0.903332 0.413621 0.673029 -0.692425
O8    O     O_3   0.877180 0.221547 0.613738 -0.742435
O9    O     O_3   0.169295 0.397311 0.665284 -0.695276
O10   O     O_3   0.623033 0.320086 0.104211 -0.727557
O11   O     O_3   0.762154 0.541916 0.922579 -0.722493
O12   O     O_R   0.385350 0.316760 0.500000 -0.611302
O13   O     O_3   0.767235 0.562844 0.752992 -0.544060
O14   O     O_3   0.264393 0.616329 0.252577 -0.606305
O15   O     O_3   0.279511 0.591950 0.892610 -0.554619
O16   O     O_3   0.229081 0.582313 0.084387 -0.709016
O17   O     O_3   0.285237 0.603139 0.726364 -0.525857
O18   O     O_3   0.247927 0.114948 0.501873 -0.782709
O19   O     O_R   0.627460 0.498860 0.616130 -0.577449
O20   O     O_R   0.398120 0.498820 0.616130 -0.512738
O21   O     O_R   0.614650 0.683240 0.500000 -0.585106
O22   O     O_R   0.385310 0.683210 0.500010 -0.571774
O23   O     O_R   0.601880 0.501180 0.383870 -0.551542
O24   O     O_R   0.372540 0.501140 0.383870 -0.599911
O25   O     O_3   0.662497 0.356772 0.267006 -0.587822
Zn1   Zn    Zn3+2 0.653130 0.500020 0.499990 1.040960
Zn2   Zn    Zn3+2 0.346870 0.499980 0.500010 1.028711

loop_
_geom_bond_atom_site_label_1
_geom_bond_atom_site_label_2
_ccdc_geom_bond_type
C28   H9    S    
C1    O12   A    
C4    O20   A    
C28   O6    S    
C34   C37   A    
C12   O13   S    
C35   C36   A    
C24   O11   S    
C7    C8    S    
C13   O6    S    
C28   H8    S    
O22   Zn2   S    
H30   O18   S    
O20   Zn2   S    
C8    O4    S    
C36   C37   A    
C5    C6    A    
C33   C35   A    
C29   H16   S    
C10   C17   S    
C30   H19   S    
C9    H1    S    
C26   H35   S    
O24   Zn2   S    
C1    C2    S    
C18   O24   A    
C11   N3    A    
C17   H23   S    
C4    C19   S    
C27   H6    S    
C19   C20   A    
C8    C9    S    
C23   C33   A    
C3    O18   S    
C25   H33   S    
C18   C35   S    
C15   O7    S    
C36   O14   S    
O21   Zn1   S    
C33   O25   S    
C4    O19   A    
C31   H24   S    
C22   N1    S    
C10   N3    A    
C28   H7    S    
N4    Zn1   S    
C8    O3    S    
C31   H25   S    
H14   O10   S    
C30   O14   S    
C10   C14   A    
H13   O9    S    
C16   O22   A    
C29   H17   S    
C31   O15   S    
C18   O23   A    
C31   H22   S    
N1    N2    D    
C2    C38   A    
C14   C15   S    
C23   C34   A    
C30   H21   S    
C5    O2    S    
C9    O5    S    
C32   H29   S    
C20   O17   S    
O23   Zn1   S    
C23   O10   S    
C15   O8    S    
H15   O11   S    
C1    O1    A    
C22   C24   A    
O1    Zn1   S    
C25   H31   S    
C29   O13   S    
C32   H28   S    
C15   C17   S    
C13   N4    A    
C17   O9    S    
H11   O8    S    
C25   O25   S    
O12   Zn2   S    
C3    C5    A    
C16   O21   A    
C6    C7    A    
C29   H18   S    
C26   O3    S    
C12   C24   A    
C27   O5    S    
C2    C3    A    
H26   O16   S    
H34   O2    S    
C11   H12   S    
C11   C13   A    
C27   H4    S    
C26   H2    S    
C21   O15   S    
H3    O4    S    
C30   H20   S    
C12   C19   A    
N3    Zn2   S    
C9    C38   S    
C26   H36   S    
C7    C38   A    
C37   O16   S    
C14   N4    A    
O19   Zn1   S    
C6    C16   S    
C27   H5    S    
C32   O17   S    
C20   C21   A    
H10   O7    S    
C25   H32   S    
C21   C22   A    
C34   N2    S    
C32   H27   S    
