data_mof_unit_1494.cif
_audit_creation_date              2012-12-10T18:42:58-0500
_audit_creation_method            fapswitch 2.2
_symmetry_space_group_name_H-M    P1
_symmetry_Int_Tables_number       1
_space_group_crystal_system       triclinic
_cell_length_a                    18.112347
_cell_length_b                    18.066288
_cell_length_c                    18.067486
_cell_angle_alpha                 119.879005
_cell_angle_beta                  89.99409
_cell_angle_gamma                 59.942798
_cell_volume                      4184.28485385

loop_
_atom_site_label
_atom_site_type_symbol
_atom_type_description
_atom_site_fract_x
_atom_site_fract_y
_atom_site_fract_z
_atom_type_partial_charge
C1    C     C_R   0.891304 0.216887 0.608611 0.913955
C2    C     C_3   0.551163 0.897266 0.948785 -0.172263
C3    C     C_3   0.442731 0.033813 0.073148 0.592752
C4    C     C_3   0.557274 0.966185 0.926849 0.592770
C5    C     C_3   0.996162 0.418328 0.447528 0.439223
C6    C     C_3   0.003812 0.581699 0.552485 0.439314
C7    C     C_3   0.083164 0.411068 0.459593 0.411781
C8    C     C_3   0.916799 0.588965 0.540410 0.411942
C9    C     C_3   0.050465 0.501093 0.448699 -0.311435
C10   C     C_3   0.949515 0.498926 0.551300 -0.311433
C11   C     C_3   0.962528 0.508437 0.436874 -0.078586
C12   C     C_R   0.108696 0.783113 0.391389 0.913974
C13   C     C_3   0.037449 0.491574 0.563120 -0.078636
C14   C     C_3   0.920766 0.033693 0.486230 0.468466
C15   C     C_3   0.079234 0.966307 0.513770 0.468465
C16   C     C_R   0.608500 0.783012 0.891356 0.860954
C17   C     C_R   0.391500 0.216988 0.108643 0.860946
C18   C     C_3   0.960057 0.965344 0.521706 0.468764
C19   C     C_3   0.039943 0.034656 0.478294 0.468757
C20   C     C_3   0.051665 0.897289 0.447874 -0.224659
C21   C     C_3   0.948335 0.102711 0.552126 -0.224645
C22   C     C_3   0.012105 0.965967 0.411178 -0.455618
C23   C     C_3   0.554403 0.429353 0.410971 -0.455467
C24   C     C_3   0.987894 0.034034 0.588822 -0.455626
C25   C     C_3   0.971379 0.443752 0.996450 0.507772
C26   C     C_3   0.028621 0.556248 0.003550 0.507771
C27   C     C_3   0.950867 0.542952 0.085234 -0.521238
C28   C     C_3   0.049132 0.457047 0.914766 -0.521244
C29   C     C_3   0.051403 0.500594 0.051317 -0.215386
C30   C     C_3   0.948597 0.499406 0.948683 -0.215380
C31   C     C_3   0.070557 0.402214 0.963571 0.489622
C32   C     C_3   0.929443 0.597786 0.036429 0.489621
C33   C     C_3   0.588426 0.430202 0.984653 -0.357023
C34   C     C_3   0.445597 0.570647 0.589029 -0.455461
C35   C     C_3   0.411574 0.569798 0.015347 -0.357022
C36   C     C_3   0.519692 0.403414 0.956927 0.068947
C37   C     C_3   0.480308 0.596586 0.043073 0.068945
C38   C     C_3   0.448116 0.499845 0.050600 -0.176516
C39   C     C_3   0.551883 0.500154 0.949399 -0.176517
C40   C     C_R   0.608594 0.500062 0.891764 0.863601
C41   C     C_R   0.391406 0.499938 0.108236 0.863602
C42   C     C_3   0.515657 0.527220 0.077964 0.586245
C43   C     C_3   0.484343 0.472779 0.922036 0.586246
C44   C     C_R   0.891821 0.499615 0.608445 0.915803
C45   C     C_3   0.446669 0.965130 0.975401 -0.358046
C46   C     C_R   0.108175 0.500387 0.391555 0.915796
C47   C     C_R   0.891142 0.500186 0.891964 0.879597
C48   C     C_R   0.108857 0.499814 0.108036 0.879613
C49   C     C_R   0.608416 0.499791 0.608534 0.931033
C50   C     C_R   0.391584 0.500209 0.391466 0.931016
C51   C     C_3   0.551164 0.526336 0.482989 0.463779
C52   C     C_3   0.448836 0.473664 0.517010 0.463788
C53   C     C_3   0.447472 0.595519 0.518889 0.466238
C54   C     C_3   0.552528 0.404481 0.481111 0.466239
C55   C     C_3   0.449158 0.499893 0.448099 -0.225781
C56   C     C_3   0.553334 0.034869 0.024596 -0.358050
C57   C     C_3   0.550842 0.500107 0.551901 -0.225788
C58   C     C_3   0.393574 0.769155 0.609588 -0.253026
C59   C     C_3   0.606426 0.230845 0.390411 -0.253035
C60   C     C_3   0.846113 0.998153 0.616405 -0.286015
C61   C     C_3   0.153884 0.001854 0.383597 -0.285989
C62   C     C_3   0.832127 0.997350 0.404275 -0.274866
C63   C     C_3   0.167873 0.002651 0.595724 -0.274878
C64   C     C_3   0.958468 0.356245 0.048659 -0.296220
C65   C     C_3   0.041531 0.643756 0.951342 -0.296220
C66   C     C_3   0.154130 0.228002 0.844974 -0.329554
C67   C     C_3   0.453758 0.034305 0.953268 0.042333
C68   C     C_3   0.845870 0.771997 0.155027 -0.329546
C69   C     C_3   0.540463 0.294339 0.911077 -0.378808
C70   C     C_3   0.614977 0.215926 0.819118 -0.853244
C71   C     C_3   0.459537 0.705661 0.088923 -0.378802
C72   C     C_3   0.385022 0.784073 0.180882 -0.853250
C73   C     C_3   0.608034 0.545682 0.162942 -0.325683
C74   C     C_3   0.391966 0.454317 0.837057 -0.325688
C75   C     C_3   0.603833 0.560021 0.395851 -0.268943
C76   C     C_3   0.396170 0.439977 0.604148 -0.268989
C77   C     C_3   0.398878 0.076896 0.902891 -0.350106
C78   C     C_3   0.546247 0.965694 0.046728 0.042324
C79   C     C_3   0.419338 0.988745 0.807183 -0.844507
C80   C     C_3   0.601131 0.923103 0.097104 -0.350096
C81   C     C_3   0.580667 0.011254 0.192814 -0.844487
C82   C     C_3   0.367285 0.003719 0.145324 -0.307374
C83   C     C_3   0.632750 0.996255 0.854674 -0.307451
C84   C     C_3   0.186026 0.248593 0.431712 -0.276642
C85   C     C_3   0.813810 0.751467 0.568427 -0.278355
C86   C     C_3   0.039314 0.269618 0.306204 -0.263484
C87   C     C_3   0.960765 0.730318 0.693820 -0.264538
C88   C     C_3   0.924294 0.516780 0.363634 -0.370181
C89   C     C_3   0.448840 0.102733 0.051212 -0.172263
C90   C     C_3   0.837245 0.522442 0.369408 -0.803129
C91   C     C_3   0.075807 0.483024 0.636236 -0.370220
C92   C     C_3   0.162831 0.477414 0.630463 -0.802974
H1    H     H_    0.022970 0.936220 0.338788 0.188940
H2    H     H_    0.595175 0.065321 0.045989 0.173194
H3    H     H_    0.089213 0.412299 0.629011 0.184221
H4    H     H_    0.463900 0.745756 0.605827 0.183417
H5    H     H_    0.358866 0.785828 0.672166 0.157392
H6    H     H_    0.356752 0.842899 0.614135 0.175930
H7    H     H_    0.641135 0.214171 0.327833 0.157394
H8    H     H_    0.536101 0.254244 0.394172 0.183410
H9    H     H_    0.643249 0.157101 0.385864 0.175932
H10   H     H_    0.795210 0.063536 0.612711 0.194006
H11   H     H_    0.865768 0.028201 0.677456 0.167277
H12   H     H_    0.813450 0.963038 0.623807 0.169357
H13   H     H_    0.977030 0.063781 0.661212 0.188940
H14   H     H_    0.134229 0.971804 0.322546 0.167276
H15   H     H_    0.204790 0.936471 0.387290 0.193994
H16   H     H_    0.186542 0.036973 0.376195 0.169355
H17   H     H_    0.857378 0.928954 0.407215 0.171598
H18   H     H_    0.871516 0.972215 0.339367 0.160971
H19   H     H_    0.761150 0.028932 0.405869 0.175658
H20   H     H_    0.128482 0.027789 0.660633 0.160973
H21   H     H_    0.142625 0.071045 0.592781 0.171585
H22   H     H_    0.238849 0.971068 0.594131 0.175659
H23   H     H_    0.916176 0.426226 0.119278 0.155950
H24   H     H_    0.913022 0.577569 0.154918 0.168342
H25   H     H_    0.031434 0.316445 0.041758 0.199406
H26   H     H_    0.940975 0.300834 0.034446 0.178651
H27   H     H_    0.968565 0.683557 0.958244 0.199409
H28   H     H_    0.083823 0.573775 0.880722 0.155941
H29   H     H_    0.059025 0.699167 0.965555 0.178655
H30   H     H_    0.174447 0.238021 0.794384 0.158295
H31   H     H_    0.090629 0.232577 0.843408 0.196272
H32   H     H_    0.207947 0.148333 0.825019 0.182116
H33   H     H_    0.909372 0.767421 0.156592 0.196271
H34   H     H_    0.825552 0.761980 0.205616 0.158303
H35   H     H_    0.086978 0.422431 0.845082 0.168336
H36   H     H_    0.792054 0.851666 0.174981 0.182114
H37   H     H_    0.593666 0.239539 0.772544 0.293243
H38   H     H_    0.678077 0.210364 0.826670 0.254196
H39   H     H_    0.629238 0.137542 0.788775 0.224162
H40   H     H_    0.562490 0.267175 0.955323 0.212605
H41   H     H_    0.478230 0.298204 0.902435 0.184630
H42   H     H_    0.321922 0.789635 0.173329 0.254191
H43   H     H_    0.406333 0.760460 0.227456 0.293248
H44   H     H_    0.370761 0.862457 0.211225 0.224157
H45   H     H_    0.521769 0.701796 0.097566 0.184634
H46   H     H_    0.660937 0.373721 0.970845 0.178309
H47   H     H_    0.437510 0.732826 0.044678 0.212600
H48   H     H_    0.619460 0.582009 0.133591 0.161983
H49   H     H_    0.664457 0.461414 0.125442 0.169725
H50   H     H_    0.608110 0.584742 0.233573 0.179519
H51   H     H_    0.335543 0.538585 0.874558 0.169729
H52   H     H_    0.380540 0.417990 0.866409 0.161981
H53   H     H_    0.391890 0.415257 0.766427 0.179512
H54   H     H_    0.533393 0.610352 0.399438 0.198374
H55   H     H_    0.639721 0.480005 0.332319 0.167725
H56   H     H_    0.639487 0.594358 0.393645 0.174614
H57   H     H_    0.339063 0.626279 0.029155 0.178308
H58   H     H_    0.360279 0.519993 0.667681 0.167743
H59   H     H_    0.466610 0.389650 0.600562 0.198384
H60   H     H_    0.360521 0.405634 0.606352 0.174590
H61   H     H_    0.491892 0.940036 0.767155 0.292907
H62   H     H_    0.402250 0.938574 0.809259 0.247770
H63   H     H_    0.378313 0.022399 0.772793 0.231001
H64   H     H_    0.325695 0.125306 0.940946 0.235985
H65   H     H_    0.414363 0.127623 0.899708 0.187273
H66   H     H_    0.597746 0.061433 0.190742 0.247762
H67   H     H_    0.508113 0.059954 0.232842 0.292924
H68   H     H_    0.596838 0.372828 0.338414 0.188027
H69   H     H_    0.621696 0.977600 0.227202 0.231000
H70   H     H_    0.585655 0.872368 0.100283 0.187274
H71   H     H_    0.674313 0.874701 0.059050 0.235984
H72   H     H_    0.432074 0.926693 0.118130 0.148214
H73   H     H_    0.324802 0.994327 0.101907 0.162084
H74   H     H_    0.330219 0.032937 0.213039 0.182915
H75   H     H_    0.675199 0.005671 0.898129 0.162111
H76   H     H_    0.567970 0.073273 0.881827 0.148242
H77   H     H_    0.669871 0.967005 0.786967 0.182916
H78   H     H_    0.125043 0.250426 0.445342 0.189171
H79   H     H_    0.403163 0.627172 0.661585 0.188028
H80   H     H_    0.210944 0.262500 0.490025 0.164643
H81   H     H_    0.239321 0.168272 0.372857 0.175500
H82   H     H_    0.790243 0.736601 0.509242 0.164701
H83   H     H_    0.874377 0.750840 0.556305 0.190115
H84   H     H_    0.759473 0.831607 0.626745 0.175996
H85   H     H_    0.096606 0.273132 0.291090 0.192980
H86   H     H_    0.993856 0.290415 0.268496 0.161638
H87   H     H_    0.068286 0.187155 0.279722 0.178830
H88   H     H_    0.006157 0.709106 0.731429 0.161816
H89   H     H_    0.903178 0.727230 0.708885 0.193319
H90   H     H_    0.404826 0.934682 0.954014 0.173199
H91   H     H_    0.932207 0.812727 0.720456 0.178929
H92   H     H_    0.849449 0.451168 0.359776 0.290201
H93   H     H_    0.784299 0.591236 0.436033 0.286398
H94   H     H_    0.811700 0.529166 0.315670 0.210296
H95   H     H_    0.910996 0.587375 0.370670 0.184175
H96   H     H_    0.975411 0.447808 0.295926 0.210774
H97   H     H_    0.215745 0.408698 0.563798 0.286392
H98   H     H_    0.150581 0.548747 0.640195 0.290154
H99   H     H_    0.188447 0.470574 0.684131 0.210260
H100  H     H_    0.024726 0.551874 0.703998 0.210756
O1    O     O_3   0.750010 0.499980 0.749990 -0.518974
O2    O     O_R   0.305750 0.265450 0.132730 -0.616365
O3    O     O_R   0.867280 0.265410 0.571220 -0.592172
O4    O     O_R   0.132720 0.734590 0.428780 -0.592164
O5    O     O_R   0.571230 0.734580 0.867270 -0.662772
O6    O     O_R   0.428770 0.265420 0.132730 -0.662769
O7    O     O_R   0.694200 0.438470 0.867270 -0.644762
O8    O     O_R   0.305800 0.561530 0.132730 -0.644765
O9    O     O_R   0.867340 0.561470 0.694210 -0.656057
O10   O     O_R   0.132660 0.438530 0.305790 -0.656154
O11   O     O_R   0.867310 0.438430 0.867270 -0.616287
O12   O     O_3   0.249990 0.500020 0.250010 -0.518970
O13   O     O_R   0.132690 0.561570 0.132730 -0.616286
O14   O     O_R   0.694200 0.438520 0.571220 -0.592351
O15   O     O_R   0.305800 0.561480 0.428780 -0.592359
O16   O     O_R   0.867340 0.561440 0.867270 -0.644766
O17   O     O_R   0.132660 0.438560 0.132730 -0.644758
O18   O     O_R   0.571190 0.561530 0.694210 -0.659870
O19   O     O_R   0.428810 0.438470 0.305790 -0.659871
O20   O     O_3   0.391053 0.693341 0.532281 -0.583321
O21   O     O_3   0.608948 0.306659 0.467719 -0.583321
O22   O     O_3   0.922657 0.920109 0.537398 -0.603755
O23   O     O_R   0.571190 0.561490 0.867270 -0.636971
O24   O     O_3   0.077340 0.079894 0.462603 -0.603774
O25   O     O_3   0.833737 0.076893 0.478462 -0.582274
O26   O     O_3   0.166263 0.923107 0.521538 -0.582271
O27   O     O_3   0.939732 0.383206 0.986679 -0.586902
O28   O     O_3   0.060268 0.616794 0.013321 -0.586902
O29   O     O_3   0.146392 0.301277 0.931985 -0.600931
O30   O     O_3   0.853608 0.698723 0.068015 -0.600931
O31   O     O_3   0.524504 0.558693 0.164381 -0.605348
O32   O     O_3   0.475496 0.441306 0.835618 -0.605347
O33   O     O_3   0.606440 0.556456 0.471989 -0.600680
O34   O     O_R   0.428810 0.438510 0.132730 -0.636970
O35   O     O_3   0.393561 0.443543 0.528011 -0.600701
O36   O     O_3   0.380978 0.077685 0.154577 -0.587245
O37   O     O_3   0.619030 0.922306 0.845419 -0.587263
O38   O     O_3   0.172576 0.319588 0.411432 -0.585408
O39   O     O_3   0.827348 0.680373 0.588598 -0.585319
O40   O     O_3   0.989085 0.333365 0.399103 -0.572718
O41   O     O_3   0.010933 0.666628 0.600911 -0.572791
O42   O     O_R   0.867310 0.438490 0.571220 -0.591474
O43   O     O_R   0.132690 0.561510 0.428780 -0.591419
O44   O     O_R   0.867280 0.265380 0.694210 -0.667247
O45   O     O_R   0.132720 0.734620 0.305790 -0.667246
O46   O     O_R   0.694250 0.734550 0.867270 -0.616346
Zn1   Zn    Zn3+2 0.618190 0.587870 0.793920 0.970141
Zn2   Zn    Zn3+2 0.381810 0.412130 0.206080 0.970130
Zn3   Zn    Zn3+2 0.793940 0.412090 0.793920 0.975542
Zn4   Zn    Zn3+2 0.206060 0.587910 0.206080 0.975557
Zn5   Zn    Zn3+2 0.793970 0.587840 0.793920 0.978310
Zn6   Zn    Zn3+2 0.206030 0.412160 0.206080 0.978270
Zn7   Zn    Zn3+2 0.793940 0.412130 0.618200 1.071203
Zn8   Zn    Zn3+2 0.206060 0.587870 0.381800 1.071227

loop_
_geom_bond_atom_site_label_1
_geom_bond_atom_site_label_2
_ccdc_geom_bond_type
C83   H77   S    
C25   C31   S    
C54   O21   S    
C74   H51   S    
C1    C21   S    
C81   H67   S    
C68   H34   S    
C27   C29   S    
C11   C88   S    
C59   H7    S    
C14   C18   S    
C74   H53   S    
C56   H2    S    
C85   O39   S    
O16   Zn5   S    
C86   H86   S    
O12   Zn2   S    
C35   C43   S    
C85   H84   S    
C6    C9    S    
C7    C13   S    
C49   C57   S    
C71   H45   S    
C73   H49   S    
C92   H97   S    
C15   C19   S    
O3    Zn7   S    
C33   C39   S    
O2    Zn6   S    
O45   Zn4   S    
C6    C8    S    
C33   C42   S    
C14   C21   S    
C35   C37   S    
C38   C42   S    
C84   H78   S    
C66   O29   S    
C77   H64   S    
C87   H91   S    
C8    O39   S    
C78   C80   S    
C72   H44   S    
C76   H60   S    
C1    O44   A    
C74   O32   S    
C70   H38   S    
C33   C36   S    
C64   H26   S    
C19   O24   S    
C37   C42   S    
C61   H16   S    
C60   O22   S    
O1    Zn1   S    
C58   H4    S    
C34   C52   S    
C87   H88   S    
C31   O29   S    
C63   H22   S    
C23   C51   S    
C65   H28   S    
C88   H95   S    
C62   H19   S    
C52   C54   S    
C58   H6    S    
C48   O13   A    
C51   O33   S    
C34   C57   S    
C66   H30   S    
C14   O25   S    
C19   C22   S    
C51   C57   S    
C61   O24   S    
C65   H29   S    
C60   H11   S    
C2    C16   S    
C68   H36   S    
O43   Zn8   S    
C18   C20   S    
C56   C78   S    
C52   C55   S    
O4    Zn8   S    
C50   O15   A    
C77   C79   S    
C83   H76   S    
C16   O46   A    
C9    C46   S    
C75   H54   S    
C64   H23   S    
C4    C56   S    
C76   O35   S    
C59   H8    S    
C12   O4    A    
C92   H99   S    
C17   O2    A    
C18   O22   S    
C58   H5    S    
C81   H69   S    
C41   O8    A    
C60   H10   S    
O17   Zn6   S    
O12   Zn6   S    
C92   H98   S    
C45   H90   S    
C73   H50   S    
C53   C55   S    
C2    C45   S    
C39   C43   S    
C15   C20   S    
C3    C78   S    
O34   Zn2   S    
C73   O31   S    
C29   C48   S    
C26   O28   S    
C59   H9    S    
C62   O25   S    
C30   C47   S    
C75   O33   S    
O14   Zn7   S    
C17   C89   S    
C38   C41   S    
C39   C40   S    
C5    C7    S    
C26   C32   S    
C72   H43   S    
C71   H47   S    
C90   H94   S    
C76   H59   S    
C75   H55   S    
C82   O36   S    
O46   Zn5   S    
C3    C45   S    
C70   H37   S    
C64   H25   S    
O12   Zn4   S    
C51   C53   S    
C63   H21   S    
O44   Zn3   S    
C49   O18   A    
C2    C4    S    
C80   H71   S    
C45   C67   S    
C19   C21   S    
C2    C78   S    
C44   O42   A    
C67   C77   S    
C79   H61   S    
C63   O26   S    
C8    C11   S    
C52   O35   S    
C72   H42   S    
C62   H18   S    
C76   H58   S    
C33   H46   S    
O10   Zn6   S    
C23   H68   S    
C12   C20   S    
C59   O21   S    
C85   H82   S    
C65   H27   S    
C5    O40   S    
C47   O11   A    
C17   O6    A    
O1    Zn5   S    
C49   O14   A    
C15   O26   S    
C61   H14   S    
C9    C11   S    
C80   H70   S    
O6    Zn2   S    
C26   C29   S    
C47   O16   A    
C8    C10   S    
C56   C89   S    
C90   H93   S    
C6    O41   S    
C90   H92   S    
C50   O19   A    
C37   C71   S    
C5    C11   S    
C44   O9    A    
C22   H1    S    
C18   C24   S    
O42   Zn7   S    
C25   O27   S    
O23   Zn1   S    
O13   Zn4   S    
O15   Zn8   S    
O8    Zn4   S    
C91   C92   S    
C84   O38   S    
C36   C69   S    
O7    Zn3   S    
C23   C54   S    
C82   H74   S    
C25   C30   S    
C7    C9    S    
C74   H52   S    
C41   O34   A    
C15   C24   S    
C69   H41   S    
C81   H66   S    
C3    O36   S    
C64   O27   S    
C1    O3    A    
C27   C32   S    
C63   H20   S    
O1    Zn3   S    
C28   C31   S    
C68   O30   S    
C20   C22   S    
C80   C81   S    
C84   H80   S    
C10   C13   S    
O9    Zn5   S    
C87   H89   S    
C4    C67   S    
C32   O30   S    
C28   H35   S    
C23   C55   S    
O11   Zn3   S    
C40   O7    A    
C58   O20   S    
C75   H56   S    
C25   C27   S    
C83   O37   S    
C91   H100  S    
C26   C28   S    
C50   C55   S    
C87   O41   S    
O18   Zn1   S    
C86   H87   S    
C3    C89   S    
C86   O40   S    
C46   O43   A    
C14   C22   S    
C28   C30   S    
C88   C90   S    
C69   H40   S    
C5    C10   S    
C29   C31   S    
C84   H81   S    
C27   H24   S    
C6    C13   S    
C30   C32   S    
O5    Zn1   S    
C73   H48   S    
C62   H17   S    
C83   H75   S    
C4    O37   S    
C53   O20   S    
C12   O45   A    
C10   C44   S    
C40   O23   A    
C36   C38   S    
C70   H39   S    
C85   H83   S    
C65   O28   S    
C91   H3    S    
C43   O32   S    
C66   H32   S    
C86   H85   S    
C69   C70   S    
C61   H15   S    
O12   Zn8   S    
C34   H79   S    
C79   H63   S    
C88   H96   S    
O19   Zn2   S    
C82   H72   S    
C46   O10   A    
C82   H73   S    
C71   C72   S    
C48   O17   A    
C34   C53   S    
C37   C39   S    
C21   C24   S    
C67   C89   S    
O1    Zn7   S    
C35   C38   S    
C36   C43   S    
C24   H13   S    
C35   H57   S    
C60   H12   S    
C66   H31   S    
C68   H33   S    
C7    O38   S    
C13   C91   S    
C16   O5    A    
C42   O31   S    
C77   H65   S    
C79   H62   S    
C54   C57   S    
