data_mof_unit_3572.cif
_audit_creation_date              2012-12-11T14:56:32-0500
_audit_creation_method            fapswitch 2.2
_symmetry_space_group_name_H-M    P1
_symmetry_Int_Tables_number       1
_space_group_crystal_system       triclinic
_cell_length_a                    10.566616
_cell_length_b                    10.731095
_cell_length_c                    17.110095
_cell_angle_alpha                 79.937481
_cell_angle_beta                  90.176169
_cell_angle_gamma                 119.929621
_cell_volume                      1647.47404806

loop_
_atom_site_label
_atom_site_type_symbol
_atom_type_description
_atom_site_fract_x
_atom_site_fract_y
_atom_site_fract_z
_atom_type_partial_charge
C1    C     C_R   0.222680 0.853920 0.128742 0.557063
C2    C     C_R   0.719219 0.273605 0.297401 -0.151251
C3    C     C_R   0.726406 0.270797 0.218037 -0.158452
C4    C     C_R   0.645973 0.314269 0.166404 0.035168
C5    C     C_1   0.685386 0.831677 0.201769 -0.041613
C6    C     C_1   0.703689 0.807308 0.270476 -0.051088
C7    C     C_1   0.180952 0.825553 0.211413 -0.033329
C8    C     C_1   0.151698 0.820786 0.279794 -0.030738
C9    C     C_1   0.620235 0.267505 0.775683 -0.015086
C10   C     C_1   0.634400 0.311104 0.705309 -0.003897
C11   C     C_R   0.618890 0.721954 0.801562 -0.121083
C12   C     C_R   0.635982 0.275749 0.088487 0.603558
C13   C     C_R   0.605240 0.703483 0.724377 -0.118095
C14   C     C_R   0.663043 0.825938 0.662054 -0.006685
C15   C     C_R   0.739153 0.967409 0.676716 -0.125920
C16   C     C_R   0.754543 0.989263 0.754827 -0.045054
C17   C     C_R   0.685372 0.862933 0.818077 0.010599
C18   C     C_R   0.059553 0.870429 0.796387 0.008576
C19   C     C_R   0.031872 0.859165 0.718221 -0.169028
C20   C     C_R   0.076702 0.782480 0.678487 -0.019380
C21   C     C_R   0.144113 0.707459 0.719165 0.003343
C22   C     C_R   0.167135 0.715477 0.798620 -0.118887
C23   C     C_R   0.643836 0.855694 0.124274 0.580645
C24   C     C_R   0.135319 0.804908 0.835401 0.015878
C25   C     C_R   0.711370 0.772379 0.353554 0.548765
C26   C     C_R   0.680622 0.385345 0.398800 0.551445
C27   C     C_R   0.103728 0.810853 0.359157 0.553852
C28   C     C_R   0.676041 0.801524 0.583965 0.536875
C29   C     C_R   0.675551 0.376593 0.623527 0.551036
C30   C     C_R   0.039636 0.777512 0.597030 0.541842
C31   C     C_R   0.214143 0.857199 0.903291 0.563561
C32   C     C_R   0.613219 0.221758 0.859110 0.545232
C33   C     C_R   0.645267 0.870434 0.897149 0.586534
C34   C     C_R   0.551405 0.356560 0.196135 -0.036926
C35   C     C_R   0.537100 0.350252 0.278884 -0.031293
C36   C     C_R   0.633604 0.322642 0.327624 0.035497
Cr1   Cr    Cr6+3 0.402240 0.783890 0.019450 1.059425
Cr2   Cr    Cr6+3 0.382360 0.097900 0.991800 1.083012
Cr3   Cr    Cr6+3 0.715380 0.118170 0.988700 1.049143
Cr4   Cr    Cr6+3 0.936650 0.882420 0.465510 1.065236
Cr5   Cr    Cr6+3 0.605770 0.565620 0.493360 1.072356
Cr6   Cr    Cr6+3 0.921340 0.550490 0.496380 1.060675
H1    H     H_    0.226283 0.665670 0.828667 0.178867
H2    H     H_    0.788854 0.246059 0.334263 0.155585
H3    H     H_    0.553510 0.592650 0.713529 0.167098
H4    H     H_    0.791722 0.059634 0.626800 0.176989
O1    O     O_R   0.521780 0.757110 0.108900 -0.486577
O2    O     O_R   0.513330 0.228330 0.898660 -0.487717
O3    O     O_R   0.739230 0.266130 0.888050 -0.496922
O4    O     O_R   0.712580 0.991850 0.918770 -0.527490
O5    O     O_3   0.499990 0.999980 0.999980 -0.301897
O6    O     O_R   0.083770 0.911170 0.376030 -0.480559
O7    O     O_R   0.808770 0.880340 0.383890 -0.490143
O8    O     O_R   0.584340 0.689460 0.394160 -0.496775
O9    O     O_R   0.614320 0.443940 0.423590 -0.477341
O10   O     O_R   0.805020 0.410040 0.421340 -0.525757
O11   O     O_R   0.049240 0.685450 0.403290 -0.496379
O12   O     O_R   0.275160 0.783810 0.101120 -0.496369
O13   O     O_R   0.077520 0.903010 0.551800 -0.488600
O14   O     O_R   0.802980 0.872780 0.546830 -0.515708
O15   O     O_R   0.578090 0.681300 0.569920 -0.503229
O16   O     O_R   0.608530 0.436370 0.586530 -0.503890
O17   O     O_R   0.798770 0.401880 0.597100 -0.458026
O18   O     O_R   0.043450 0.677890 0.566230 -0.509447
O19   O     O_3   0.821250 0.666180 0.485090 -0.309961
O20   O     O_R   0.237900 0.972600 0.090980 -0.497405
O21   O     O_R   0.511190 0.220540 0.061620 -0.466266
O22   O     O_R   0.736920 0.257720 0.063840 -0.525061
O23   O     O_R   0.710450 0.984050 0.081720 -0.493569
O24   O     O_R   0.524090 0.765520 0.933110 -0.492335
O25   O     O_R   0.277300 0.791600 0.938160 -0.522364
O26   O     O_R   0.240210 0.981010 0.915190 -0.481742
C37   C     C_2   0.468480 0.407134 0.141694 0.239069
H5    H     H_    0.360465 0.384699 0.161545 0.095530
O27   O     O_2   0.522128 0.478001 0.074442 -0.472278
H6    H     H_    0.976871 0.912972 0.687431 0.134878
C38   C     C_2   0.207465 0.635251 0.679577 0.281893
H7    H     H_    0.249556 0.674126 0.617173 0.139291
O28   O     O_2   0.217695 0.533490 0.717321 -0.490154
C39   C     C_2   0.423410 0.374076 0.312945 0.244211
H8    H     H_    0.404148 0.459741 0.282465 0.097278
O29   O     O_2   0.347289 0.294707 0.374556 -0.469378
H9    H     H_    0.794223 0.231126 0.197614 0.154598
H10   H     H_    0.569719 0.624904 0.848802 0.172648
C40   C     C_2   0.849955 0.142759 0.766578 0.219484
H11   H     H_    0.891734 0.166570 0.823058 0.173952
O30   O     O_2   0.892435 0.246870 0.710822 -0.474791
C41   C     C_2   0.020082 0.962572 0.832685 0.246681
H12   H     H_    0.043119 0.067077 0.797919 0.104551
O31   O     O_2   0.964507 0.923568 0.901462 -0.485985

loop_
_geom_bond_atom_site_label_1
_geom_bond_atom_site_label_2
_ccdc_geom_bond_type
Cr3   O5    S    
C29   O17   A    
Cr4   O14   S    
C30   O18   A    
C32   O2    A    
C37   H5    S    
C23   O23   A    
C19   C20   A    
Cr5   O15   S    
C26   O9    A    
C7    C8    T    
C20   C30   S    
C40   H11   S    
C12   O22   A    
C18   C24   A    
C19   H6    S    
C25   O7    A    
C18   C19   A    
C5    C6    T    
Cr1   O5    S    
C6    C25   S    
C15   C16   A    
C35   C39   S    
C34   C35   A    
Cr3   O22   S    
Cr5   O9    S    
C9    C32   S    
Cr6   O10   S    
Cr2   O20   S    
C2    H2    S    
C16   C17   A    
Cr6   O19   S    
C4    C12   S    
C9    C10   T    
Cr2   O2    S    
Cr1   O12   S    
C38   H7    S    
C28   O15   A    
C31   O25   A    
Cr4   O13   S    
C21   C22   A    
C37   O27   D    
C17   C33   S    
Cr5   O16   S    
Cr6   O11   S    
Cr2   O26   S    
C38   O28   D    
Cr5   O8    S    
C12   O21   A    
C4    C34   A    
C23   O1    A    
C40   O30   D    
C25   O8    A    
C39   O29   D    
C27   O11   A    
Cr5   O19   S    
Cr2   O5    S    
C33   O4    A    
Cr4   O6    S    
C18   C41   S    
C35   C36   A    
C22   H1    S    
C5    C23   S    
C30   O13   A    
C20   C21   A    
C1    O20   A    
Cr3   O23   S    
C41   H12   S    
C28   O14   A    
C33   O24   A    
C26   C36   S    
C31   O26   A    
Cr3   O3    S    
C41   O31   D    
Cr4   O19   S    
Cr1   O25   S    
C3    H9    S    
C16   C40   S    
C22   C24   A    
Cr1   O1    S    
C3    C4    A    
Cr6   O18   S    
C27   O6    A    
C2    C36   A    
C29   O16   A    
C11   C17   A    
C1    C7    S    
C39   H8    S    
C26   O10   A    
C11   H10   S    
Cr1   O24   S    
C2    C3    A    
C24   C31   S    
C1    O12   A    
C13   H3    S    
C11   C13   A    
C10   C29   S    
C32   O3    A    
C34   C37   S    
Cr3   O4    S    
Cr2   O21   S    
Cr4   O7    S    
C21   C38   S    
C8    C27   S    
C14   C15   A    
C15   H4    S    
C14   C28   S    
C13   C14   A    
Cr6   O17   S    
