data_mof_unit_711.cif
_audit_creation_date              2012-12-10T16:33:55-0500
_audit_creation_method            fapswitch 2.2
_symmetry_space_group_name_H-M    P1
_symmetry_Int_Tables_number       1
_space_group_crystal_system       triclinic
_cell_length_a                    27.999308
_cell_length_b                    18.619885
_cell_length_c                    17.170974
_cell_angle_alpha                 90.005721
_cell_angle_beta                  61.051241
_cell_angle_gamma                 90.012751
_cell_volume                      7833.45833081

loop_
_atom_site_label
_atom_site_type_symbol
_atom_type_description
_atom_site_fract_x
_atom_site_fract_y
_atom_site_fract_z
_atom_type_partial_charge
C1    C     C_R   0.701152 0.267188 0.676547 0.911929
C2    C     C_R   0.300229 0.735674 0.323345 0.887412
C3    C     C_R   0.298905 0.267066 0.323435 0.911785
C4    C     C_R   0.699769 0.735691 0.676671 0.885577
C5    C     C_R   0.201170 0.767225 0.676541 0.911945
C6    C     C_R   0.800228 0.235674 0.323342 0.887406
C7    C     C_R   0.798897 0.767085 0.323437 0.911809
C8    C     C_R   0.199771 0.235687 0.676671 0.885546
C9    C     C_R   0.028776 0.371254 0.556631 0.373573
C10   C     C_R   0.974403 0.623869 0.441116 0.377410
C11   C     C_R   0.971635 0.371354 0.441729 0.376178
C12   C     C_R   0.025789 0.623785 0.558125 0.377225
C13   C     C_R   0.528777 0.871254 0.556627 0.373592
C14   C     C_R   0.474404 0.123869 0.441111 0.377426
C15   C     C_R   0.471637 0.871352 0.441722 0.376168
C16   C     C_R   0.525790 0.123786 0.558123 0.377226
C17   C     C_R   0.722781 0.263275 0.952122 -0.031467
C18   C     C_R   0.275669 0.737427 0.053899 -0.032681
C19   C     C_R   0.277491 0.262586 0.047729 -0.032922
C20   C     C_R   0.724808 0.736501 0.945690 -0.032275
C21   C     C_R   0.222870 0.763494 0.952058 -0.031590
C22   C     C_R   0.775550 0.237157 0.054006 -0.031495
C23   C     C_R   0.777475 0.762643 0.047730 -0.032741
C24   C     C_R   0.224832 0.236444 0.945674 -0.032192
C25   C     C_R   0.701910 0.212206 0.020890 -0.223431
C26   C     C_R   0.296289 0.788905 0.985684 -0.154008
C27   C     C_R   0.298528 0.211736 0.978709 -0.222663
C28   C     C_R   0.703974 0.787702 0.014221 -0.145110
C29   C     C_R   0.202074 0.712337 0.020722 -0.223569
C30   C     C_R   0.796243 0.288548 0.985689 -0.153605
C31   C     C_R   0.798487 0.711756 0.978752 -0.222826
C32   C     C_R   0.203975 0.287609 0.014245 -0.144974
C33   C     C_R   0.727903 0.198990 0.071637 0.439821
C34   C     C_R   0.270204 0.802249 0.935082 0.498223
C35   C     C_R   0.272584 0.198502 0.927880 0.436971
C36   C     C_R   0.729984 0.801075 0.064929 0.496483
C37   C     C_R   0.228082 0.699145 0.071446 0.440116
C38   C     C_R   0.770176 0.301915 0.935065 0.498255
C39   C     C_R   0.772541 0.698524 0.927928 0.436987
C40   C     C_R   0.229979 0.300979 0.064963 0.496351
C41   C     C_R   0.645032 0.325215 0.947119 -0.082946
C42   C     C_R   0.346294 0.663210 0.065965 -0.080985
C43   C     C_R   0.355027 0.325008 0.052902 -0.083226
C44   C     C_R   0.654416 0.662066 0.933109 -0.094946
C45   C     C_R   0.145047 0.825269 0.947123 -0.082867
C46   C     C_R   0.846070 0.162826 0.066271 -0.081721
C47   C     C_R   0.855048 0.824991 0.052870 -0.083034
C48   C     C_R   0.154455 0.161998 0.933062 -0.095056
C49   C     C_R   0.615159 0.343138 0.901981 -0.194531
C50   C     C_R   0.380370 0.650150 0.104900 -0.198098
C51   C     C_R   0.384869 0.343078 0.098049 -0.195504
C52   C     C_R   0.619936 0.649717 0.894777 -0.191204
C53   C     C_R   0.115165 0.843154 0.901990 -0.194457
C54   C     C_R   0.880262 0.149974 0.105034 -0.198066
C55   C     C_R   0.884880 0.843065 0.098032 -0.195388
C56   C     C_R   0.119956 0.149684 0.894756 -0.191204
C57   C     C_R   0.628458 0.312119 0.820291 -0.132560
C58   C     C_R   0.372151 0.687083 0.181211 -0.276153
C59   C     C_R   0.371610 0.312065 0.179734 -0.132141
C60   C     C_R   0.627903 0.687132 0.818921 -0.154486
C61   C     C_R   0.128481 0.812143 0.820293 -0.132636
C62   C     C_R   0.872120 0.187043 0.181218 -0.276026
C63   C     C_R   0.871604 0.812072 0.179731 -0.132216
C64   C     C_R   0.127913 0.187120 0.818920 -0.154458
C65   C     C_R   0.678226 0.276979 0.773186 -0.224701
C66   C     C_R   0.324924 0.727815 0.226369 -0.223011
C67   C     C_R   0.321934 0.276682 0.226749 -0.224453
C68   C     C_R   0.675171 0.727750 0.773635 -0.245014
C69   C     C_R   0.178277 0.777069 0.773162 -0.224717
C70   C     C_R   0.824903 0.227783 0.226370 -0.222934
C71   C     C_R   0.821914 0.776723 0.226758 -0.224439
C72   C     C_R   0.175181 0.227736 0.773633 -0.245008
C73   C     C_R   0.708172 0.256897 0.818185 0.435433
C74   C     C_R   0.296931 0.751611 0.180046 0.437770
C75   C     C_R   0.292138 0.256256 0.181627 0.435308
C76   C     C_R   0.703353 0.751202 0.819804 0.437896
C77   C     C_R   0.208269 0.757088 0.818122 0.435323
C78   C     C_R   0.796883 0.251505 0.180062 0.437569
C79   C     C_R   0.792101 0.756337 0.181648 0.435247
C80   C     C_R   0.203371 0.251171 0.819797 0.437900
C81   C     C_R   0.691218 0.281191 0.905123 -0.029464
C82   C     C_R   0.307695 0.718705 0.099601 -0.027939
C83   C     C_R   0.309015 0.280643 0.094751 -0.029433
C84   C     C_R   0.692851 0.717802 0.899867 -0.027541
C85   C     C_R   0.191289 0.781352 0.905078 -0.029364
C86   C     C_R   0.807554 0.218432 0.099746 -0.028146
C87   C     C_R   0.809002 0.780687 0.094750 -0.029493
C88   C     C_R   0.192881 0.217745 0.899841 -0.027544
C89   C     C_R   0.690743 0.129460 0.536059 0.908911
C90   C     C_R   0.308840 0.870928 0.464979 0.881168
C91   C     C_R   0.309262 0.129470 0.463888 0.908232
C92   C     C_R   0.691162 0.870929 0.534983 0.883559
C93   C     C_R   0.190743 0.629460 0.536058 0.908976
C94   C     C_R   0.808840 0.370929 0.464981 0.881210
C95   C     C_R   0.809262 0.629470 0.463889 0.908261
C96   C     C_R   0.191162 0.370929 0.534982 0.883579
C97   C     C_R   0.076400 0.096658 0.931872 0.931478
C98   C     C_R   0.926373 0.899527 0.064980 0.918210
C99   C     C_R   0.923683 0.096777 0.068049 0.915511
C100  C     C_R   0.073611 0.899517 0.935041 0.916292
C101  C     C_R   0.576393 0.596670 0.931880 0.931291
C102  C     C_R   0.426363 0.399538 0.064990 0.918036
C103  C     C_R   0.423727 0.596849 0.067999 0.915161
C104  C     C_R   0.573619 0.399523 0.935032 0.916288
C105  C     C_R   0.541186 0.997928 0.524295 -0.047300
C106  C     C_R   0.459169 0.997947 0.474503 -0.047026
C107  C     C_R   0.041186 0.497928 0.524297 -0.047320
C108  C     C_R   0.959167 0.497948 0.474510 -0.047038
C109  C     C_R   0.518305 0.062799 0.516930 0.012905
C110  C     C_R   0.481220 0.931763 0.482632 0.013515
C111  C     C_R   0.482013 0.062811 0.482020 0.012161
C112  C     C_R   0.519231 0.931738 0.515826 0.011579
C113  C     C_R   0.018305 0.562799 0.516932 0.012882
C114  C     C_R   0.981218 0.431764 0.482639 0.013509
C115  C     C_R   0.982012 0.562811 0.482025 0.012156
C116  C     C_R   0.019229 0.431739 0.515830 0.011578
C117  C     C_R   0.605983 0.934837 0.555497 -0.059149
C118  C     C_R   0.395552 0.065354 0.441842 -0.062231
C119  C     C_R   0.394194 0.934870 0.443701 -0.056859
C120  C     C_R   0.604566 0.065302 0.557617 -0.061261
C121  C     C_R   0.105984 0.434837 0.555497 -0.059143
C122  C     C_R   0.895550 0.565354 0.441847 -0.062238
C123  C     C_R   0.894191 0.434872 0.443711 -0.056856
C124  C     C_R   0.104567 0.565302 0.557615 -0.061272
C125  C     C_R   0.656302 0.935688 0.557779 -0.138033
C126  C     C_R   0.344882 0.065322 0.439653 -0.157151
C127  C     C_R   0.343720 0.935707 0.441957 -0.138451
C128  C     C_R   0.655133 0.065292 0.560134 -0.157135
C129  C     C_R   0.156303 0.435688 0.557778 -0.138031
C130  C     C_R   0.844882 0.565322 0.439656 -0.157150
C131  C     C_R   0.843719 0.435708 0.441964 -0.138461
C132  C     C_R   0.155134 0.565292 0.560133 -0.157133
C133  C     C_R   0.676140 0.000473 0.571562 0.330982
C134  C     C_R   0.323815 0.000488 0.428343 0.330852
C135  C     C_R   0.176141 0.500473 0.571560 0.330978
C136  C     C_R   0.823814 0.500489 0.428346 0.330863
C137  C     C_R   0.584529 0.999440 0.544515 0.052543
C138  C     C_R   0.415704 0.999474 0.454598 0.054367
C139  C     C_R   0.084530 0.499440 0.544514 0.052525
C140  C     C_R   0.915702 0.499475 0.454607 0.054368
C141  C     C_R   0.071145 0.374060 0.579488 -0.097777
C142  C     C_R   0.930658 0.626155 0.422436 -0.099333
C143  C     C_R   0.929083 0.374143 0.419278 -0.118403
C144  C     C_R   0.069437 0.626056 0.577050 -0.099423
C145  C     C_R   0.571145 0.874059 0.579487 -0.097804
C146  C     C_R   0.430659 0.126155 0.422432 -0.099347
C147  C     C_R   0.429084 0.874140 0.419272 -0.118385
C148  C     C_R   0.569436 0.126056 0.577051 -0.099432
H1    H     H_    0.664930 0.183196 0.035645 0.215330
H2    H     H_    0.333186 0.818045 0.971111 0.205675
H3    H     H_    0.335600 0.182927 0.963815 0.215469
H4    H     H_    0.666967 0.816608 0.028951 0.209496
H5    H     H_    0.165142 0.683234 0.035410 0.215356
H6    H     H_    0.833184 0.317604 0.971056 0.205306
H7    H     H_    0.835543 0.682917 0.963885 0.215424
H8    H     H_    0.166952 0.316487 0.029002 0.209498
O1    O     O_R   0.746490 0.236330 0.638080 -0.557062
O2    O     O_R   0.253510 0.763670 0.361920 -0.551049
O3    O     O_R   0.253510 0.236330 0.361920 -0.557272
O4    O     O_R   0.746490 0.763670 0.638080 -0.550748
O5    O     O_R   0.246490 0.736330 0.638080 -0.557061
O6    O     O_R   0.753510 0.263670 0.361920 -0.551070
O7    O     O_R   0.753510 0.736330 0.361920 -0.557266
O8    O     O_R   0.246490 0.263670 0.638080 -0.550750
O9    O     O_R   0.674170 0.186160 0.516270 -0.633812
O10   O     O_R   0.325830 0.813840 0.483730 -0.638442
O11   O     O_R   0.325830 0.186160 0.483730 -0.634058
O12   O     O_R   0.674170 0.813840 0.516270 -0.635207
O13   O     O_R   0.174170 0.686160 0.516270 -0.633795
O14   O     O_R   0.825830 0.313840 0.483730 -0.638442
O15   O     O_R   0.825830 0.686160 0.483730 -0.634056
O16   O     O_R   0.174170 0.313840 0.516270 -0.635203
O17   O     O_R   0.739960 0.127620 0.525000 -0.559180
O18   O     O_R   0.260040 0.872380 0.475000 -0.558446
O19   O     O_R   0.260040 0.127620 0.475000 -0.559415
O20   O     O_R   0.739960 0.872380 0.525000 -0.558983
O21   O     O_R   0.239960 0.627620 0.525000 -0.559175
O22   O     O_R   0.760040 0.372380 0.475000 -0.558429
O23   O     O_R   0.760040 0.627620 0.475000 -0.559415
O24   O     O_R   0.239960 0.372380 0.525000 -0.558971
O25   O     O_R   0.680700 0.294870 0.629350 -0.605635
O26   O     O_R   0.319300 0.705130 0.370650 -0.594022
O27   O     O_R   0.319300 0.294870 0.370650 -0.606023
O28   O     O_R   0.680700 0.705130 0.629350 -0.589628
O29   O     O_R   0.180700 0.794870 0.629350 -0.605616
O30   O     O_R   0.819300 0.205130 0.370650 -0.593983
O31   O     O_R   0.819300 0.794870 0.370650 -0.606021
O32   O     O_R   0.180700 0.205130 0.629350 -0.589622
O33   O     O_R   0.062020 0.072840 0.007170 -0.600951
O34   O     O_R   0.937980 0.927160 0.992830 -0.600846
O35   O     O_R   0.937980 0.072840 0.992830 -0.611197
O36   O     O_R   0.062020 0.927160 0.007170 -0.601995
O37   O     O_R   0.562020 0.572840 0.007170 -0.600988
O38   O     O_R   0.437980 0.427160 0.992830 -0.600968
O39   O     O_R   0.437980 0.572840 0.992830 -0.611154
O40   O     O_R   0.562020 0.427160 0.007170 -0.601949
O41   O     O_R   0.947860 0.073950 0.109290 -0.584409
O42   O     O_R   0.052140 0.926050 0.890710 -0.591966
O43   O     O_R   0.052140 0.073950 0.890710 -0.595948
O44   O     O_R   0.947860 0.926050 0.109290 -0.591589
O45   O     O_R   0.447860 0.573950 0.109290 -0.584377
O46   O     O_R   0.552140 0.426050 0.890710 -0.591964
O47   O     O_R   0.552140 0.573950 0.890710 -0.595939
O48   O     O_R   0.447860 0.426050 0.109290 -0.591491
Zn1   Zn    Zn3+2 0.792340 0.208750 0.507670 1.208165
Zn2   Zn    Zn3+2 0.207660 0.791250 0.492330 1.190794
Zn3   Zn    Zn3+2 0.207660 0.208750 0.492330 1.210528
Zn4   Zn    Zn3+2 0.792340 0.791250 0.507670 1.190783
Zn5   Zn    Zn3+2 0.292340 0.708750 0.507670 1.208166
Zn6   Zn    Zn3+2 0.707660 0.291250 0.492330 1.190771
Zn7   Zn    Zn3+2 0.707660 0.708750 0.492330 1.210517
Zn8   Zn    Zn3+2 0.292340 0.291250 0.507670 1.190804
Zn9   Zn    Zn3+2 0.505960 0.500000 0.080520 1.159282
Zn10  Zn    Zn3+2 0.494040 0.500000 0.919480 1.136490
Zn11  Zn    Zn3+2 0.005960 0.000000 0.080520 1.159240
Zn12  Zn    Zn3+2 0.994040 0.000000 0.919480 1.136489
Cl1   Cl    Cl    0.720901 0.000214 0.617825 -0.448551
Cl2   Cl    Cl    0.278920 0.000205 0.382332 -0.449442
Cl3   Cl    Cl    0.220902 0.500214 0.617823 -0.448595
Cl4   Cl    Cl    0.778921 0.500205 0.382332 -0.449484
C149  C     C_2   0.069491 0.326838 0.650110 0.994942
O49   O     O_2   0.061148 0.262439 0.650341 -0.526581
O50   O     O_R   0.079301 0.357711 0.715369 -0.788836
H9    H     H_    0.084135 0.321767 0.754729 0.349996
C150  C     C_2   0.928729 0.687802 0.370286 1.022193
O51   O     O_2   0.919893 0.678361 0.308015 -0.615904
O52   O     O_R   0.935238 0.756973 0.395456 -0.705420
H10   H     H_    0.935582 0.795550 0.354245 0.368029
C151  C     C_2   0.930369 0.326883 0.348902 1.021397
O53   O     O_2   0.939179 0.262577 0.348104 -0.491365
O54   O     O_R   0.919637 0.357606 0.284561 -0.790506
H11   H     H_    0.913872 0.321567 0.246245 0.334847
C152  C     C_2   0.071187 0.687573 0.629564 1.022002
O55   O     O_2   0.079858 0.677972 0.691981 -0.615340
O56   O     O_R   0.064620 0.756807 0.604662 -0.705364
H12   H     H_    0.063857 0.795223 0.646381 0.368142
C153  C     C_2   0.569490 0.826836 0.650109 0.995040
O57   O     O_2   0.561148 0.762437 0.650338 -0.526583
O58   O     O_R   0.579298 0.857708 0.715371 -0.788831
H13   H     H_    0.584122 0.821765 0.754741 0.350000
C154  C     C_2   0.428730 0.187803 0.370283 1.022187
O59   O     O_2   0.419894 0.178363 0.308011 -0.615919
O60   O     O_R   0.435238 0.256973 0.395455 -0.705411
H14   H     H_    0.435582 0.295551 0.354246 0.368032
C155  C     C_2   0.430365 0.826870 0.348908 1.021413
O61   O     O_2   0.439166 0.762562 0.348129 -0.491405
O62   O     O_R   0.419635 0.857584 0.284560 -0.790541
H15   H     H_    0.413864 0.821540 0.246254 0.334758
C156  C     C_2   0.571187 0.187575 0.629563 1.022040
O63   O     O_2   0.579851 0.177976 0.691988 -0.615322
O64   O     O_R   0.564631 0.256809 0.604649 -0.705365
H16   H     H_    0.563885 0.295229 0.646350 0.368108
Cl5   Cl    Cl    0.978186 0.303202 0.603173 -0.426071
Cl6   Cl    Cl    0.028214 0.688133 0.392238 -0.433341
Cl7   Cl    Cl    0.022290 0.303458 0.394753 -0.409813
Cl8   Cl    Cl    0.971891 0.687897 0.607125 -0.433446
Cl9   Cl    Cl    0.478186 0.803202 0.603168 -0.426088
Cl10  Cl    Cl    0.528216 0.188131 0.392232 -0.433229
Cl11  Cl    Cl    0.522291 0.803455 0.394749 -0.409825
Cl12  Cl    Cl    0.471894 0.187901 0.607117 -0.433356
Cl13  Cl    Cl    0.797094 0.368597 0.852096 -0.446974
Cl14  Cl    Cl    0.200460 0.633831 0.156037 -0.460155
Cl15  Cl    Cl    0.202834 0.367373 0.148273 -0.443401
Cl16  Cl    Cl    0.800434 0.633579 0.842924 -0.462733
Cl17  Cl    Cl    0.297023 0.869038 0.852240 -0.446832
Cl18  Cl    Cl    0.700180 0.133801 0.156368 -0.460515
Cl19  Cl    Cl    0.702877 0.867523 0.148174 -0.443357
Cl20  Cl    Cl    0.300506 0.133601 0.842828 -0.462667
C157  C     C_2   0.628620 0.350383 0.038836 0.997424
O65   O     O_2   0.585778 0.329551 0.101263 -0.600113
O66   O     O_R   0.662983 0.396213 0.053582 -0.722953
H17   H     H_    0.647735 0.408871 0.118752 0.373689
C158  C     C_2   0.349031 0.618569 0.992135 0.983337
O67   O     O_2   0.336756 0.554954 0.004792 -0.537430
O68   O     O_R   0.364934 0.649574 0.908989 -0.772772
H18   H     H_    0.364648 0.613895 0.864612 0.377899
C159  C     C_2   0.371266 0.350427 0.961352 0.996671
O69   O     O_2   0.414023 0.329655 0.898688 -0.600000
O70   O     O_R   0.336838 0.396450 0.947048 -0.722376
H19   H     H_    0.351961 0.409281 0.881951 0.374000
C160  C     C_2   0.652374 0.616253 0.005568 0.995845
O71   O     O_2   0.663756 0.552459 0.991865 -0.544908
O72   O     O_R   0.638154 0.646287 0.088581 -0.749861
H20   H     H_    0.638805 0.609812 0.131883 0.378465
C161  C     C_2   0.128583 0.850364 0.038888 0.997542
O73   O     O_2   0.085739 0.829471 0.101255 -0.600158
O74   O     O_R   0.162896 0.896204 0.053743 -0.723012
H21   H     H_    0.147614 0.908809 0.118935 0.373634
C162  C     C_2   0.848533 0.117751 0.992955 0.984224
O75   O     O_2   0.836647 0.054051 0.005973 -0.537933
O76   O     O_R   0.863724 0.148412 0.909902 -0.772858
H22   H     H_    0.863298 0.112431 0.865931 0.377935
C163  C     C_2   0.871338 0.850332 0.961269 0.997026
O77   O     O_2   0.914133 0.829579 0.898682 -0.600190
O78   O     O_R   0.836916 0.896255 0.946826 -0.722665
H23   H     H_    0.852077 0.909037 0.881708 0.373763
C164  C     C_2   0.152442 0.116130 0.005460 0.995989
O79   O     O_2   0.163760 0.052324 0.991723 -0.544928
O80   O     O_R   0.138321 0.146123 0.088454 -0.749989
H24   H     H_    0.138977 0.109610 0.131713 0.378481
C165  C     C_2   0.588306 0.314823 0.787597 1.001512
O81   O     O_2   0.592414 0.360962 0.733989 -0.595125
O82   O     O_R   0.541454 0.272288 0.829372 -0.727604
H25   H     H_    0.514706 0.282338 0.806861 0.381184
C166  C     C_2   0.414999 0.685676 0.209438 1.008893
O83   O     O_2   0.409700 0.646898 0.270458 -0.467115
O84   O     O_R   0.465289 0.719401 0.157418 -0.733973
H26   H     H_    0.466698 0.746643 0.105240 0.311021
C167  C     C_2   0.411690 0.315055 0.212561 1.001055
O85   O     O_2   0.407451 0.361297 0.266149 -0.594874
O86   O     O_R   0.458626 0.272688 0.170915 -0.727459
H27   H     H_    0.485259 0.282851 0.193633 0.381391
C168  C     C_2   0.584731 0.686608 0.791829 0.966892
O87   O     O_2   0.589410 0.648742 0.730331 -0.514063
O88   O     O_R   0.534902 0.720302 0.846939 -0.802362
H28   H     H_    0.506866 0.712248 0.826522 0.381961
C169  C     C_2   0.088318 0.814792 0.787620 1.001529
O89   O     O_2   0.092397 0.860918 0.734017 -0.595127
O90   O     O_R   0.041488 0.772218 0.829409 -0.727573
H29   H     H_    0.014736 0.782218 0.806893 0.381243
C170  C     C_2   0.915014 0.185743 0.209341 1.008660
O91   O     O_2   0.909773 0.147030 0.270377 -0.467048
O92   O     O_R   0.965275 0.219501 0.157223 -0.734110
H30   H     H_    0.966630 0.246692 0.105053 0.311080
C171  C     C_2   0.911683 0.815049 0.212561 1.001016
O93   O     O_2   0.907449 0.861290 0.266147 -0.594888
O94   O     O_R   0.958614 0.772673 0.170917 -0.727420
H31   H     H_    0.985244 0.782822 0.193643 0.381427
C172  C     C_2   0.084733 0.186620 0.791847 0.966908
O95   O     O_2   0.089399 0.148764 0.730349 -0.514056
O96   O     O_R   0.034912 0.220327 0.846969 -0.802458
H32   H     H_    0.006872 0.212294 0.826558 0.381663
Cl21  Cl    Cl    0.765348 0.198104 0.771488 -0.456437
Cl22  Cl    Cl    0.248986 0.822993 0.219628 -0.465850
Cl23  Cl    Cl    0.235288 0.196900 0.228107 -0.454218
Cl24  Cl    Cl    0.751221 0.822694 0.780449 -0.462572
Cl25  Cl    Cl    0.265554 0.698474 0.771353 -0.456703
Cl26  Cl    Cl    0.749002 0.322957 0.219546 -0.465948
Cl27  Cl    Cl    0.735193 0.697076 0.228169 -0.454289
Cl28  Cl    Cl    0.251233 0.322668 0.780456 -0.462481

loop_
_geom_bond_atom_site_label_1
_geom_bond_atom_site_label_2
_ccdc_geom_bond_type
C79   Cl27  S    
C12   Cl8   S    
C164  O80   S    
O50   H9    S    
O19   Zn3   S    
C98   O34   A    
O42   Zn12  S    
C79   C87   A    
C61   C69   A    
C165  O81   D    
C144  C152  S    
C13   C112  A    
O66   H17   S    
O44   Zn11  S    
C62   C70   A    
C94   O22   A    
C78   Cl26  S    
C107  C113  A    
O76   H22   S    
C77   Cl25  S    
C172  O95   D    
C50   C103  S    
C155  O61   D    
C102  O38   A    
C41   C49   A    
C16   C109  A    
C52   C101  S    
O92   H30   S    
O1    Zn1   S    
O14   Zn1   S    
C121  C129  A    
C59   C167  S    
C1    O25   A    
C20   C28   A    
C27   C35   A    
C21   C29   A    
C92   O20   A    
C23   C31   A    
C24   C32   A    
C151  O53   D    
O35   Zn12  S    
C92   O12   A    
O82   H25   S    
C80   Cl28  S    
C96   O24   A    
O37   Zn9   S    
C105  C112  A    
C63   C71   A    
C120  C148  A    
C157  O66   S    
C8    O8    A    
C142  C150  S    
C90   O18   A    
O7    Zn7   S    
C9    C116  A    
C9    Cl5   S    
O3    Zn3   S    
C73   Cl21  S    
C6    O30   A    
C33   Cl18  S    
C17   C25   A    
O20   Zn4   S    
C161  O74   S    
C94   O14   A    
O8    Zn8   S    
C123  C140  A    
C55   C98   S    
C18   C82   S    
C30   H6    S    
C126  C134  A    
C80   C88   A    
C170  O91   D    
O18   Zn2   S    
C118  C138  A    
C11   C143  A    
O62   H15   S    
C141  C149  S    
C96   C129  S    
C113  C115  A    
C100  O42   A    
C99   O35   A    
O32   Zn3   S    
C43   C83   A    
C124  C139  A    
C69   C77   A    
C127  C134  A    
C13   C145  A    
C43   C51   A    
C92   C125  S    
C49   C104  S    
C71   C79   A    
C90   C127  S    
C51   C102  S    
C61   C169  S    
C30   C38   A    
C156  O63   D    
C149  O49   D    
C108  C115  A    
C7    O31   A    
C109  C111  A    
C16   Cl12  S    
O9    Zn6   S    
C168  O88   S    
C66   C74   A    
C49   C57   A    
O22   Zn6   S    
C25   H1    S    
C154  O59   D    
C171  O94   S    
C13   Cl9   S    
C37   Cl14  S    
O39   Zn10  S    
C52   C60   A    
C59   C67   A    
C32   H8    S    
C53   C61   A    
C166  O84   S    
C55   C63   A    
C95   C130  S    
C75   Cl23  S    
C56   C64   A    
C41   C157  S    
C93   C132  S    
C152  O55   D    
C44   C52   A    
C97   O33   A    
C77   C85   A    
C153  O57   D    
C3    O3    A    
C172  O96   S    
O12   Zn7   S    
C100  O36   A    
C56   C97   S    
C19   C83   S    
C150  O51   D    
C106  C111  A    
C167  O86   S    
C131  C136  A    
C74   Cl22  S    
C4    C68   S    
C93   O21   A    
O27   Zn8   S    
O25   Zn6   S    
C46   C162  S    
C47   C87   A    
C163  O77   D    
O4    Zn4   S    
C43   C159  S    
C89   O17   A    
O70   H19   S    
C162  O75   D    
C60   C68   A    
C42   C50   A    
C23   C36   A    
C20   C84   S    
C54   C99   S    
C67   C75   A    
O28   Zn7   S    
C105  C109  A    
C22   C30   A    
C119  C138  A    
O29   Zn2   S    
O16   Zn3   S    
C2    C66   S    
C114  C116  A    
C68   C76   A    
C121  C139  A    
C153  O58   S    
C122  C140  A    
C72   C80   A    
O34   Zn12  S    
C158  O68   S    
C17   C38   A    
C107  C139  A    
C47   C163  S    
C110  C112  A    
C107  C116  A    
C19   C40   A    
C105  C137  A    
O72   H20   S    
C3    O27   A    
C101  O47   A    
C119  C127  A    
C97   O43   A    
C34   Cl17  S    
O58   H13   S    
C18   C26   A    
C5    O29   A    
C76   C84   A    
O64   H16   S    
C8    O32   A    
C93   O13   A    
C148  C156  S    
C47   C55   A    
O11   Zn8   S    
C58   C166  S    
C39   Cl16  S    
C40   Cl15  S    
C119  C147  A    
O60   H14   S    
C45   C161  S    
O46   Zn10  S    
C117  C145  A    
C10   C142  A    
C108  C114  A    
C169  O90   S    
C102  O48   A    
C5    C69   S    
O33   Zn11  S    
C62   C170  S    
C11   Cl7   S    
O56   H12   S    
C48   C88   A    
O36   Zn11  S    
O88   H28   S    
C157  O65   D    
C90   O10   A    
C15   C110  A    
C103  O39   A    
C74   C82   A    
C57   C165  S    
C101  O37   A    
C165  O82   S    
C53   C100  S    
C21   C85   S    
C8    C72   S    
O84   H26   S    
C50   C58   A    
C121  C141  A    
C26   H2    S    
C14   Cl10  S    
C38   Cl13  S    
O78   H23   S    
C20   C39   A    
C21   C34   A    
C54   C62   A    
C134  Cl2   S    
O5    Zn5   S    
O2    Zn2   S    
O80   H24   S    
C161  O73   D    
O74   H21   S    
C2    O2    A    
C41   C81   A    
C46   C54   A    
C104  O40   A    
C143  C151  S    
C24   C88   S    
O45   Zn9   S    
C73   C81   A    
C155  O62   S    
C36   Cl19  S    
C160  O72   S    
C48   C164  S    
O13   Zn2   S    
C91   O11   A    
C6    C70   S    
C27   H3    S    
C123  C131  A    
C10   Cl6   S    
C57   C65   A    
C44   C84   A    
O38   Zn10  S    
C31   H7    S    
C120  C128  A    
C60   C168  S    
C136  Cl4   S    
O6    Zn6   S    
C94   C131  S    
C98   O44   A    
O94   H31   S    
C151  O54   S    
C15   C147  A    
C75   C83   A    
C168  O87   D    
C7    O7    A    
C17   C81   S    
C22   C86   S    
C171  O93   D    
O90   H29   S    
C28   C36   A    
C163  O78   S    
C166  O83   D    
C29   C37   A    
O17   Zn1   S    
C120  C137  A    
C95   O15   A    
C5    O5    A    
C89   C128  S    
O86   H27   S    
C91   C126  S    
C70   C78   A    
C164  O79   D    
O47   Zn10  S    
C42   C82   A    
O96   H32   S    
C103  O45   A    
C167  O85   D    
O52   H10   S    
C18   C37   A    
O10   Zn5   S    
C7    C71   S    
C106  C138  A    
O23   Zn7   S    
C65   C73   A    
O24   Zn8   S    
C2    O26   A    
O21   Zn5   S    
C11   C114  A    
C150  O52   S    
C42   C158  S    
C58   C66   A    
C76   Cl24  S    
C170  O92   S    
C145  C153  S    
O31   Zn4   S    
C35   Cl20  S    
C19   C27   A    
O41   Zn11  S    
C78   C86   A    
C32   C40   A    
C129  C135  A    
C130  C136  A    
C124  C132  A    
C26   C34   A    
C14   C111  A    
C156  O64   S    
C24   C35   A    
O43   Zn12  S    
C6    O6    A    
C118  C146  A    
C108  C140  A    
C9    C141  A    
C160  O71   D    
C117  C137  A    
O48   Zn9   S    
O26   Zn5   S    
C133  Cl1   S    
C12   C144  A    
C154  O60   S    
C104  O46   A    
C45   C85   A    
C1    C65   S    
C135  Cl3   S    
C99   O41   A    
C158  O67   D    
C91   O19   A    
C4    O28   A    
C152  O56   S    
C89   O9    A    
C95   O23   A    
O68   H18   S    
C28   H4    S    
C159  O70   S    
C51   C59   A    
C122  C142  A    
C123  C143  A    
C15   Cl11  S    
C29   H5    S    
C12   C113  A    
C106  C110  A    
C125  C133  A    
C48   C56   A    
C22   C33   A    
O30   Zn1   S    
C3    C67   S    
C63   C171  S    
C64   C172  S    
C14   C146  A    
C16   C148  A    
C1    O1    A    
C149  O50   S    
C128  C133  A    
O40   Zn9   S    
C4    O4    A    
C117  C125  A    
C132  C135  A    
C44   C160  S    
C146  C154  S    
C162  O76   S    
C31   C39   A    
C64   C72   A    
C169  O89   D    
C45   C53   A    
C147  C155  S    
C96   O16   A    
C25   C33   A    
O54   H11   S    
C124  C144  A    
C23   C87   S    
C118  C126  A    
O15   Zn4   S    
C159  O69   D    
C122  C130  A    
C10   C115  A    
C46   C86   A    
