data_mof_unit_626.cif
_audit_creation_date              2012-12-10T18:59:53-0500
_audit_creation_method            fapswitch 2.2
_symmetry_space_group_name_H-M    P1
_symmetry_Int_Tables_number       1
_space_group_crystal_system       triclinic
_cell_length_a                    10.832254
_cell_length_b                    10.634203
_cell_length_c                    9.941855
_cell_angle_alpha                 91.429986
_cell_angle_beta                  91.133704
_cell_angle_gamma                 91.133328
_cell_volume                      1144.4097648

loop_
_atom_site_label
_atom_site_type_symbol
_atom_type_description
_atom_site_fract_x
_atom_site_fract_y
_atom_site_fract_z
_atom_type_partial_charge
C1    C     C_R   0.498859 0.260315 0.498821 0.859304
C2    C     C_R   0.501097 0.739690 0.501188 0.868425
C3    C     C_R   0.872805 0.486474 0.506757 -0.110891
C4    C     C_R   0.127347 0.505168 0.494350 -0.101471
C5    C     C_R   0.943311 0.508106 0.626407 0.039899
C6    C     C_R   0.057336 0.476986 0.375955 0.039405
C7    C     C_R   0.553020 0.062890 0.392422 -0.208585
C8    C     C_R   0.446901 0.937165 0.607678 -0.206502
C9    C     C_R   0.555126 0.934259 0.394443 -0.212020
C10   C     C_R   0.444945 0.065770 0.605686 -0.206276
C11   C     C_R   0.502147 0.872301 0.502172 0.000430
C12   C     C_R   0.497790 0.127720 0.497891 0.001837
C13   C     C_R   0.520462 0.608111 0.075706 -0.213767
C14   C     C_R   0.476831 0.392103 0.923979 -0.159458
C15   C     C_R   0.519962 0.609295 0.933000 0.296656
C16   C     C_R   0.472937 0.391499 0.067723 0.320703
C17   C     C_R   0.260162 0.503000 0.498116 0.866916
C18   C     C_R   0.739858 0.494601 0.502035 0.864436
C19   C     C_R   0.186525 0.573270 0.042470 0.224518
C20   C     C_R   0.794152 0.376544 0.934689 0.244312
C21   C     C_R   0.150030 0.577193 0.177460 -0.077860
C22   C     C_R   0.837263 0.387968 0.803829 -0.149091
C23   C     C_R   0.108067 0.467905 0.239262 0.075721
C24   C     C_R   0.893836 0.500096 0.763673 0.079660
C25   C     C_R   0.098972 0.354243 0.165312 -0.288392
C26   C     C_R   0.914455 0.598629 0.858073 -0.276582
C27   C     C_R   0.133803 0.347777 0.030477 0.275186
C28   C     C_R   0.870549 0.590425 0.989408 0.253513
C29   C     C_R   0.180810 0.457340 0.971367 -0.235824
C30   C     C_R   0.806753 0.479708 0.025286 -0.156865
C31   C     C_R   0.931171 0.465745 0.385128 -0.248400
C32   C     C_R   0.069075 0.525306 0.616446 -0.268788
H1    H     H_    0.213255 0.453379 0.869800 0.156954
H2    H     H_    0.765820 0.471938 0.122113 0.155810
H3    H     H_    0.150651 0.664842 0.235042 0.138271
H4    H     H_    0.826996 0.309324 0.732749 0.119915
H5    H     H_    0.061967 0.271083 0.212190 0.138272
H6    H     H_    0.963883 0.682835 0.828660 0.149692
H7    H     H_    0.878263 0.442859 0.295288 0.170843
H8    H     H_    0.122222 0.550101 0.706321 0.164905
H9    H     H_    0.595876 0.111539 0.310481 0.173649
H10   H     H_    0.403866 0.888692 0.689670 0.158011
H11   H     H_    0.598463 0.883450 0.312837 0.145328
H12   H     H_    0.401774 0.116515 0.687385 0.142709
H13   H     H_    0.535005 0.695409 0.132246 0.152170
H14   H     H_    0.456999 0.307473 0.865005 0.160682
N1    N     N_R   0.499970 0.499970 0.857200 -0.120206
N2    N     N_R   0.500030 0.500030 0.142800 -0.133195
O1    O     O_R   0.499990 0.316750 0.614620 -0.639797
O2    O     O_R   0.500010 0.683250 0.385380 -0.638030
O3    O     O_R   0.499990 0.316780 0.385290 -0.611266
O4    O     O_R   0.500010 0.683220 0.614710 -0.589456
O5    O     O_R   0.316760 0.500000 0.614660 -0.634509
O6    O     O_R   0.683240 0.500000 0.385340 -0.633513
O7    O     O_R   0.316760 0.500020 0.385330 -0.623214
O8    O     O_R   0.683240 0.499980 0.614670 -0.613381
Zn1   Zn    Zn3+2 0.500000 0.499980 0.653120 0.938716
Zn2   Zn    Zn3+2 0.500000 0.500020 0.346880 0.932079
N3    N     N_2   0.529566 0.727283 0.870144 -0.280909
H15   H     H_    0.480387 0.796749 0.917798 0.204433
C33   C     C_3   0.654000 0.770043 0.844782 -0.753362
H16   H     H_    0.705633 0.787431 0.940988 0.231397
H17   H     H_    0.651447 0.859755 0.790139 0.229997
H18   H     H_    0.701275 0.700093 0.780750 0.277036
N4    N     N_2   0.430916 0.282200 0.134827 -0.256204
H19   H     H_    0.355394 0.297965 0.193861 0.255765
C34   C     C_3   0.428849 0.160070 0.066768 -0.883796
H20   H     H_    0.356168 0.155033 0.986930 0.241940
H21   H     H_    0.407815 0.086070 0.140165 0.255278
H22   H     H_    0.519797 0.140244 0.022853 0.263051
N5    N     N_2   0.220299 0.684525 0.972728 -0.317511
H23   H     H_    0.266526 0.671819 0.883892 0.228404
C35   C     C_3   0.247767 0.801093 0.046897 -0.858964
H24   H     H_    0.275456 0.875170 0.976035 0.234869
H25   H     H_    0.324328 0.788154 0.120795 0.251253
H26   H     H_    0.164640 0.834423 0.099308 0.244372
N6    N     N_2   0.734373 0.262604 0.972754 -0.307433
H27   H     H_    0.714026 0.200100 0.893986 0.218806
C36   C     C_3   0.786880 0.202007 0.088758 -0.806690
H28   H     H_    0.735546 0.112660 0.106065 0.226841
H29   H     H_    0.779471 0.262501 0.180555 0.245503
H30   H     H_    0.884923 0.179532 0.071166 0.248016
N7    N     N_2   0.116203 0.231361 0.956874 -0.310350
H31   H     H_    0.124710 0.150249 0.010802 0.215744
C37   C     C_3   0.143881 0.222038 0.815151 -0.813360
H32   H     H_    0.119913 0.125836 0.775780 0.236423
H33   H     H_    0.243542 0.240597 0.799496 0.230490
H34   H     H_    0.088180 0.289716 0.757945 0.261669
N8    N     N_2   0.900698 0.690484 0.084099 -0.310699
H35   H     H_    0.954203 0.764003 0.050304 0.230082
C38   C     C_3   0.821704 0.722780 0.195066 -0.824839
H36   H     H_    0.875379 0.718038 0.290918 0.256811
H37   H     H_    0.739704 0.660594 0.200379 0.265871
H38   H     H_    0.789278 0.820475 0.184191 0.218479

loop_
_geom_bond_atom_site_label_1
_geom_bond_atom_site_label_2
_ccdc_geom_bond_type
C27   C29   A    
C35   H24   S    
C19   N5    S    
C15   N1    A    
C16   N2    A    
C14   H14   S    
C20   C30   A    
N6    H27   S    
C20   N6    S    
C19   C21   A    
C8    H10   S    
N1    Zn1   S    
C29   H1    S    
O1    Zn1   S    
O8    Zn1   S    
C3    C18   S    
C33   H17   S    
C2    O2    A    
C25   H5    S    
N4    C34   S    
C28   N8    S    
N8    C38   S    
C17   O7    A    
C18   O8    A    
C5    C32   A    
C7    H9    S    
C6    C31   A    
N3    H15   S    
C35   H25   S    
C1    C12   S    
C2    C11   S    
C10   C12   A    
N6    C36   S    
C21   C23   A    
C7    C12   A    
C9    H11   S    
N3    C33   S    
C30   H2    S    
C37   H33   S    
C10   H12   S    
C34   H20   S    
O2    Zn2   S    
C4    C6    A    
C38   H36   S    
C36   H29   S    
O5    Zn1   S    
C26   H6    S    
C37   H32   S    
C34   H21   S    
C13   N2    A    
C33   H18   S    
C38   H37   S    
C1    O3    A    
N7    H31   S    
O3    Zn2   S    
C3    C31   A    
C9    C11   A    
C4    C32   A    
C2    O4    A    
C4    C17   S    
N7    C37   S    
C20   C22   A    
C13   C15   A    
C35   H26   S    
C14   C16   A    
C19   C29   A    
C17   O5    A    
N5    C35   S    
O6    Zn2   S    
C37   H34   S    
C7    C9    A    
C15   N3    S    
C24   C26   A    
C3    C5    A    
C36   H30   S    
N2    Zn2   S    
C14   N1    A    
C21   H3    S    
C25   C27   A    
C22   H4    S    
C26   C28   A    
C34   H22   S    
C27   N7    S    
N5    H23   S    
C38   H38   S    
C13   H13   S    
C5    C24   S    
C8    C11   A    
C6    C23   S    
C28   C30   A    
C31   H7    S    
C22   C24   A    
C32   H8    S    
C33   H16   S    
O4    Zn1   S    
C18   O6    A    
C36   H28   S    
C23   C25   A    
C8    C10   A    
N4    H19   S    
O7    Zn2   S    
C16   N4    S    
N8    H35   S    
C1    O1    A    
