data_mof_unit_4140.cif
_audit_creation_date              2012-12-10T18:43:09-0500
_audit_creation_method            fapswitch 2.2
_symmetry_space_group_name_H-M    P1
_symmetry_Int_Tables_number       1
_space_group_crystal_system       triclinic
_cell_length_a                    10.702304
_cell_length_b                    9.829413
_cell_length_c                    10.745466
_cell_angle_alpha                 89.85478
_cell_angle_beta                  89.921576
_cell_angle_gamma                 91.54301
_cell_volume                      1129.98003445

loop_
_atom_site_label
_atom_site_type_symbol
_atom_type_description
_atom_site_fract_x
_atom_site_fract_y
_atom_site_fract_z
_atom_type_partial_charge
C1    C     C_R   0.260375 0.498192 0.507617 0.875234
C2    C     C_R   0.740746 0.502693 0.497223 0.869952
C3    C     C_R   0.496675 0.499939 0.262508 0.938434
C4    C     C_R   0.503290 0.499761 0.737435 0.925784
C5    C     C_2   0.487768 0.385563 0.933077 -0.166200
C6    C     C_2   0.494235 0.384861 0.067005 -0.164482
C7    C     C_2   0.513721 0.499290 0.868912 -0.329213
C8    C     C_2   0.483821 0.500113 0.131119 -0.347397
C9    C     C_R   0.062024 0.388389 0.462071 -0.239533
C10   C     C_R   0.934583 0.391788 0.457812 -0.230783
C11   C     C_R   0.874600 0.508723 0.496925 -0.077385
C12   C     C_R   0.128189 0.494515 0.519663 -0.061966
C13   C     C_R   0.943681 0.623446 0.543316 0.065928
C14   C     C_R   0.067156 0.602326 0.578099 0.083543
C15   C     C_R   0.552815 0.073249 0.595832 -0.085850
C16   C     C_R   0.446512 0.070657 0.404562 -0.084166
C17   C     C_R   0.552520 0.929301 0.595992 -0.101381
C18   C     C_R   0.446573 0.926739 0.404534 -0.073736
H1    H     H_    0.462962 0.290242 0.887133 0.165997
H2    H     H_    0.507107 0.287541 0.112805 0.166707
H3    H     H_    0.545191 0.593922 0.911548 0.144676
H4    H     H_    0.462720 0.596788 0.088397 0.146436
H5    H     H_    0.108652 0.303106 0.420479 0.165746
H6    H     H_    0.883416 0.305652 0.418203 0.172225
H7    H     H_    0.595617 0.128754 0.672140 0.132147
H8    H     H_    0.403535 0.124073 0.328348 0.124131
H9    H     H_    0.595102 0.875886 0.672412 0.124347
H10   H     H_    0.403662 0.871214 0.328298 0.128782
N1    N     N_R   0.500000 0.857200 0.500000 -0.076763
N2    N     N_R   0.500000 0.142810 0.500000 -0.077207
O1    O     O_R   0.316770 0.614620 0.499990 -0.621110
O2    O     O_R   0.683230 0.614620 0.500010 -0.626401
O3    O     O_R   0.316800 0.385290 0.500000 -0.625844
O4    O     O_R   0.683200 0.385290 0.500000 -0.616174
O5    O     O_R   0.500000 0.614630 0.319080 -0.628202
O6    O     O_R   0.500000 0.614630 0.680920 -0.629062
O7    O     O_R   0.500030 0.385300 0.319080 -0.621723
O8    O     O_R   0.499970 0.385300 0.680920 -0.623501
Zn1   Zn    Zn3+2 0.500000 0.653120 0.500000 0.928905
Zn2   Zn    Zn3+2 0.500000 0.346880 0.500000 0.937225
C19   C     C_3   0.897473 0.769327 0.536450 -0.408963
C20   C     C_3   0.881939 0.814393 0.400095 -0.302347
C21   C     C_3   0.846993 0.963635 0.390585 -0.890889
H11   H     H_    0.756816 0.980181 0.438168 0.277282
H12   H     H_    0.920683 0.030148 0.433231 0.253187
H13   H     H_    0.837265 0.992554 0.291188 0.243911
H14   H     H_    0.971656 0.801206 0.349729 0.211229
H15   H     H_    0.809363 0.751347 0.352121 0.238812
H16   H     H_    0.811140 0.781891 0.591850 0.215960
H17   H     H_    0.966253 0.843022 0.576453 0.187611
C22   C     C_3   0.128424 0.684516 0.683425 -0.444674
C23   C     C_3   0.170691 0.591485 0.789691 -0.315269
C24   C     C_3   0.228870 0.673828 0.896090 -0.890547
H18   H     H_    0.313258 0.731530 0.863030 0.266452
H19   H     H_    0.160564 0.746006 0.934162 0.254416
H20   H     H_    0.256559 0.603826 0.971800 0.255649
H21   H     H_    0.088687 0.531841 0.826035 0.218336
H22   H     H_    0.240305 0.518605 0.756071 0.214904
H23   H     H_    0.207641 0.748823 0.648326 0.235187
H24   H     H_    0.061170 0.754147 0.726573 0.191632

loop_
_geom_bond_atom_site_label_1
_geom_bond_atom_site_label_2
_ccdc_geom_bond_type
C23   H21   S    
C8    H4    S    
C21   H11   S    
C4    O6    A    
C15   C17   A    
C5    H1    S    
C17   N1    A    
C11   C13   A    
C19   C20   S    
O5    Zn1   S    
C14   C22   S    
C3    O5    A    
C2    O4    A    
C13   C19   S    
C1    O3    A    
C18   N1    A    
C20   H15   S    
C24   H18   S    
O8    Zn2   S    
C21   H12   S    
N1    Zn1   S    
C1    C12   S    
C23   H22   S    
C6    H2    S    
C4    C7    S    
O4    Zn2   S    
C2    C11   S    
C19   H16   S    
C9    C12   A    
C12   C14   A    
O7    Zn2   S    
C20   H14   S    
C24   H19   S    
C16   H8    S    
C5    C6    S    
C21   H13   S    
C15   H7    S    
O3    Zn2   S    
C22   H23   S    
C10   C11   A    
N2    Zn2   S    
C22   C23   S    
C17   H9    S    
C19   H17   S    
C1    O1    A    
C18   H10   S    
C23   C24   S    
C3    O7    A    
C15   N2    A    
C2    O2    A    
C3    C8    S    
C9    C10   A    
C24   H20   S    
C7    H3    S    
C5    C7    D    
C9    H5    S    
C4    O8    A    
C6    C8    D    
C22   H24   S    
O2    Zn1   S    
C10   H6    S    
C13   C14   A    
C16   N2    A    
O6    Zn1   S    
C16   C18   A    
C20   C21   S    
O1    Zn1   S    
