data_mof_unit_3424.cif
_audit_creation_date              2012-12-11T17:47:23-0500
_audit_creation_method            fapswitch 2.2
_symmetry_space_group_name_H-M    P1
_symmetry_Int_Tables_number       1
_space_group_crystal_system       triclinic
_cell_length_a                    14.843533
_cell_length_b                    14.919115
_cell_length_c                    15.09851
_cell_angle_alpha                 110.164209
_cell_angle_beta                  109.181198
_cell_angle_gamma                 108.841354
_cell_volume                      2580.80839499

loop_
_atom_site_label
_atom_site_type_symbol
_atom_type_description
_atom_site_fract_x
_atom_site_fract_y
_atom_site_fract_z
_atom_type_partial_charge
C1    C     C_R   0.976749 0.251491 0.064471 -0.131511
C2    C     C_R   0.091080 0.804809 0.005542 -0.153074
C3    C     C_R   0.323868 0.785293 0.326877 0.050506
C4    C     C_R   0.703837 0.129740 0.702808 0.070870
C5    C     C_R   0.304849 0.502181 0.938064 0.034650
C6    C     C_R   0.674189 0.500535 0.948921 0.031215
C7    C     C_R   0.938953 0.498481 0.302179 0.075149
C8    C     C_R   0.954559 0.503420 0.679261 0.050568
C9    C     C_R   0.168617 0.040455 0.081671 -0.238190
C10   C     C_R   0.061878 0.138191 0.160235 -0.235240
C11   C     C_R   0.209600 0.098715 0.829466 -0.135644
C12   C     C_R   0.878046 0.924486 0.268717 -0.133461
C13   C     C_R   0.157433 0.092090 0.890788 -0.215574
C14   C     C_R   0.965284 0.988766 0.262256 -0.196528
C15   C     C_R   0.628673 0.183573 0.099210 -0.272180
C16   C     C_R   0.298199 0.748963 0.835068 -0.312210
C17   C     C_R   0.685482 0.285062 0.195440 -0.236039
C18   C     C_R   0.205670 0.668342 0.733406 -0.187008
C19   C     C_R   0.768984 0.303679 0.289266 0.143132
C20   C     C_R   0.121563 0.689631 0.687396 0.132690
C21   C     C_R   0.789281 0.217564 0.287539 -0.265983
C22   C     C_R   0.134580 0.794401 0.740677 -0.290287
C23   C     C_R   0.315563 0.757337 0.224954 -0.132986
C24   C     C_R   0.705093 0.194617 0.795116 -0.134315
C25   C     C_R   0.731737 0.116446 0.192155 -0.288872
C26   C     C_R   0.227087 0.874449 0.841644 -0.257095
C27   C     C_R   0.654330 0.099802 0.096312 0.672710
C28   C     C_R   0.307245 0.851750 0.891474 0.653292
C29   C     C_R   0.848385 0.423009 0.484075 -0.254394
C30   C     C_R   0.003067 0.597215 0.492857 -0.253551
C31   C     C_R   0.936850 0.512079 0.583478 0.064550
C32   C     C_R   0.922291 0.502859 0.392717 0.060319
C33   C     C_R   0.016183 0.600272 0.588007 0.038778
C34   C     C_R   0.842931 0.413814 0.387532 0.044503
C35   C     C_R   0.218697 0.152596 0.004922 0.110634
C36   C     C_R   0.948798 0.981151 0.162509 0.119078
C37   C     C_R   0.384855 0.220343 0.994636 -0.124111
C38   C     C_R   0.754490 0.858354 0.081063 -0.119491
C39   C     C_R   0.222502 0.018675 0.489026 -0.116361
C40   C     C_R   0.914786 0.021278 0.610123 -0.119634
C41   C     C_R   0.306771 0.997220 0.486990 -0.123648
C42   C     C_R   0.811900 0.977208 0.602000 -0.147736
C43   C     C_R   0.331135 0.931757 0.528203 0.101250
C44   C     C_R   0.723465 0.973231 0.525280 0.115455
C45   C     C_R   0.212671 0.409952 0.905722 -0.156911
C46   C     C_R   0.775584 0.592241 0.024438 -0.147280
C47   C     C_R   0.272212 0.890439 0.574150 -0.183387
C48   C     C_R   0.737805 0.008742 0.453431 -0.180191
C49   C     C_R   0.185689 0.909528 0.572819 -0.125888
C50   C     C_R   0.841596 0.055839 0.464356 -0.134344
C51   C     C_R   0.160809 0.973427 0.530313 -0.118038
C52   C     C_R   0.930206 0.062776 0.543075 -0.128805
C53   C     C_R   0.520209 0.982392 0.623701 -0.243253
C54   C     C_R   0.522912 0.864526 0.437539 -0.246790
C55   C     C_R   0.618811 0.014867 0.622148 0.050159
C56   C     C_R   0.423476 0.852256 0.432504 0.068399
C57   C     C_R   0.621637 0.948696 0.530682 0.030361
C58   C     C_R   0.422704 0.912514 0.527885 0.027045
C59   C     C_R   0.323418 0.160542 0.881308 -0.069919
C60   C     C_R   0.772437 0.860770 0.178933 -0.124444
C61   C     C_R   0.041990 0.036941 0.150163 0.017728
C62   C     C_R   0.167206 0.127472 0.067912 0.028592
C63   C     C_R   0.332829 0.217080 0.056497 -0.134090
C64   C     C_R   0.842567 0.917342 0.072367 -0.142268
C65   C     C_R   0.093209 0.984216 0.105485 0.058054
C66   C     C_R   0.104325 0.171822 0.099825 0.059756
C67   C     C_R   0.993819 0.589977 0.297738 -0.161877
C68   C     C_R   0.939768 0.409485 0.686082 -0.137334
C69   C     C_3   0.461740 0.398883 0.873794 -0.152138
C70   C     C_3   0.506727 0.607806 0.977120 -0.171107
C71   C     C_3   0.404427 0.451952 0.821812 -0.150078
C72   C     C_3   0.562980 0.554752 0.028793 -0.153072
C73   C     C_3   0.397024 0.504364 0.924114 0.182391
C74   C     C_3   0.572117 0.501884 0.927430 0.183535
C75   C     C_3   0.453010 0.451793 0.975614 -0.143206
C76   C     C_3   0.517368 0.555538 0.875485 -0.149393
C77   C     C_R   0.302915 0.592399 0.999529 -0.125890
C78   C     C_R   0.684458 0.408239 0.933415 -0.127426
C79   C     C_R   0.911341 0.407871 0.210367 -0.142188
C80   C     C_R   0.018487 0.592093 0.782330 -0.114229
C81   C     C_R   0.219354 0.747294 0.312195 -0.116323
C82   C     C_R   0.793115 0.196242 0.701428 -0.144021
C83   C     C_R   0.073536 0.257499 0.978277 -0.144969
C84   C     C_R   0.001264 0.802987 0.097281 -0.137801
C85   C     C_R   0.058163 0.229250 0.052861 0.063579
C86   C     C_R   0.059746 0.867738 0.067983 0.068993
H1    H     H_    0.940911 0.237783 0.113043 0.091681
H2    H     H_    0.149813 0.832741 0.980782 0.098231
H3    H     H_    0.162517 0.051791 0.741900 0.112584
H4    H     H_    0.892620 0.922736 0.342828 0.134351
H5    H     H_    0.472894 0.269622 0.034658 0.104965
H6    H     H_    0.672928 0.809541 0.011419 0.128883
H7    H     H_    0.565982 0.170474 0.026811 0.131198
H8    H     H_    0.361318 0.730805 0.870512 0.135173
H9    H     H_    0.668122 0.350242 0.195620 0.137162
H10   H     H_    0.197281 0.588089 0.692675 0.137705
H11   H     H_    0.852885 0.230223 0.359330 0.144022
H12   H     H_    0.070202 0.811934 0.707124 0.143988
H13   H     H_    0.749509 0.051707 0.192170 0.170853
H14   H     H_    0.234398 0.952969 0.884953 0.173624
H15   H     H_    0.789515 0.354988 0.481782 0.135884
H16   H     H_    0.067157 0.663911 0.498873 0.132349
H17   H     H_    0.069882 0.037990 0.849864 0.122042
H18   H     H_    0.046285 0.038882 0.332467 0.111075
H19   H     H_    0.425601 0.413809 0.019865 0.127830
H20   H     H_    0.546472 0.597892 0.834700 0.112911
H21   H     H_    0.381203 0.773300 0.206143 0.090113
H22   H     H_    0.658653 0.168188 0.831825 0.067262
H23   H     H_    0.381699 0.260838 0.144210 0.115908
H24   H     H_    0.828510 0.912332 0.995309 0.114324
H25   H     H_    0.094205 0.988309 0.530064 0.097872
H26   H     H_    0.010729 0.100570 0.552096 0.099332
H27   H     H_    0.205716 0.070797 0.459045 0.100651
H28   H     H_    0.983099 0.026293 0.670595 0.103057
H29   H     H_    0.353574 0.032001 0.453965 0.114185
H30   H     H_    0.802256 0.950895 0.658378 0.110625
H31   H     H_    0.291373 0.841441 0.608030 0.131010
H32   H     H_    0.670790 0.007505 0.394672 0.121468
H33   H     H_    0.137713 0.875033 0.604630 0.120589
H34   H     H_    0.853667 0.088270 0.412720 0.123640
H35   H     H_    0.515507 0.027696 0.693706 0.125989
H36   H     H_    0.524250 0.815790 0.366137 0.126587
H37   H     H_    0.216852 0.007466 0.057147 0.137127
H38   H     H_    0.024341 0.177876 0.197422 0.127934
H39   H     H_    0.336450 0.410138 0.737398 0.109522
H40   H     H_    0.629015 0.596767 0.114295 0.114447
H41   H     H_    0.444807 0.313825 0.828671 0.103115
H42   H     H_    0.521844 0.692858 0.018885 0.098768
H43   H     H_    0.185241 0.326297 0.848046 0.109432
H44   H     H_    0.794807 0.676893 0.058537 0.127040
H45   H     H_    0.013757 0.673240 0.347935 0.106918
H46   H     H_    0.894899 0.325455 0.620396 0.102095
H47   H     H_    0.357995 0.676735 0.028863 0.061754
H48   H     H_    0.620416 0.323428 0.883439 0.092290
H49   H     H_    0.862737 0.322715 0.181955 0.113871
H50   H     H_    0.038834 0.675787 0.807146 0.123256
H51   H     H_    0.193474 0.745566 0.370348 0.119839
H52   H     H_    0.824920 0.174907 0.648076 0.133345
H53   H     H_    0.133241 0.258421 0.953437 0.128347
H54   H     H_    0.984037 0.828367 0.162364 0.125091
H55   H     H_    0.363881 0.160165 0.833473 0.100329
H56   H     H_    0.704951 0.813026 0.185297 0.112179
N1    N     N_R   0.947560 0.293820 0.002910 -0.043301
N2    N     N_R   0.052440 0.706180 0.997090 -0.042456
N3    N     N_R   0.208960 0.706170 0.152110 -0.040339
N4    N     N_R   0.791040 0.293830 0.847890 -0.038506
N5    N     N_R   0.154330 0.443160 0.946140 -0.038464
N6    N     N_R   0.845670 0.556840 0.053860 -0.038997
N7    N     N_R   0.002190 0.556820 0.208880 -0.038944
N8    N     N_R   0.997810 0.443180 0.791120 -0.039335
N9    N     N_R   0.210550 0.556810 0.002910 -0.037099
N10   N     N_R   0.789450 0.443190 0.997090 -0.039239
N11   N     N_R   0.945970 0.443180 0.152110 -0.040109
N12   N     N_R   0.054030 0.556820 0.847890 -0.043672
N13   N     N_R   0.151530 0.706170 0.208880 -0.042340
N14   N     N_R   0.848470 0.293830 0.791120 -0.040778
N15   N     N_R   0.004980 0.293810 0.946140 -0.039868
N16   N     N_R   0.995020 0.706190 0.053860 -0.040884
Ni1   Ni    Ni4+2 0.869690 0.369690 0.000000 0.201949
Ni2   Ni    Ni4+2 0.130310 0.630310 0.000000 0.207235
Ni3   Ni    Ni4+2 0.001390 0.369680 0.869810 0.216137
Ni4   Ni    Ni4+2 0.998610 0.630320 0.130190 0.215775
O1    O     O_3   0.599533 0.998044 0.003505 -0.618758
C87   C     C_3   0.613293 0.009321 0.919050 0.262968
H57   H     H_    0.700389 0.066109 0.947998 0.069435
H58   H     H_    0.559798 0.039262 0.883267 0.090221
C88   C     C_3   0.579838 0.897557 0.830116 -0.899292
H59   H     H_    0.491611 0.840391 0.794992 0.260128
H60   H     H_    0.594086 0.905467 0.764850 0.219624
H61   H     H_    0.629179 0.863318 0.863833 0.243562
O2    O     O_3   0.394629 0.933603 0.993726 -0.615419
C89   C     C_3   0.407093 0.895101 0.068007 0.268452
H62   H     H_    0.465178 0.862962 0.069497 0.114634
H63   H     H_    0.327954 0.830051 0.048387 0.058570
C90   C     C_3   0.454158 0.990038 0.181045 -0.895706
H64   H     H_    0.395391 0.020664 0.182448 0.248677
H65   H     H_    0.469553 0.962476 0.241313 0.202921
H66   H     H_    0.532576 0.058095 0.204540 0.271240

loop_
_geom_bond_atom_site_label_1
_geom_bond_atom_site_label_2
_ccdc_geom_bond_type
C16   C28   A    
C39   C51   A    
O2    C89   S    
C1    H1    S    
C22   H12   S    
C67   N7    A    
C2    N2    A    
C3    C23   A    
O1    C87   S    
C77   N9    A    
C66   C85   S    
C83   H53   S    
C78   N10   A    
C65   C86   S    
C39   C41   A    
C81   H51   S    
C23   N3    A    
C42   C44   A    
C50   H34   S    
C12   H4    S    
C87   H57   S    
C19   C21   A    
C84   C86   A    
C13   C35   A    
C10   H38   S    
C14   C36   A    
C71   C76   S    
C4    C24   A    
C6    C78   A    
C52   H26   S    
C38   H6    S    
C18   H10   S    
C7    C67   A    
C68   H46   S    
C2    C86   A    
C69   C71   S    
N7    N11   A    
C40   H28   S    
C43   C58   S    
C27   O1    S    
C76   H20   S    
C14   H18   S    
C25   H13   S    
C46   N6    A    
N3    N13   A    
C49   C51   A    
C3    C81   A    
C50   C52   A    
C31   C33   A    
C2    H2    S    
C24   H22   S    
C13   H17   S    
C89   C90   S    
C82   N14   A    
C10   C66   A    
C54   H36   S    
N10   Ni1   S    
C41   C43   A    
C77   H47   S    
C41   H29   S    
C72   C75   S    
C11   C59   A    
C47   C49   A    
C37   C63   A    
C89   H63   S    
C6    C74   S    
C88   H61   S    
C38   C64   A    
C53   C55   A    
N13   Ni4   S    
C1    C85   A    
C15   C27   A    
C54   C56   A    
C62   C66   A    
C9    C62   A    
N1    N15   A    
C90   H65   S    
N5    Ni3   S    
C88   H59   S    
C71   C73   S    
N3    Ni2   S    
C84   N16   A    
C90   H66   S    
C48   H32   S    
N4    Ni1   S    
C39   H27   S    
C40   C52   A    
C5    C45   A    
C29   C34   A    
C88   H60   S    
C72   H40   S    
C32   C34   A    
N11   Ni1   S    
N5    N9    A    
N12   Ni2   S    
C1    N1    A    
C79   N11   A    
C21   H11   S    
C3    C56   S    
C11   H3    S    
C28   O2    S    
C64   H24   S    
C90   H64   S    
C83   N15   A    
C44   C57   S    
C69   H41   S    
C23   H21   S    
C30   H16   S    
C70   C73   S    
C29   H15   S    
C69   C74   S    
C16   C18   A    
N1    Ni1   S    
C48   C50   A    
C78   H48   S    
C59   H55   S    
C37   C59   A    
C22   C26   A    
C74   C76   S    
C38   C60   A    
C20   C33   S    
C9    H37   S    
C72   C74   S    
C83   C85   A    
C12   C14   A    
N14   Ni3   S    
C75   H19   S    
C55   C57   A    
C4    C55   S    
C70   C76   S    
C10   C61   A    
N2    Ni2   S    
C15   H7    S    
C73   C75   S    
C5    C77   A    
C36   C61   S    
N15   Ni3   S    
C89   H62   S    
C7    C79   A    
C70   H42   S    
C15   C17   A    
N8    Ni3   S    
C21   C25   A    
C51   H25   S    
C7    C32   S    
C6    C46   A    
C30   C33   A    
C45   N5    A    
C8    C31   S    
C26   C28   A    
C87   C88   S    
C67   H45   S    
C17   H9    S    
N6    N10   A    
C20   C22   A    
C19   C34   S    
C81   N13   A    
C46   H44   S    
C70   C72   S    
C53   C58   A    
C80   N12   A    
C25   C27   A    
C79   H49   S    
C16   H8    S    
C80   H50   S    
N6    Ni4   S    
N9    Ni2   S    
C8    C68   A    
C87   H58   S    
C29   C31   A    
C24   N4    A    
C30   C32   A    
C11   C13   A    
C45   H43   S    
C49   H33   S    
C43   C47   A    
C60   H56   S    
C42   H30   S    
C40   C42   A    
C17   C19   A    
C56   C58   A    
C69   C75   S    
C35   C62   S    
C18   C20   A    
C5    C73   S    
C9    C65   A    
C68   N8    A    
N16   Ni4   S    
C53   H35   S    
C12   C60   A    
C61   C65   A    
C47   H31   S    
C4    C82   A    
C84   H54   S    
C82   H52   S    
N8    N12   A    
C8    C80   A    
C71   H39   S    
C35   C63   A    
N7    Ni4   S    
N4    N14   A    
C36   C64   A    
N2    N16   A    
C44   C48   A    
C37   H5    S    
C26   H14   S    
C63   H23   S    
C54   C57   A    
