data_mof_unit_2459.cif
_audit_creation_date              2012-12-10T17:35:39-0500
_audit_creation_method            fapswitch 2.2
_symmetry_space_group_name_H-M    P1
_symmetry_Int_Tables_number       1
_space_group_crystal_system       triclinic
_cell_length_a                    10.737397
_cell_length_b                    12.389812
_cell_length_c                    13.15774
_cell_angle_alpha                 116.661268
_cell_angle_beta                  77.0006
_cell_angle_gamma                 101.678031
_cell_volume                      1513.84115293

loop_
_atom_site_label
_atom_site_type_symbol
_atom_type_description
_atom_site_fract_x
_atom_site_fract_y
_atom_site_fract_z
_atom_type_partial_charge
C1    C     C_R   0.505618 0.855325 0.287005 0.816539
C2    C     C_3   0.120244 0.000242 0.504211 0.168242
C3    C     C_3   0.083263 0.132279 0.569765 -0.458975
C4    C     C_3   0.033199 0.922646 0.566686 0.034210
C5    C     C_R   0.351842 0.273266 0.033277 -0.281358
C6    C     C_R   0.456164 0.227523 0.837293 -0.151202
C7    C     C_R   0.555580 0.818305 0.081731 -0.212863
C8    C     C_R   0.577434 0.739655 0.966100 -0.140911
C9    C     C_R   0.546868 0.614990 0.931290 -0.177373
C10   C     C_R   0.484518 0.566600 0.011515 0.051368
C11   C     C_R   0.446824 0.649157 0.127374 0.084114
C12   C     C_R   0.739165 0.001994 0.503312 0.758475
C13   C     C_R   0.454714 0.439320 0.979934 0.069385
C14   C     C_R   0.381211 0.397640 0.061828 0.070968
C15   C     C_R   0.330229 0.479994 0.169451 -0.268426
C16   C     C_R   0.355723 0.604390 0.200120 0.143300
C17   C     C_R   0.495610 0.351903 0.869504 -0.313385
C18   C     C_R   0.383532 0.187522 0.920248 0.445719
C19   C     C_R   0.498255 0.773862 0.164392 -0.105153
C20   C     C_R   0.704679 0.350303 0.330207 -0.419448
C21   C     C_R   0.314093 0.753670 0.633159 0.111985
C22   C     C_R   0.260604 0.649922 0.649249 -0.286762
C23   C     C_R   0.480851 0.144991 0.714104 0.801779
C24   C     C_R   0.324600 0.546739 0.594452 -0.208662
C25   C     C_R   0.446900 0.546669 0.526396 0.020261
C26   C     C_R   0.491903 0.652725 0.505024 0.279820
C27   C     C_R   0.521978 0.444185 0.472125 -0.078317
C28   C     C_R   0.629690 0.446769 0.387811 0.104211
C29   C     C_R   0.665889 0.547639 0.362787 -0.250760
C30   C     C_R   0.600052 0.648693 0.421236 -0.200923
C31   C     C_R   0.501622 0.341686 0.500004 0.240321
C32   C     C_R   0.674258 0.247408 0.353749 0.610575
C33   C     C_R   0.259553 0.001009 0.502269 0.760376
C34   C     C_3   0.947306 0.945556 0.380619 -0.400019
C35   C     C_3   0.092039 0.949779 0.379562 -0.381787
C36   C     C_3   0.940237 0.133805 0.569005 -0.377686
C37   C     C_3   0.889878 0.927960 0.570393 -0.410804
C38   C     C_3   0.876325 0.002467 0.505769 0.143366
Cu1   Cu    Cu3+1 0.529690 0.098270 0.475420 0.976985
Cu2   Cu    Cu3+1 0.470310 0.901730 0.524580 0.942943
H1    H     H_    0.934874 0.996096 0.332691 0.195880
H2    H     H_    0.053155 0.963807 0.656933 0.109304
H3    H     H_    0.889847 0.176286 0.658971 0.149912
H4    H     H_    0.102610 0.172599 0.659998 0.147678
H5    H     H_    0.263944 0.447687 0.228112 0.142768
H6    H     H_    0.298942 0.242262 0.097726 0.147582
H7    H     H_    0.557335 0.378353 0.805820 0.174108
H8    H     H_    0.586700 0.914051 0.106655 0.171138
H9    H     H_    0.569488 0.559691 0.840425 0.125910
H10   H     H_    0.622775 0.775240 0.903323 0.143578
H11   H     H_    0.905227 0.849591 0.335603 0.146319
H12   H     H_    0.748202 0.549597 0.298136 0.142753
H13   H     H_    0.788721 0.358042 0.269633 0.137209
H14   H     H_    0.261580 0.831662 0.672168 0.145462
H15   H     H_    0.271042 0.467323 0.601828 0.141868
H16   H     H_    0.167074 0.648072 0.701226 0.143650
H17   H     H_    0.635346 0.720629 0.395218 0.200794
H18   H     H_    0.122616 0.857608 0.326803 0.172968
H19   H     H_    0.148189 0.008840 0.337510 0.166659
H20   H     H_    0.933032 0.190762 0.525357 0.196044
H21   H     H_    0.141818 0.190117 0.527623 0.180107
H22   H     H_    0.843070 0.970842 0.661629 0.146777
H23   H     H_    0.838818 0.834488 0.532021 0.181274
N1    N     N_R   0.574690 0.246280 0.438200 -0.203639
N2    N     N_R   0.426100 0.754320 0.561190 -0.213323
O1    O     O_R   0.537340 0.972510 0.318130 -0.556072
O2    O     O_R   0.487200 0.806530 0.359650 -0.582765
O3    O     O_R   0.707380 0.082980 0.479220 -0.534154
O4    O     O_R   0.657240 0.917000 0.520740 -0.617301
O5    O     O_R   0.512800 0.193470 0.640350 -0.560027
O6    O     O_R   0.462660 0.027490 0.681870 -0.545083
O7    O     O_R   0.342760 0.083000 0.479260 -0.591770
O8    O     O_R   0.292620 0.917020 0.520780 -0.565129
O9    O     O_3   0.349883 0.064905 0.893160 -0.562199
C39   C     C_3   0.214583 0.035800 0.899584 0.060419
H24   H     H_    0.187940 0.010135 0.814199 0.128255
H25   H     H_    0.158214 0.111206 0.963799 0.120139
C40   C     C_3   0.173576 0.929040 0.932206 -0.811710
H26   H     H_    0.183453 0.959011 0.023519 0.241971
H27   H     H_    0.071758 0.893394 0.920873 0.193944
H28   H     H_    0.234739 0.855037 0.877415 0.259892
N3    N     N_3   0.274092 0.682521 0.296092 -0.565360
H29   H     H_    0.180295 0.656064 0.276885 0.191906
H30   H     H_    0.275431 0.666733 0.367541 0.261568
O10   O     O_3   0.751962 0.153705 0.305057 -0.553452
C41   C     C_3   0.794409 0.119840 0.186095 0.042106
H31   H     H_    0.871099 0.188515 0.171270 0.134468
H32   H     H_    0.712959 0.106973 0.140638 0.134009
C42   C     C_3   0.853711 0.001081 0.134141 -0.821594
H33   H     H_    0.792800 0.934951 0.165327 0.257788
H34   H     H_    0.863426 0.961256 0.038885 0.199993
H35   H     H_    0.950714 0.018275 0.158543 0.230534
N4    N     N_3   0.418645 0.341811 0.601396 -0.537385
H36   H     H_    0.324782 0.308744 0.585155 0.202205
H37   H     H_    0.427209 0.426807 0.671246 0.201323
N5    N     N_3   0.061182 0.795699 0.512403 -0.583689
H38   H     H_    0.015851 0.754661 0.567571 0.205538
H39   H     H_    0.022228 0.747649 0.435938 0.218725

loop_
_geom_bond_atom_site_label_1
_geom_bond_atom_site_label_2
_ccdc_geom_bond_type
C2    C35   S    
C12   O4    A    
N4    H36   S    
Cu2   O6    S    
Cu1   O3    S    
C37   H22   S    
C7    C8    A    
O10   C41   S    
C24   H15   S    
Cu1   N1    S    
C12   O3    A    
C11   C19   A    
C34   H11   S    
C37   C38   S    
C35   H18   S    
C28   C29   A    
C21   H14   S    
C40   H27   S    
C6    C23   S    
C15   C16   A    
C30   H17   S    
Cu2   O8    S    
C35   H19   S    
C34   C35   S    
C33   O7    A    
C4    N5    S    
C8    C9    A    
Cu2   O2    S    
N5    H39   S    
Cu1   O7    S    
C42   H34   S    
C9    C10   A    
C18   O9    S    
C21   C22   A    
C23   O5    A    
C34   H1    S    
C37   H23   S    
C3    H21   S    
C6    C18   A    
C3    H4    S    
C1    C19   S    
Cu2   O4    S    
C27   C31   A    
C23   O6    A    
C9    H9    S    
C24   C25   A    
C32   N1    A    
O9    C39   S    
Cu1   Cu2   S    
C41   H31   S    
C22   H16   S    
C5    C18   A    
C20   C28   A    
C25   C26   A    
C31   N4    S    
C41   C42   S    
C2    C4    S    
C39   H24   S    
C29   C30   A    
C11   C16   A    
N5    H38   S    
C16   N3    S    
C1    O1    A    
C42   H35   S    
C39   H25   S    
C5    C14   A    
C2    C33   S    
C33   O8    A    
C26   C30   A    
C7    C19   A    
Cu2   N2    S    
Cu1   O1    S    
C22   C24   A    
C15   H5    S    
C8    H10   S    
C20   C32   A    
C6    C17   A    
C21   N2    A    
C34   C38   S    
C26   N2    A    
C31   N1    A    
C17   H7    S    
C20   H13   S    
C36   H20   S    
C10   C13   A    
C25   C27   A    
C5    H6    S    
N3    H30   S    
C13   C17   A    
C7    H8    S    
C36   C38   S    
C2    C3    S    
C40   H26   S    
C40   H28   S    
C4    H2    S    
C3    C36   S    
C32   O10   S    
C1    O2    A    
Cu1   O5    S    
C41   H32   S    
C12   C38   S    
C39   C40   S    
C10   C11   A    
C4    C37   S    
N4    H37   S    
N3    H29   S    
C27   C28   A    
C14   C15   A    
C36   H3    S    
C42   H33   S    
C13   C14   A    
C29   H12   S    
