data_mof_unit_1328.cif
_audit_creation_date              2012-12-11T15:09:43-0500
_audit_creation_method            fapswitch 2.2
_symmetry_space_group_name_H-M    P1
_symmetry_Int_Tables_number       1
_space_group_crystal_system       triclinic
_cell_length_a                    21.017281
_cell_length_b                    7.132276
_cell_length_c                    14.009008
_cell_angle_alpha                 90.001835
_cell_angle_beta                  98.460884
_cell_angle_gamma                 89.997887
_cell_volume                      2077.11011142

loop_
_atom_site_label
_atom_site_type_symbol
_atom_type_description
_atom_site_fract_x
_atom_site_fract_y
_atom_site_fract_z
_atom_type_partial_charge
O1    O     O_R   0.447130 0.507140 0.597350 -0.538738
O2    O     O_R   0.552870 0.007140 0.402650 -0.538744
O3    O     O_R   0.578910 0.181280 0.586990 -0.535207
O4    O     O_R   0.421090 0.681280 0.413010 -0.535194
C1    C     C_R   0.604434 0.344460 0.607520 0.724228
C2    C     C_R   0.395566 0.844462 0.392481 0.724217
O5    O     O_R   0.449230 0.177860 0.608640 -0.541417
O6    O     O_R   0.550770 0.677860 0.391360 -0.541410
O7    O     O_R   0.422260 0.000770 0.424450 -0.535753
O8    O     O_R   0.577740 0.500770 0.575550 -0.535729
C3    C     C_R   0.433271 0.346408 0.634765 0.688222
C4    C     C_R   0.566724 0.846398 0.365231 0.688237
O9    O     O_3   0.491310 0.336980 0.439550 -0.373278
O10   O     O_3   0.508690 0.836980 0.560450 -0.373272
V1    V     V_3+5 0.501610 0.064760 0.511210 1.457170
V2    V     V_3+5 0.498390 0.564760 0.488790 1.457212
C5    C     C_R   0.612937 0.891882 0.118985 -0.145192
C6    C     C_R   0.387051 0.392905 0.880970 -0.145203
H1    H     H_    0.523886 0.890025 0.176247 0.113125
H2    H     H_    0.476095 0.391206 0.823685 0.113125
H3    H     H_    0.587686 0.908542 0.046401 0.131059
H4    H     H_    0.412297 0.410033 0.953529 0.131053
C7    C     C_R   0.605376 0.856340 0.287389 -0.025756
C8    C     C_R   0.394621 0.356422 0.712611 -0.025762
C9    C     C_R   0.915846 0.851049 0.299383 -0.163273
C10   C     C_R   0.084163 0.351000 0.700615 -0.163270
C11   C     C_R   0.879074 0.848620 0.373248 -0.120048
C12   C     C_R   0.120938 0.348765 0.626749 -0.120022
C13   C     C_R   0.812549 0.853873 0.352694 -0.145113
C14   C     C_R   0.187463 0.354153 0.647305 -0.145148
C15   C     C_R   0.780218 0.859336 0.256245 0.075998
C16   C     C_R   0.219788 0.359471 0.743759 0.075997
C17   C     C_R   0.817905 0.864658 0.178992 0.010908
C18   C     C_R   0.182099 0.364774 0.821010 0.010911
C19   C     C_R   0.711631 0.862170 0.235480 0.065565
C20   C     C_R   0.288371 0.362322 0.764524 0.065573
C21   C     C_R   0.680873 0.881530 0.138514 0.077428
C22   C     C_R   0.319123 0.382177 0.861467 0.077437
C23   C     C_R   0.717839 0.888575 0.062655 -0.098543
C24   C     C_R   0.282157 0.389285 0.937329 -0.098546
C25   C     C_R   0.785406 0.875629 0.081778 -0.141367
C26   C     C_R   0.214598 0.375930 0.918220 -0.141356
C27   C     C_R   0.672117 0.845729 0.308726 -0.202938
C28   C     C_R   0.327885 0.345392 0.691305 -0.203037
C29   C     C_R   0.575805 0.880805 0.192880 -0.167594
C30   C     C_R   0.424182 0.381621 0.807077 -0.167548
C31   C     C_R   0.886711 0.860142 0.203305 -0.071990
C32   C     C_R   0.113295 0.360121 0.796697 -0.072003
H5    H     H_    0.691087 0.822902 0.383421 0.093317
H6    H     H_    0.308905 0.321864 0.616666 0.093388
H7    H     H_    0.967815 0.847919 0.317380 0.099451
H8    H     H_    0.032194 0.347791 0.682617 0.099452
H9    H     H_    0.788229 0.856699 0.415017 0.107689
H10   H     H_    0.211798 0.357327 0.584996 0.107698
H11   H     H_    0.902382 0.844147 0.447492 0.119224
H12   H     H_    0.097632 0.344395 0.552503 0.119223
C33   C     C_1   0.166713 0.857221 0.167959 -0.158646
C34   C     C_1   0.833287 0.357230 0.832041 -0.158642
C35   C     C_1   0.219163 0.854880 0.218936 0.025697
C36   C     C_1   0.780837 0.354886 0.781064 0.025681
C37   C     C_1   0.280907 0.853347 0.278971 0.029463
C38   C     C_1   0.719093 0.353345 0.721030 0.029421
C39   C     C_1   0.333228 0.851009 0.330316 -0.172451
C40   C     C_1   0.666771 0.351002 0.669685 -0.172464
O11   O     O_R   0.922300 0.202240 0.924350 -0.523608
O12   O     O_R   0.077700 0.702240 0.075650 -0.523622
O13   O     O_R   0.050780 0.535130 0.891350 -0.543247
O14   O     O_R   0.949220 0.035130 0.108650 -0.543252
C41   C     C_R   0.069240 0.368347 0.868004 0.692955
C42   C     C_R   0.930762 0.868354 0.131997 0.692957
O15   O     O_R   0.921100 0.531560 0.912990 -0.528308
O16   O     O_R   0.078900 0.031560 0.087010 -0.528299
O17   O     O_R   0.947120 0.708470 0.097370 -0.539401
O18   O     O_R   0.052880 0.208470 0.902630 -0.539399
C43   C     C_R   0.895846 0.363607 0.893572 0.711340
C44   C     C_R   0.104154 0.863604 0.106427 0.711338
O19   O     O_3   0.008710 0.375800 0.060400 -0.367768
O20   O     O_3   0.991290 0.875800 0.939600 -0.367765
V3    V     V_3+5 0.998380 0.648080 0.988790 1.486718
V4    V     V_3+5 0.001620 0.148080 0.011210 1.486728
C45   C     C_1   0.686275 0.907184 0.963243 0.301125
N1    N     N_1   0.661323 0.922042 0.884254 -0.354393
C46   C     C_1   0.313713 0.408281 0.036726 0.301137
N2    N     N_1   0.338663 0.423438 0.115701 -0.354422
C47   C     C_1   0.818914 0.871804 0.998314 0.293177
N3    N     N_1   0.844162 0.868500 0.930309 -0.309828
C48   C     C_1   0.181098 0.371907 0.001688 0.293174
N4    N     N_1   0.155852 0.368448 0.069694 -0.309854

loop_
_geom_bond_atom_site_label_1
_geom_bond_atom_site_label_2
_ccdc_geom_bond_type
O14   V4    S    
C14   C16   A    
C48   N4    T    
C7    C29   A    
C11   C13   A    
O1    C3    A    
C32   C41   S    
O16   C44   A    
O2    C4    A    
C2    O7    A    
O15   V3    S    
C45   N1    T    
C12   H12   S    
C23   C25   A    
C47   N3    T    
O5    C3    A    
O12   V3    S    
C14   H10   S    
C4    C7    S    
C13   H9    S    
C16   C20   A    
C33   C44   S    
C19   C21   A    
C5    C29   A    
C11   H11   S    
C33   C35   T    
C34   C36   T    
C3    C8    S    
C7    C27   A    
C36   C38   S    
C37   C39   T    
C38   C40   T    
C18   C26   A    
C15   C17   A    
C19   C27   A    
C9    C31   A    
C10   C32   A    
C24   C26   A    
O6    V2    S    
O11   V4    S    
O18   V4    S    
C13   C15   A    
C24   C46   S    
C6    C30   A    
C34   C43   S    
O19   V3    S    
C35   C37   S    
O13   V3    S    
C23   C45   S    
O4    C2    A    
O20   V3    S    
C27   H5    S    
O5    V1    S    
C5    H3    S    
C1    C40   S    
O13   C41   A    
C16   C18   A    
C2    C39   S    
O4    V2    S    
C9    H7    S    
C31   C42   S    
C10   H8    S    
C46   N2    T    
O6    C4    A    
O12   C44   A    
C42   O17   A    
O17   V3    S    
C41   O18   A    
O1    V2    S    
C5    C21   A    
O2    V1    S    
O14   C42   A    
C17   C31   A    
C15   C19   A    
C20   C28   A    
C18   C32   A    
O3    V1    S    
O19   V4    S    
C28   H6    S    
C6    H4    S    
O3    C1    A    
H1    C29   S    
C9    C11   A    
C25   C47   S    
C10   C12   A    
O11   C43   A    
C8    C30   A    
C12   C14   A    
C6    C22   A    
C17   C25   A    
C1    O8    A    
C21   C23   A    
O8    V2    S    
O15   C43   A    
C22   C24   A    
C8    C28   A    
C20   C22   A    
O20   V4    S    
O7    V1    S    
O16   V4    S    
O9    V2    S    
O10   V1    S    
C26   C48   S    
H2    C30   S    
