data_mof_unit_4129.cif
_audit_creation_date              2013-03-05T16:04:39-0500
_audit_creation_method            fapswitch 2.2
_symmetry_space_group_name_H-M    P1
_symmetry_Int_Tables_number       1
_space_group_crystal_system       triclinic
_cell_length_a                    9.533865
_cell_length_b                    10.78708
_cell_length_c                    15.529747
_cell_angle_alpha                 88.82575
_cell_angle_beta                  74.939485
_cell_angle_gamma                 90.412625
_cell_volume                      1541.80736815

loop_
_atom_site_label
_atom_site_type_symbol
_atom_site_description
_atom_site_fract_x
_atom_site_fract_y
_atom_site_fract_z
_atom_type_partial_charge
O1    O     O_R   0.118740 0.319660 0.500000 -0.577850
O2    O     O_R   0.881260 0.680340 0.500000 -0.577851
O3    O     O_R   0.881170 0.319630 0.500010 -0.550763
O4    O     O_R   0.118830 0.680370 0.499990 -0.550754
C1    C     C_R   0.998486 0.262286 0.502282 0.868290
C2    C     C_R   0.001515 0.737714 0.497719 0.868348
O5    O     O_R   0.055570 0.500030 0.629830 -0.535582
O6    O     O_R   0.944430 0.499970 0.370170 -0.535582
O7    O     O_R   0.818000 0.500000 0.629840 -0.560758
O8    O     O_R   0.182000 0.500000 0.370160 -0.560767
C3    C     C_R   0.918989 0.504540 0.672278 0.855837
C4    C     C_R   0.081010 0.495463 0.327721 0.855858
Cu1   Cu    Cu3+1 0.140660 0.500020 0.500000 1.079868
Cu2   Cu    Cu3+1 0.859340 0.499980 0.500000 1.079866
C5    C     C_R   0.874969 0.501817 0.771474 -0.233939
C6    C     C_R   0.125020 0.498181 0.228524 -0.234006
C7    C     C_R   0.900308 0.389166 0.903300 0.279693
C8    C     C_R   0.099609 0.610756 0.096679 0.279807
C9    C     C_R   0.964968 0.444333 0.819633 0.279205
C10   C     C_R   0.034990 0.555622 0.180366 0.279397
C11   C     C_R   0.733059 0.538439 0.817658 -0.114645
C12   C     C_R   0.266927 0.461568 0.182333 -0.114654
C13   C     C_R   0.674289 0.499242 0.908016 0.041939
C14   C     C_R   0.325663 0.500736 0.091967 0.041943
C15   C     C_R   0.752123 0.408598 0.943702 -0.012427
C16   C     C_R   0.247803 0.591351 0.056273 -0.012545
C17   C     C_R   0.535341 0.536177 0.961593 0.115646
C18   C     C_R   0.464602 0.463794 0.038385 0.115616
C19   C     C_R   0.533352 0.355253 0.057125 -0.160598
C20   C     C_R   0.466572 0.644706 0.942849 -0.160587
C21   C     C_R   0.678566 0.335318 0.016924 -0.071265
C22   C     C_R   0.321347 0.664615 0.983038 -0.071377
H1    H     H_    0.729959 0.257010 0.040269 0.207001
H2    H     H_    0.269947 0.742900 0.959673 0.207089
H3    H     H_    0.476632 0.283579 0.102577 0.166257
H4    H     H_    0.523280 0.716391 0.897404 0.166270
C23   C     C_R   0.928137 0.067852 0.447182 -0.211102
C24   C     C_R   0.071880 0.932151 0.552807 -0.211094
H5    H     H_    0.876974 0.121347 0.404122 0.207076
H6    H     H_    0.123054 0.878661 0.595865 0.207050
C25   C     C_R   0.933106 0.939503 0.441036 0.342595
C26   C     C_R   0.066931 0.060499 0.558940 0.342624
C27   C     C_R   0.003901 0.871712 0.495535 -0.176860
C28   C     C_R   0.996107 0.128289 0.504459 -0.176884
C29   C     C_R   0.550676 0.414996 0.550908 0.427762
C30   C     C_R   0.449324 0.585002 0.449090 0.427766
C31   C     C_R   0.402362 0.415721 0.550619 -0.048890
C32   C     C_R   0.597638 0.584279 0.449381 -0.048905
H7    H     H_    0.327669 0.348434 0.591095 0.225817
H8    H     H_    0.672331 0.651566 0.408905 0.225789
N1    N     N_R   0.352080 0.500030 0.499980 -0.264190
N2    N     N_R   0.647920 0.499970 0.500020 -0.264181
C33   C     C_1   0.356302 0.398189 0.231945 0.353908
N3    N     N_1   0.427031 0.348176 0.271992 -0.202579
C34   C     C_1   0.643723 0.601858 0.768040 0.353840
N4    N     N_1   0.573026 0.651902 0.727986 -0.202645
N5    N     N_R   0.880181 0.560991 0.216869 0.159813
O9    O     O_R   0.806125 0.458790 0.241886 -0.326593
O10   O     O_R   0.810678 0.663780 0.214253 -0.214168
N6    N     N_R   0.119787 0.438987 0.783160 0.159723
O11   O     O_R   0.193819 0.541197 0.758128 -0.326696
O12   O     O_R   0.189319 0.336228 0.785830 -0.214218
N7    N     N_R   0.985479 0.314689 0.947590 0.151562
O13   O     O_R   0.980321 0.194443 0.943740 -0.265905
O14   O     O_R   0.081332 0.366874 0.981777 -0.311345
N8    N     N_R   0.014377 0.685143 0.052369 0.151538
O15   O     O_R   0.918056 0.632920 0.018589 -0.311096
O16   O     O_R   0.019813 0.805409 0.055948 -0.266197
N9    N     N_R   0.874731 0.880429 0.375612 0.134513
O17   O     O_R   0.948079 0.794408 0.326565 -0.335275
O18   O     O_R   0.760829 0.925279 0.355201 -0.267449
N10   N     N_R   0.125384 0.119582 0.624323 0.134470
O19   O     O_R   0.052010 0.205516 0.673454 -0.335190
O20   O     O_R   0.239470 0.074855 0.644586 -0.267457
N11   N     N_R   0.597100 0.322809 0.604307 0.153480
O21   O     O_R   0.609683 0.209249 0.576971 -0.304648
O22   O     O_R   0.579413 0.342135 0.688805 -0.303278
N12   N     N_R   0.402903 0.677184 0.395686 0.153472
O23   O     O_R   0.390271 0.790736 0.423031 -0.304698
O24   O     O_R   0.420648 0.657869 0.311181 -0.303235

loop_
_geom_bond_atom_site_label_1
_geom_bond_atom_site_label_2
_geom_bond_distance
_ccdc_geom_bond_type
C15   C21   1.396587 A    
O5    Cu1   1.968065 S    
N8    O16   1.300878 A    
C34   N4    1.158444 T    
N7    O14   1.300313 A    
C16   C22   1.396598 A    
C8    C16   1.408073 A    
O7    Cu2   1.951450 S    
C31   H7    1.081801 S    
C33   N3    1.158439 T    
O5    C3    1.299477 A    
O1    C1    1.290928 A    
C18   C19   1.407628 A    
C24   H6    1.084371 S    
C14   C16   1.419793 A    
C24   C26   1.390019 A    
N12   O24   1.300229 A    
N5    O10   1.301109 A    
N6    O12   1.301108 A    
O4    Cu1   1.958042 S    
N9    O18   1.301504 A    
Cu1   N1    2.015567 S    
C3    C5    1.487304 S    
Cu2   N2    2.015568 S    
C4    C6    1.487319 S    
C6    C12   1.419832 A    
C21   H1    1.082028 S    
C13   C17   1.433278 A    
C6    C10   1.415021 A    
C32   H8    1.081794 S    
N8    O15   1.300333 A    
Cu1   Cu2   2.682065 S    
C17   C20   1.407629 A    
C25   C27   1.408987 A    
O2    C2    1.290938 A    
C26   C28   1.408952 A    
C12   C33   1.454314 S    
C29   C31   1.415250 A    
C30   C32   1.415263 A    
N10   O20   1.301555 A    
C30   N12   1.426795 S    
C11   C34   1.454312 S    
N12   O23   1.300806 A    
C31   N1    1.359492 A    
C29   N2    1.378976 A    
C30   N1    1.378980 A    
N6    O11   1.301356 A    
C22   H2    1.081999 S    
C5    C9    1.415004 A    
N11   O21   1.300825 A    
N11   O22   1.300234 A    
C32   N2    1.359491 A    
O6    C4    1.299471 A    
C26   N10   1.436398 S    
O7    C3    1.301609 A    
O3    Cu2   1.958042 S    
O8    C4    1.301620 A    
O4    C2    1.290122 A    
C1    C28   1.445013 S    
C2    C27   1.445020 S    
C11   C13   1.423184 A    
C12   C14   1.423167 A    
O1    Cu1   1.955253 S    
C25   N9    1.436442 S    
O6    Cu2   1.968066 S    
C14   C18   1.433260 A    
N10   O19   1.300667 A    
O3    C1    1.290130 A    
O8    Cu1   1.951452 S    
C9    N6    1.439059 S    
C8    N8    1.433541 S    
C19   H3    1.077810 S    
C20   H4    1.077797 S    
C29   N11   1.426804 S    
C7    C15   1.408033 A    
C23   C28   1.397637 A    
C24   C27   1.397649 A    
C23   H5    1.084367 S    
C7    N7    1.433485 S    
C20   C22   1.383234 A    
N5    O9    1.301355 A    
C7    C9    1.403273 A    
C8    C10   1.403298 A    
C13   C15   1.419793 A    
C23   C25   1.390047 A    
N9    O17   1.300662 A    
O2    Cu2   1.955253 S    
N7    O13   1.300878 A    
C5    C11   1.419847 A    
C19   C21   1.383224 A    
C17   C18   1.422309 A    
C10   N5    1.439043 S    
