data_mof_unit_529.cif
_audit_creation_date              2013-03-05T16:21:22-0500
_audit_creation_method            fapswitch 2.2
_symmetry_space_group_name_H-M    P1
_symmetry_Int_Tables_number       1
_space_group_crystal_system       triclinic
_cell_length_a                    8.750527
_cell_length_b                    15.167308
_cell_length_c                    13.962414
_cell_angle_alpha                 89.472392
_cell_angle_beta                  96.032589
_cell_angle_gamma                 93.464234
_cell_volume                      1839.48154273

loop_
_atom_site_label
_atom_site_type_symbol
_atom_site_description
_atom_site_fract_x
_atom_site_fract_y
_atom_site_fract_z
_atom_type_partial_charge
O1    O     O_R   0.500010 0.371450 0.581430 -0.570735
O2    O     O_R   0.499990 0.628550 0.418570 -0.585010
O3    O     O_R   0.500010 0.371460 0.418560 -0.564252
O4    O     O_R   0.499990 0.628540 0.581440 -0.582162
C1    C     C_R   0.521074 0.331745 0.501447 0.801063
C2    C     C_R   0.489150 0.669825 0.498907 0.785095
O5    O     O_R   0.274840 0.499990 0.562640 -0.569540
O6    O     O_R   0.725160 0.500010 0.437360 -0.574922
O7    O     O_R   0.274840 0.500000 0.399770 -0.616353
O8    O     O_R   0.725160 0.500000 0.600230 -0.609838
C3    C     C_R   0.204358 0.496418 0.476523 0.870453
C4    C     C_R   0.795671 0.503720 0.523536 0.861070
Cu1   Cu    Cu3+1 0.500000 0.499990 0.596430 0.935705
Cu2   Cu    Cu3+1 0.500000 0.500010 0.403570 0.938322
C5    C     C_2   0.039507 0.485871 0.465940 -0.349340
C6    C     C_2   0.960608 0.514184 0.534460 -0.355671
H1    H     H_    0.982480 0.452840 0.402240 0.146421
H2    H     H_    0.017558 0.545879 0.599122 0.148417
C7    C     C_R   0.522196 0.099445 0.590050 0.001504
C8    C     C_R   0.446185 0.908414 0.413764 -0.017629
C9    C     C_R   0.563646 0.190292 0.591736 0.335766
C10   C     C_R   0.437011 0.815432 0.411713 0.320789
C11   C     C_R   0.558017 0.237318 0.504022 -0.213606
C12   C     C_R   0.474273 0.766971 0.497955 -0.213781
C13   C     C_R   0.581340 0.190410 0.420231 -0.049664
C14   C     C_R   0.501136 0.813944 0.585334 -0.040383
C15   C     C_R   0.582037 0.098432 0.424195 -0.224790
C16   C     C_R   0.551575 0.902630 0.581030 -0.209254
H3    H     H_    0.612825 0.063595 0.362416 0.148946
H4    H     H_    0.605599 0.934625 0.645431 0.146189
C17   C     C_R   0.535736 0.051432 0.504366 -0.006549
C18   C     C_R   0.512525 0.953033 0.498529 -0.015610
C19   C     C_R   0.635424 0.518523 0.116049 0.269417
C20   C     C_R   0.447327 0.424902 0.890079 0.286894
C21   C     C_R   0.626467 0.531768 0.215109 0.136431
C22   C     C_R   0.428208 0.430971 0.787951 0.074386
N1    N     N_R   0.500000 0.500020 0.258690 -0.218011
N2    N     N_R   0.500000 0.499980 0.741310 -0.210846
C23   C     C_R   0.372741 0.467686 0.201970 -0.032439
C24   C     C_R   0.569845 0.569093 0.794292 -0.015101
H5    H     H_    0.272266 0.443738 0.235443 0.140271
H6    H     H_    0.622864 0.623680 0.756947 0.147779
C25   C     C_R   0.365463 0.470113 0.100067 -0.090659
C26   C     C_R   0.565606 0.573445 0.895635 -0.155461
C27   C     C_R   0.500546 0.495104 0.054708 0.008964
C28   C     C_R   0.502516 0.499144 0.945314 -0.000171
C29   C     C_R   0.446962 0.060644 0.673148 0.116154
C30   C     C_R   0.298638 0.018703 0.657506 -0.177540
C31   C     C_R   0.222095 0.987507 0.735217 -0.117568
C32   C     C_R   0.292738 0.997686 0.829225 -0.096770
C33   C     C_R   0.441868 0.036637 0.845519 -0.179967
C34   C     C_R   0.519283 0.067430 0.768005 -0.124090
H7    H     H_    0.240631 0.012235 0.585324 0.120624
H8    H     H_    0.107385 0.956158 0.722576 0.125095
H9    H     H_    0.233053 0.973887 0.889362 0.115190
H10   H     H_    0.497724 0.042771 0.918279 0.122372
H11   H     H_    0.635627 0.096119 0.782229 0.166852
C35   C     C_R   0.372723 0.955899 0.329177 0.164805
C36   C     C_R   0.240521 0.002230 0.337345 -0.148093
C37   C     C_R   0.166480 0.042871 0.256460 -0.160386
C38   C     C_R   0.224031 0.037695 0.167087 -0.137252
C39   C     C_R   0.356161 0.992222 0.158535 -0.153431
C40   C     C_R   0.430179 0.951280 0.239160 -0.094767
H12   H     H_    0.193800 0.005827 0.405880 0.112595
H13   H     H_    0.064337 0.078275 0.263015 0.129802
H14   H     H_    0.166777 0.069333 0.104608 0.123645
H15   H     H_    0.401025 0.988516 0.089424 0.116159
H16   H     H_    0.532574 0.916331 0.231896 0.116193
O9    O     O_3   0.615511 0.229904 0.678545 -0.789407
H17   H     H_    0.680253 0.283823 0.666689 0.326813
O10   O     O_3   0.377682 0.775262 0.326579 -0.767121
H18   H     H_    0.322372 0.719490 0.342089 0.324127
C41   C     C_R   0.613691 0.233965 0.328880 0.173743
C42   C     C_R   0.507359 0.222876 0.246826 -0.157021
C43   C     C_R   0.541906 0.258393 0.158485 -0.145493
C44   C     C_R   0.682922 0.305029 0.151492 -0.090720
C45   C     C_R   0.789037 0.316999 0.233139 -0.159275
C46   C     C_R   0.754537 0.281830 0.321867 -0.126813
H19   H     H_    0.398149 0.186652 0.251488 0.145785
H20   H     H_    0.459695 0.249143 0.095430 0.171745
H21   H     H_    0.709499 0.332093 0.082833 0.147523
H22   H     H_    0.898579 0.352646 0.227404 0.121456
H23   H     H_    0.838250 0.290333 0.384479 0.108092
C47   C     C_R   0.431394 0.782442 0.673966 0.152717
C48   C     C_R   0.288177 0.733087 0.665074 -0.079063
C49   C     C_R   0.209292 0.714523 0.745548 -0.158468
C50   C     C_R   0.267412 0.748855 0.835131 -0.147598
C51   C     C_R   0.406254 0.799801 0.844545 -0.109408
C52   C     C_R   0.490825 0.813772 0.765823 -0.145048
H24   H     H_    0.234596 0.710791 0.595369 0.104352
H25   H     H_    0.100327 0.676136 0.737739 0.111438
H26   H     H_    0.203844 0.737195 0.896922 0.117938
H27   H     H_    0.447515 0.830170 0.912758 0.141414
H28   H     H_    0.599491 0.852086 0.776660 0.116911
O11   O     O_3   0.776519 0.533996 0.081216 -0.745207
H29   H     H_    0.775623 0.500906 0.020723 0.334937
O12   O     O_3   0.405466 0.348614 0.937828 -0.757818
H30   H     H_    0.419389 0.297306 0.897389 0.314023
C53   C     C_R   0.745439 0.593438 0.264414 0.189486
C54   C     C_R   0.707365 0.679097 0.285336 -0.104242
C55   C     C_R   0.821025 0.742661 0.320657 -0.157403
C56   C     C_R   0.975301 0.722314 0.330475 -0.127635
C57   C     C_R   0.015020 0.638862 0.303582 -0.143191
C58   C     C_R   0.901076 0.574858 0.270810 -0.056769
H31   H     H_    0.590177 0.697452 0.270293 0.179751
H32   H     H_    0.789818 0.808274 0.337654 0.133392
H33   H     H_    0.063676 0.771860 0.356484 0.150283
H34   H     H_    0.133599 0.622956 0.306777 0.144819
H35   H     H_    0.934609 0.511532 0.247898 0.126727
C59   C     C_R   0.294233 0.379028 0.738462 0.180165
C60   C     C_R   0.296029 0.287876 0.722574 -0.135214
C61   C     C_R   0.163233 0.239149 0.685006 -0.141993
C62   C     C_R   0.024186 0.279308 0.669356 -0.136964
C63   C     C_R   0.017725 0.367982 0.692819 -0.155639
C64   C     C_R   0.152354 0.418100 0.725362 -0.068154
H36   H     H_    0.396546 0.253228 0.744521 0.189211
H37   H     H_    0.166238 0.169517 0.671524 0.149431
H38   H     H_    0.921398 0.240730 0.641846 0.140592
H39   H     H_    0.908186 0.397554 0.686974 0.146547
H40   H     H_    0.145767 0.486979 0.743219 0.106320
C65   C     C_R   0.215469 0.445914 0.044108 0.190593
C66   C     C_R   0.149379 0.503903 0.974686 -0.112052
C67   C     C_R   0.012993 0.477964 0.918100 -0.144733
C68   C     C_R   0.941832 0.394147 0.930067 -0.120650
C69   C     C_R   0.004674 0.337010 0.000551 -0.131491
C70   C     C_R   0.140035 0.362970 0.058100 -0.096049
H41   H     H_    0.204254 0.568564 0.963611 0.107258
H42   H     H_    0.962956 0.522493 0.864249 0.114434
H43   H     H_    0.836798 0.374067 0.885624 0.133064
H44   H     H_    0.948866 0.272398 0.010351 0.121043
H45   H     H_    0.188640 0.317365 0.111430 0.106328
C71   C     C_R   0.632714 0.654779 0.947193 0.190744
C72   C     C_R   0.555722 0.693868 0.018065 -0.124024
C73   C     C_R   0.622726 0.767885 0.068765 -0.178418
C74   C     C_R   0.766568 0.804172 0.049161 -0.097069
C75   C     C_R   0.843440 0.766770 0.978299 -0.116317
C76   C     C_R   0.777114 0.692641 0.927417 -0.122215
H46   H     H_    0.442804 0.667994 0.033289 0.113792
H47   H     H_    0.562139 0.797489 0.122673 0.140220
H48   H     H_    0.818135 0.861473 0.088618 0.123864
H49   H     H_    0.954886 0.795014 0.963033 0.114379
H50   H     H_    0.840005 0.663999 0.873905 0.091494

loop_
_geom_bond_atom_site_label_1
_geom_bond_atom_site_label_2
_geom_bond_distance
_ccdc_geom_bond_type
C50   C51   1.394739 A    
C55   C56   1.395416 A    
C15   H3    1.081785 S    
C19   C27   1.412504 A    
C41   C42   1.402566 A    
O11   H29   0.985546 S    
C76   H50   1.082183 S    
C7    C17   1.425444 A    
C74   H48   1.082414 S    
O12   H30   0.986545 S    
C67   C68   1.397891 A    
C23   H5    1.080754 S    
C45   C46   1.399068 A    
O5    C3    1.292435 A    
C54   H31   1.077644 S    
C75   H49   1.082366 S    
C69   C70   1.397525 A    
C39   H15   1.082459 S    
O1    C1    1.308761 A    
C45   H22   1.081788 S    
C21   N1    1.377887 A    
C12   C14   1.409543 A    
C49   H25   1.082715 S    
C58   H35   1.081861 S    
C7    C29   1.492344 S    
C5    C6    1.326114 D    
C66   H41   1.082697 S    
C20   O12   1.379637 S    
C33   H10   1.082362 S    
C52   H28   1.081371 S    
C59   C60   1.403518 A    
C56   C57   1.397590 A    
C51   H27   1.079505 S    
C3    C5    1.433900 S    
C38   H14   1.082492 S    
C4    C6    1.434578 S    
C71   C72   1.408469 A    
O6    Cu2   1.977159 S    
C41   C46   1.404118 A    
C60   H36   1.067698 S    
C20   C28   1.402840 A    
C74   C75   1.396268 A    
C43   H20   1.081330 S    
C25   C65   1.483044 S    
C24   C26   1.421616 A    
C20   C22   1.420950 A    
C63   H39   1.077700 S    
C24   H6    1.081251 S    
C53   C58   1.400907 A    
C36   C37   1.398859 A    
Cu1   Cu2   2.692788 S    
O2    C2    1.304451 A    
C21   C53   1.475199 S    
C19   O11   1.380250 S    
C61   C62   1.389399 A    
C26   C28   1.430673 A    
C63   C64   1.399213 A    
C30   H7    1.082264 S    
C65   C66   1.405540 A    
C42   C43   1.396222 A    
C15   C17   1.403942 A    
C33   C34   1.398185 A    
C29   C30   1.407168 A    
C16   C18   1.400253 A    
C47   C48   1.414915 A    
O4    C2    1.303821 A    
C73   H47   1.080789 S    
O7    Cu2   1.965393 S    
C49   C50   1.393054 A    
C23   C25   1.417765 A    
C71   C76   1.409037 A    
C48   C49   1.397132 A    
C9    O9    1.378725 S    
C37   C38   1.398433 A    
C43   C44   1.396816 A    
C39   C40   1.398153 A    
O7    C3    1.290574 A    
C53   C54   1.401448 A    
C1    C11   1.486451 S    
O5    Cu1   1.977161 S    
O6    C4    1.293295 A    
C2    C12   1.486812 S    
C32   C33   1.396644 A    
C36   H12   1.082453 S    
C56   H33   1.081855 S    
C44   C45   1.398461 A    
C25   C27   1.428563 A    
Cu1   N2    2.022873 S    
C73   C74   1.395729 A    
O3    Cu2   1.959046 S    
O8    C4    1.290012 A    
C30   C31   1.398141 A    
C8    C10   1.408105 A    
C37   H13   1.082450 S    
C31   C32   1.396602 A    
C42   H19   1.080885 S    
C9    C11   1.409443 A    
C22   C59   1.483472 S    
C72   C73   1.397509 A    
C10   C12   1.423611 A    
O1    Cu1   1.962744 S    
C47   C52   1.407969 A    
C8    C35   1.485768 S    
C10   O10   1.378078 S    
C55   H32   1.082625 S    
C62   C63   1.393050 A    
C8    C18   1.420778 A    
C35   C40   1.405733 A    
C5    H1    1.084327 S    
C40   H16   1.082406 S    
C14   C47   1.498261 S    
C60   C61   1.395318 A    
C7    C9    1.403260 A    
C17   C18   1.495797 S    
C75   C76   1.398173 A    
O3    C1    1.300740 A    
O8    Cu1   1.965391 S    
C44   H21   1.081513 S    
C46   H23   1.083305 S    
C48   H24   1.082779 S    
C29   C34   1.408436 A    
C26   C71   1.491586 S    
C14   C16   1.392879 A    
C32   H9    1.082542 S    
C22   N2    1.381398 A    
C35   C36   1.404470 A    
C65   C70   1.406681 A    
N1    C23   1.365122 A    
Cu2   N1    2.022875 S    
N2    C24   1.364349 A    
C67   H42   1.081846 S    
C61   H37   1.076843 S    
C70   H45   1.083196 S    
C16   H4    1.076330 S    
C54   C55   1.397024 A    
C19   C21   1.410429 A    
C68   H43   1.082756 S    
C13   C41   1.476884 S    
C11   C13   1.414078 A    
C38   C39   1.397734 A    
O2    Cu2   1.962746 S    
O9    H17   0.989137 S    
C34   H11   1.082043 S    
C69   H44   1.082281 S    
C62   H38   1.080198 S    
C27   C28   1.529938 S    
C72   H46   1.082252 S    
O10   H18   0.982795 S    
C51   C52   1.395854 A    
C6    H2    1.085840 S    
C64   H40   1.082587 S    
C57   C58   1.393280 A    
C57   H34   1.075718 S    
C66   C67   1.397896 A    
C50   H26   1.082211 S    
C59   C64   1.401858 A    
C31   H8    1.082318 S    
O4    Cu1   1.959047 S    
C68   C69   1.396441 A    
C13   C15   1.396007 A    
