data_mof_unit_128.cif
_audit_creation_date              2012-12-10T19:33:12-0500
_audit_creation_method            fapswitch 2.2
_symmetry_space_group_name_H-M    P1
_symmetry_Int_Tables_number       1
_space_group_crystal_system       triclinic
_cell_length_a                    8.806174
_cell_length_b                    15.786447
_cell_length_c                    17.019196
_cell_angle_alpha                 94.028571
_cell_angle_beta                  89.808003
_cell_angle_gamma                 85.114375
_cell_volume                      2351.45319613

loop_
_atom_site_label
_atom_site_type_symbol
_atom_type_description
_atom_site_fract_x
_atom_site_fract_y
_atom_site_fract_z
_atom_type_partial_charge
C1    C     C_R   0.503464 0.491611 0.348183 0.809716
C2    C     C_R   0.494987 0.508686 0.651337 0.840355
C3    C     C_R   0.420987 0.755380 0.462505 -0.074123
C4    C     C_R   0.576085 0.244241 0.538589 -0.121689
C5    C     C_R   0.425449 0.843810 0.456602 0.043995
C6    C     C_R   0.570220 0.155747 0.543812 0.054261
C7    C     C_R   0.534528 0.886978 0.501792 0.296478
C8    C     C_R   0.463846 0.112909 0.496367 0.300008
C9    C     C_R   0.634803 0.839082 0.548694 -0.462024
C10   C     C_R   0.367169 0.161188 0.448035 -0.455548
C11   C     C_R   0.624086 0.750415 0.554020 0.709848
C12   C     C_R   0.379301 0.249573 0.443776 0.709438
C13   C     C_R   0.206219 0.521338 0.499690 0.809862
C14   C     C_R   0.793802 0.478667 0.500130 0.786852
C15   C     C_2   0.042723 0.532458 0.492499 0.209326
C16   C     C_2   0.957330 0.467578 0.507053 0.199254
C17   C     C_R   0.518776 0.492234 0.261605 -0.167950
C18   C     C_R   0.476818 0.508710 0.736981 -0.144890
C19   C     C_R   0.519510 0.570261 0.224239 0.436828
C20   C     C_R   0.377299 0.454203 0.769566 0.416245
C21   C     C_R   0.526053 0.569320 0.141461 0.059430
C22   C     C_R   0.358700 0.455489 0.852125 0.046051
C23   C     C_R   0.549436 0.490296 0.097112 0.279606
C24   C     C_R   0.450851 0.505243 0.900649 0.303155
C25   C     C_R   0.558724 0.414066 0.134497 -0.232209
C26   C     C_R   0.551168 0.557685 0.867453 -0.218183
C27   C     C_R   0.539867 0.414828 0.215745 -0.307431
C28   C     C_R   0.561717 0.560623 0.786280 -0.323698
Cu1   Cu    Cu3+1 0.492520 0.415770 0.496210 0.999552
Cu2   Cu    Cu3+1 0.507480 0.584230 0.503790 1.002798
H1    H     H_    0.576745 0.353662 0.100057 0.157219
H2    H     H_    0.619974 0.597217 0.904786 0.155168
H3    H     H_    0.544314 0.354639 0.242822 0.185429
H4    H     H_    0.639152 0.601767 0.761872 0.182099
H5    H     H_    0.653575 0.278434 0.575509 0.156502
H6    H     H_    0.341849 0.720909 0.426967 0.176857
H7    H     H_    0.722235 0.871590 0.579871 0.165161
H8    H     H_    0.281045 0.129798 0.414628 0.168160
N1    N     N_2   0.563164 0.486636 0.014464 -0.254204
N2    N     N_2   0.438046 0.504731 0.983220 -0.236224
N3    N     N_R   0.518730 0.710760 0.509500 -0.226010
N4    N     N_R   0.481270 0.289240 0.490500 -0.220009
N5    N     N_2   0.558159 0.975238 0.496898 -0.225995
N6    N     N_2   0.439386 0.024709 0.500619 -0.226545
O1    O     O_R   0.493000 0.421040 0.382520 -0.560353
O2    O     O_R   0.507000 0.578960 0.617480 -0.558565
O3    O     O_R   0.505640 0.563310 0.388930 -0.561126
O4    O     O_R   0.494360 0.436690 0.611070 -0.575598
O5    O     O_R   0.269980 0.445280 0.497530 -0.498737
O6    O     O_R   0.730020 0.554720 0.502470 -0.510540
O7    O     O_R   0.282610 0.587550 0.503940 -0.592870
O8    O     O_R   0.717390 0.412450 0.496060 -0.588662
O9    O     O_3   0.976818 0.611784 0.474400 -0.540250
C29   C     C_3   0.008552 0.623909 0.394808 -0.327857
H9    H     H_    0.971846 0.570728 0.354806 0.128067
H10   H     H_    0.131266 0.631296 0.384890 0.170093
H11   H     H_    0.944480 0.683793 0.379066 0.179248
O10   O     O_3   0.023158 0.388330 0.525374 -0.547041
C30   C     C_3   0.994289 0.377524 0.605520 -0.256925
H12   H     H_    0.871760 0.370577 0.616681 0.134133
H13   H     H_    0.032712 0.431133 0.644360 0.179264
H14   H     H_    0.058736 0.317922 0.621581 0.192908
O11   O     O_3   0.290369 0.404889 0.719966 -0.602194
C31   C     C_3   0.356908 0.319899 0.712890 -0.296691
H15   H     H_    0.483498 0.314055 0.718836 0.150121
H16   H     H_    0.331203 0.291397 0.653546 0.198245
H17   H     H_    0.304809 0.281552 0.756166 0.158789
O12   O     O_3   0.507390 0.648087 0.267764 -0.573681
C32   C     C_3   0.655742 0.670253 0.286848 -0.309495
H18   H     H_    0.718902 0.621015 0.320422 0.173997
H19   H     H_    0.646481 0.730622 0.324661 0.189825
H20   H     H_    0.723444 0.680345 0.233672 0.124569
C33   C     C_3   0.239868 0.405548 0.888548 -0.362679
C34   C     C_3   0.312267 0.327567 0.927311 -0.833500
H21   H     H_    0.373264 0.346872 0.981667 0.270629
H22   H     H_    0.221800 0.287043 0.943756 0.232185
H23   H     H_    0.394008 0.289159 0.886492 0.239825
H24   H     H_    0.171839 0.447606 0.933195 0.200866
H25   H     H_    0.157182 0.384107 0.843887 0.222938
C35   C     C_3   0.505042 0.652637 0.101380 -0.350452
C36   C     C_3   0.337202 0.686031 0.100866 -0.794654
H26   H     H_    0.268557 0.638447 0.069772 0.252854
H27   H     H_    0.292841 0.699951 0.161984 0.266698
H28   H     H_    0.324390 0.745774 0.069862 0.225405
H29   H     H_    0.571118 0.701908 0.131252 0.202725
H30   H     H_    0.548693 0.645306 0.039947 0.200258
C37   C     C_3   0.671953 0.111849 0.603095 -0.363280
C38   C     C_3   0.580352 0.085284 0.672285 -0.832333
H31   H     H_    0.513962 0.141695 0.701745 0.232905
H32   H     H_    0.659459 0.056768 0.715782 0.231161
H33   H     H_    0.501126 0.037265 0.652618 0.273240
H34   H     H_    0.740996 0.056072 0.574457 0.220096
H35   H     H_    0.755701 0.155376 0.627501 0.178069
C39   C     C_3   0.318838 0.887180 0.399054 -0.356929
C40   C     C_3   0.404597 0.912991 0.327549 -0.808110
H36   H     H_    0.322199 0.943109 0.286464 0.227592
H37   H     H_    0.465339 0.855929 0.296058 0.257444
H38   H     H_    0.488084 0.959431 0.345102 0.265614
H39   H     H_    0.233297 0.843536 0.376998 0.184161
H40   H     H_    0.251771 0.943174 0.428540 0.216507
O13   O     O_3   0.725425 0.700060 0.597293 -0.516491
C41   C     C_3   0.769210 0.742850 0.668125 -0.350810
H41   H     H_    0.670679 0.779342 0.699658 0.143582
H42   H     H_    0.861164 0.784562 0.656906 0.171425
H43   H     H_    0.817393 0.694615 0.707576 0.180243
O14   O     O_3   0.280624 0.298855 0.398693 -0.518860
C42   C     C_3   0.277163 0.263342 0.320309 -0.337669
H44   H     H_    0.234700 0.314280 0.282196 0.192106
H45   H     H_    0.196410 0.212971 0.314921 0.160765
H46   H     H_    0.392277 0.238086 0.297611 0.134883

loop_
_geom_bond_atom_site_label_1
_geom_bond_atom_site_label_2
_ccdc_geom_bond_type
C25   H1    S    
Cu2   O7    S    
C26   H2    S    
O13   C41   S    
Cu1   N4    S    
C2    C18   S    
C33   C34   S    
C40   H36   S    
C37   C38   S    
C5    C39   S    
C40   H38   S    
Cu1   O5    S    
O9    C29   S    
C27   H3    S    
C35   H29   S    
C34   H22   S    
C15   O9    S    
C19   C21   A    
C24   C26   A    
O14   C42   S    
C15   C16   D    
C41   H43   S    
C32   H19   S    
C12   N4    A    
C24   N2    S    
C13   O7    A    
C14   O8    A    
O12   C32   S    
C34   H23   S    
C35   H30   S    
C42   H44   S    
Cu2   N3    S    
C7    N5    S    
C18   C20   A    
Cu2   O6    S    
C4    H5    S    
C28   H4    S    
C30   H12   S    
C37   H34   S    
C42   H45   S    
C32   H18   S    
C36   H27   S    
C36   H26   S    
C29   H10   S    
C30   H13   S    
C34   H21   S    
Cu1   O4    S    
C41   H41   S    
C17   C27   A    
C31   H17   S    
Cu2   O3    S    
C18   C28   A    
C4    C6    A    
N1    N2    D    
C5    C7    A    
C1    O3    A    
C6    C8    A    
C2    O4    A    
O10   C30   S    
C2    O2    A    
C6    C37   S    
Cu1   O1    S    
C31   H16   S    
C32   H20   S    
N5    N6    D    
Cu1   Cu2   S    
C38   H33   S    
C39   H40   S    
C33   H24   S    
C9    H7    S    
C33   H25   S    
C19   O12   S    
C11   O13   S    
C16   O10   S    
C41   H42   S    
C9    C11   A    
C10   C12   A    
C13   O5    A    
C20   C22   A    
C13   C15   S    
C42   H46   S    
C14   C16   S    
C36   H28   S    
C7    C9    A    
C29   H9    S    
C3    N3    A    
C30   H14   S    
C26   C28   A    
Cu2   O2    S    
C8    N6    S    
C38   H32   S    
C35   C36   S    
C3    C5    A    
C40   H37   S    
C25   C27   A    
C1    C17   S    
C10   H8    S    
C3    H6    S    
C31   H15   S    
C20   O11   S    
C21   C23   A    
C12   O14   S    
C1    O1    A    
C14   O6    A    
C4    N4    A    
C39   H39   S    
C23   N1    S    
C37   H35   S    
C21   C35   S    
C17   C19   A    
C11   N3    A    
C22   C24   A    
C23   C25   A    
C39   C40   S    
O11   C31   S    
C38   H31   S    
C8    C10   A    
C22   C33   S    
C29   H11   S    
Cu1   O8    S    
