data_mof_unit_1684.cif
_audit_creation_date              2012-12-10T17:11:31-0500
_audit_creation_method            fapswitch 2.2
_symmetry_space_group_name_H-M    P1
_symmetry_Int_Tables_number       1
_space_group_crystal_system       triclinic
_cell_length_a                    14.982097
_cell_length_b                    13.00184
_cell_length_c                    11.661225
_cell_angle_alpha                 100.959053
_cell_angle_beta                  93.4858
_cell_angle_gamma                 90.701981
_cell_volume                      2225.33767117

loop_
_atom_site_label
_atom_site_type_symbol
_atom_type_description
_atom_site_fract_x
_atom_site_fract_y
_atom_site_fract_z
_atom_type_partial_charge
C1    C     C_R   0.498485 0.298556 0.477280 0.840159
C2    C     C_R   0.502668 0.701389 0.522526 0.844548
C3    C     C_R   0.048339 0.315888 0.510782 -0.265462
C4    C     C_R   0.953579 0.690206 0.527512 -0.274730
C5    C     C_R   0.505646 0.815668 0.536734 -0.143158
C6    C     C_R   0.497093 0.184147 0.462275 -0.133341
C7    C     C_R   0.489361 0.009406 0.342756 -0.276563
C8    C     C_R   0.516263 0.990323 0.656156 -0.297304
C9    C     C_R   0.487352 0.118339 0.350233 0.431759
C10   C     C_R   0.520662 0.881708 0.647794 0.463438
C11   C     C_R   0.505203 0.140516 0.563307 -0.296835
C12   C     C_R   0.495312 0.859177 0.435827 -0.291060
C13   C     C_R   0.505460 0.032818 0.554974 0.107741
C14   C     C_R   0.496649 0.966946 0.444131 0.105851
C15   C     C_R   0.405470 0.411660 0.023138 -0.101886
C16   C     C_R   0.585941 0.599251 0.978902 -0.095879
C17   C     C_R   0.418088 0.418107 0.145031 0.005656
C18   C     C_R   0.578238 0.586617 0.856050 0.022122
C19   C     C_R   0.538685 0.539390 0.157847 0.047564
C20   C     C_R   0.460604 0.461348 0.842230 0.059716
C21   C     C_R   0.529911 0.537676 0.035279 0.006265
C22   C     C_R   0.464001 0.469909 0.966031 0.000388
C23   C     C_R   0.328950 0.501819 0.500683 0.870920
C24   C     C_R   0.671073 0.498618 0.499073 0.858791
C25   C     C_R   0.814043 0.592514 0.512591 -0.305648
C26   C     C_R   0.187107 0.411614 0.509770 -0.282447
C27   C     C_R   0.767337 0.497220 0.497458 -0.136699
C28   C     C_R   0.232716 0.503635 0.501878 -0.134018
C29   C     C_R   0.811916 0.401744 0.483542 0.389309
C30   C     C_R   0.187130 0.596127 0.494662 0.382102
C31   C     C_R   0.906368 0.403494 0.500383 -0.104078
C32   C     C_R   0.094311 0.598992 0.511660 -0.104787
C33   C     C_R   0.953561 0.500436 0.509363 -0.029712
C34   C     C_R   0.047443 0.503185 0.510712 -0.028486
C35   C     C_R   0.906899 0.594657 0.515404 0.079820
C36   C     C_R   0.094370 0.409720 0.509654 0.079430
C37   C     C_R   0.955198 0.312252 0.509356 0.430584
C38   C     C_R   0.046767 0.693829 0.529920 0.435368
Cu1   Cu    Cu3+1 0.506660 0.507730 0.615930 0.973455
Cu2   Cu    Cu3+1 0.493340 0.492270 0.384070 0.937403
H1    H     H_    0.777642 0.664914 0.520822 0.147285
H2    H     H_    0.224090 0.340822 0.512928 0.146275
H3    H     H_    0.084731 0.244623 0.512870 0.159071
H4    H     H_    0.917739 0.762949 0.536221 0.162255
H5    H     H_    0.486247 0.809226 0.349969 0.192815
H6    H     H_    0.512439 0.190413 0.649333 0.174168
H7    H     H_    0.485992 0.957793 0.257860 0.157329
H8    H     H_    0.522466 0.041475 0.741377 0.137424
H9    H     H_    0.414847 0.407038 0.785570 0.180756
H10   H     H_    0.590206 0.586214 0.213169 0.183457
H11   H     H_    0.621031 0.632260 0.812530 0.129303
H12   H     H_    0.373650 0.374886 0.189444 0.121238
N1    N     N_R   0.516670 0.519360 0.790130 -0.194534
N2    N     N_R   0.483330 0.480640 0.209870 -0.196601
O1    O     O_R   0.504720 0.354460 0.582000 -0.600648
O2    O     O_R   0.495280 0.645540 0.418000 -0.607195
O3    O     O_R   0.493480 0.341410 0.386200 -0.553798
O4    O     O_R   0.506520 0.658590 0.613800 -0.534418
O5    O     O_R   0.375880 0.506510 0.597910 -0.570065
O6    O     O_R   0.624120 0.493490 0.402090 -0.606299
O7    O     O_R   0.364640 0.493450 0.402110 -0.609766
O8    O     O_R   0.635360 0.506550 0.597890 -0.590223
C39   C     C_2   0.328508 0.345973 0.962734 0.302998
H13   H     H_    0.305031 0.280202 0.998658 0.059778
O9    O     O_2   0.286789 0.367848 0.877789 -0.552501
C40   C     C_2   0.651910 0.679373 0.042173 0.291501
H14   H     H_    0.711800 0.695862 0.000319 0.067176
O10   O     O_2   0.637915 0.732379 0.137252 -0.562787
O11   O     O_3   0.761553 0.308890 0.459744 -0.615416
C41   C     C_3   0.771356 0.255677 0.343117 0.090097
H15   H     H_    0.757849 0.171020 0.340547 0.192092
H16   H     H_    0.840294 0.262069 0.313783 0.146875
C42   C     C_3   0.704211 0.293407 0.256652 -0.354213
H17   H     H_    0.636270 0.291163 0.288488 0.284173
H18   H     H_    0.721723 0.375249 0.250047 0.215297
C43   C     C_3   0.703738 0.224603 0.135005 -0.904863
H19   H     H_    0.771119 0.225384 0.100295 0.249199
H20   H     H_    0.655004 0.254983 0.074708 0.257943
H21   H     H_    0.683572 0.142749 0.138317 0.266636
O12   O     O_3   0.235640 0.683500 0.478601 -0.614017
C44   C     C_3   0.212491 0.707775 0.366935 0.099523
H22   H     H_    0.221837 0.793833 0.375116 0.184731
H23   H     H_    0.141283 0.689095 0.335658 0.143125
C45   C     C_3   0.273560 0.652806 0.274815 -0.369941
H24   H     H_    0.344432 0.668257 0.307472 0.261271
H25   H     H_    0.259286 0.567054 0.258052 0.226501
C46   C     C_3   0.259196 0.691353 0.159538 -0.908024
H26   H     H_    0.188735 0.676468 0.124135 0.259825
H27   H     H_    0.303821 0.648878 0.094778 0.277709
H28   H     H_    0.275331 0.776587 0.172653 0.249827
O13   O     O_3   0.913315 0.217452 0.512423 -0.607439
C47   C     C_3   0.889693 0.215335 0.627732 0.123780
H29   H     H_    0.829058 0.163868 0.620665 0.180240
H30   H     H_    0.871253 0.293523 0.677388 0.131509
C48   C     C_3   0.964948 0.169034 0.695547 -0.385238
H31   H     H_    0.984676 0.093161 0.643085 0.232447
H32   H     H_    0.024134 0.223315 0.710949 0.226208
C49   C     C_3   0.935678 0.151224 0.813459 -0.922203
H33   H     H_    0.915896 0.226311 0.867509 0.258848
H34   H     H_    0.991979 0.119161 0.861006 0.267784
H35   H     H_    0.878346 0.094371 0.800521 0.251491
O14   O     O_3   0.089263 0.791176 0.546356 -0.611178
C50   C     C_3   0.127848 0.818651 0.662376 0.123725
H36   H     H_    0.181750 0.878100 0.662314 0.180549
H37   H     H_    0.160441 0.751628 0.693977 0.148247
C51   C     C_3   0.058570 0.866807 0.747172 -0.404869
H38   H     H_    0.022910 0.929487 0.711684 0.237240
H39   H     H_    0.008810 0.805517 0.756811 0.216033
C52   C     C_3   0.102720 0.912957 0.867688 -0.907554
H40   H     H_    0.138792 0.851402 0.904849 0.260953
H41   H     H_    0.050711 0.945153 0.927563 0.259354
H42   H     H_    0.150620 0.977298 0.861522 0.258100
O15   O     O_3   0.536115 0.839226 0.747502 -0.598933
C53   C     C_3   0.622687 0.868534 0.800823 0.056771
H43   H     H_    0.628118 0.838856 0.884134 0.174152
H44   H     H_    0.632416 0.955021 0.825623 0.129344
C54   C     C_3   0.697372 0.820345 0.723997 -0.399212
H45   H     H_    0.683661 0.735217 0.693094 0.224038
H46   H     H_    0.699610 0.857591 0.645942 0.209202
C55   C     C_3   0.788671 0.836102 0.791015 -0.912629
H47   H     H_    0.804311 0.920930 0.821743 0.257348
H48   H     H_    0.840825 0.801825 0.732617 0.253126
H49   H     H_    0.789846 0.796505 0.867438 0.252327
O16   O     O_3   0.485227 0.161672 0.249880 -0.602777
C56   C     C_3   0.414304 0.119227 0.167755 0.057488
H50   H     H_    0.372111 0.184915 0.150859 0.138322
H51   H     H_    0.368431 0.063308 0.198458 0.121288
C57   C     C_3   0.452647 0.067414 0.052681 -0.344914
H52   H     H_    0.491197 0.126926 0.017694 0.217892
H53   H     H_    0.499019 0.004870 0.068617 0.226300
C58   C     C_3   0.378703 0.019542 0.961655 -0.905601
H54   H     H_    0.340167 0.958534 0.994038 0.260096
H55   H     H_    0.408716 0.982510 0.879609 0.280119
H56   H     H_    0.332599 0.081043 0.941968 0.245587

loop_
_geom_bond_atom_site_label_1
_geom_bond_atom_site_label_2
_ccdc_geom_bond_type
C40   O10   D    
C46   H26   S    
C39   O9    D    
C16   C21   A    
Cu2   O6    S    
C27   C29   A    
C42   H17   S    
C48   H31   S    
C45   C46   S    
C58   H56   S    
C57   H52   S    
C6    C9    A    
C53   H43   S    
C48   C49   S    
C23   O5    A    
C6    C11   A    
C3    H3    S    
C8    C13   A    
C19   C21   A    
C43   H20   S    
C52   H41   S    
O12   C44   S    
C51   H38   S    
C9    O16   S    
C15   C17   A    
C18   N1    A    
C15   C22   A    
Cu1   O1    S    
Cu2   O2    S    
C56   C57   S    
C24   C27   S    
C41   H15   S    
C32   C38   A    
C55   H49   S    
C30   O12   S    
C40   H14   S    
C4    C35   A    
C21   C22   A    
C29   C31   A    
C42   H18   S    
O14   C50   S    
C17   H12   S    
C44   H23   S    
C55   H48   S    
C18   H11   S    
C44   H22   S    
C29   O11   S    
C7    C14   A    
C31   C33   A    
C37   O13   S    
C1    C6    S    
C45   H24   S    
C5    C12   A    
C54   C55   S    
C25   H1    S    
Cu1   Cu2   S    
C12   H5    S    
C4    H4    S    
Cu1   O4    S    
C47   C48   S    
Cu2   O7    S    
C31   C37   A    
C7    H7    S    
C8    H8    S    
C20   H9    S    
C1    O3    A    
C24   O6    A    
Cu1   O5    S    
C41   C42   S    
C47   H30   S    
C33   C34   A    
C50   H37   S    
C23   C28   S    
C43   H19   S    
C10   O15   S    
C25   C35   A    
C19   N2    A    
C26   C36   A    
C12   C14   A    
Cu2   N2    S    
C46   H27   S    
C56   H50   S    
C42   C43   S    
C52   H42   S    
C2    C5    S    
C16   C40   S    
C58   H54   S    
C57   C58   S    
O13   C47   S    
C44   C45   S    
C55   H47   S    
C26   H2    S    
O15   C53   S    
C7    C9    A    
Cu1   O8    S    
C48   H32   S    
C24   O8    A    
Cu2   O3    S    
C8    C10   A    
C20   C22   A    
C20   N1    A    
C58   H55   S    
C57   H53   S    
C53   H44   S    
C2    O4    A    
C25   C27   A    
C49   H35   S    
C26   C28   A    
C54   H46   S    
C1    O1    A    
C5    C10   A    
C38   O14   S    
C2    O2    A    
C54   H45   S    
C30   C32   A    
C11   C13   A    
C19   H10   S    
Cu1   N1    S    
C51   H39   S    
C3    C36   A    
C28   C30   A    
C47   H29   S    
C33   C35   A    
C50   C51   S    
C34   C36   A    
O11   C41   S    
C49   H34   S    
C53   C54   S    
C39   H13   S    
C23   O7    A    
C43   H21   S    
C3    C37   A    
C16   C18   A    
C49   H33   S    
C46   H28   S    
C52   H40   S    
C50   H36   S    
C56   H51   S    
C15   C39   S    
C45   H25   S    
C11   H6    S    
C41   H16   S    
C4    C38   A    
C17   N2    A    
C51   C52   S    
C32   C34   A    
O16   C56   S    
C13   C14   A    
