data_mof_unit_2581.cif
_audit_creation_date              2012-12-10T16:57:45-0500
_audit_creation_method            fapswitch 2.2
_symmetry_space_group_name_H-M    P1
_symmetry_Int_Tables_number       1
_space_group_crystal_system       triclinic
_cell_length_a                    7.743309
_cell_length_b                    8.602549
_cell_length_c                    19.234397
_cell_angle_alpha                 91.79083
_cell_angle_beta                  84.656815
_cell_angle_gamma                 92.929814
_cell_volume                      1273.5584763

loop_
_atom_site_label
_atom_site_type_symbol
_atom_type_description
_atom_site_fract_x
_atom_site_fract_y
_atom_site_fract_z
_atom_type_partial_charge
C1    C     C_R   0.544118 0.794147 0.496373 0.961229
C2    C     C_R   0.455937 0.205860 0.504123 0.956767
C3    C     C_2   0.557855 0.953861 0.481717 -0.077560
C4    C     C_2   0.442885 0.046140 0.519499 -0.083955
C5    C     C_R   0.500610 0.504646 0.634606 0.902094
C6    C     C_R   0.499904 0.498234 0.365210 0.877066
C7    C     C_R   0.365950 0.595884 0.750288 0.025109
C8    C     C_R   0.633655 0.425413 0.245052 0.029081
C9    C     C_R   0.353119 0.594617 0.823837 0.150100
C10   C     C_R   0.631625 0.426349 0.172257 0.186384
C11   C     C_R   0.478835 0.516328 0.856028 0.032472
C12   C     C_R   0.498357 0.502271 0.144012 -0.004057
C13   C     C_R   0.610158 0.438795 0.816809 -0.266992
C14   C     C_R   0.372337 0.578231 0.186691 -0.258675
C15   C     C_R   0.621066 0.436621 0.744473 0.049679
C16   C     C_R   0.372355 0.577708 0.258746 0.074113
C17   C     C_R   0.498108 0.514049 0.710756 -0.081516
C18   C     C_R   0.501637 0.499466 0.288878 -0.124661
C19   C     C_R   0.488070 0.505874 0.069707 0.285172
C20   C     C_R   0.477895 0.513126 0.930975 0.296603
H1    H     H_    0.704728 0.378545 0.842722 0.156900
H2    H     H_    0.272154 0.637873 0.163806 0.155029
H3    H     H_    0.015090 0.381675 0.447059 0.186434
H4    H     H_    0.984908 0.618353 0.552926 0.192077
N1    N     N_R   0.468351 0.374953 0.963200 -0.176658
N2    N     N_R   0.498184 0.644008 0.037497 -0.177502
N3    N     N_R   0.472786 0.371412 0.031857 -0.172055
N4    N     N_R   0.494195 0.647496 0.968822 -0.187707
N5    N     N_2   0.950330 0.457950 0.481240 -0.172805
N6    N     N_2   0.049670 0.542050 0.518760 -0.165973
O1    O     O_R   0.389250 0.738570 0.504600 -0.630753
O2    O     O_R   0.610750 0.261430 0.495400 -0.633111
O3    O     O_R   0.678400 0.711620 0.492580 -0.623840
O4    O     O_R   0.321600 0.288380 0.507420 -0.625309
O5    O     O_R   0.355380 0.513500 0.607880 -0.609118
O6    O     O_R   0.644620 0.486500 0.392120 -0.645987
O7    O     O_R   0.644530 0.486550 0.595850 -0.601290
O8    O     O_R   0.355470 0.513450 0.404150 -0.590984
Zn1   Zn    Zn3+2 0.306930 0.517990 0.508030 0.943141
Zn2   Zn    Zn3+2 0.693070 0.482010 0.491970 0.926825
N7    N     N_3   0.246361 0.680279 0.714913 -0.451698
H5    H     H_    0.257634 0.797903 0.729790 0.170634
H6    H     H_    0.119883 0.635999 0.728511 0.197671
N8    N     N_3   0.771389 0.348154 0.272713 -0.464854
H7    H     H_    0.718881 0.265440 0.308163 0.191697
H8    H     H_    0.852561 0.430097 0.296574 0.206226
C21   C     C_3   0.200233 0.666126 0.867159 -0.419685
C22   C     C_3   0.063715 0.540562 0.891913 -0.856848
H9    H     H_    0.018507 0.472832 0.846379 0.249445
H10   H     H_    0.117528 0.460105 0.927434 0.267576
H11   H     H_    0.950551 0.595706 0.920619 0.255792
H12   H     H_    0.243686 0.734367 0.912620 0.225427
H13   H     H_    0.135614 0.751453 0.837754 0.199170
C23   C     C_3   0.777007 0.352131 0.125838 -0.387509
C24   C     C_3   0.747708 0.175314 0.120882 -0.802616
H14   H     H_    0.747770 0.123498 0.173016 0.260387
H15   H     H_    0.621823 0.143587 0.099601 0.268228
H16   H     H_    0.853496 0.125225 0.085539 0.245421
H17   H     H_    0.790304 0.398747 0.072365 0.203326
H18   H     H_    0.904144 0.381573 0.146678 0.214131
N9    N     N_3   0.754553 0.351993 0.705605 -0.434029
H19   H     H_    0.874839 0.398241 0.719083 0.185007
H20   H     H_    0.741698 0.236108 0.720940 0.181151
N10   N     N_3   0.243280 0.661000 0.300971 -0.430756
H21   H     H_    0.120841 0.615622 0.289727 0.180311
H22   H     H_    0.254257 0.777592 0.286625 0.180835
C25   C     C_3   0.669491 0.004518 0.414880 -0.407595
C26   C     C_3   0.692247 0.878976 0.356982 -0.868429
H23   H     H_    0.778703 0.788518 0.371213 0.283717
H24   H     H_    0.563958 0.825438 0.345965 0.258276
H25   H     H_    0.753467 0.932792 0.308407 0.239330
H26   H     H_    0.606559 0.099104 0.390454 0.201120
H27   H     H_    0.799625 0.048625 0.428714 0.229387
C27   C     C_3   0.329369 0.996957 0.586140 -0.402886
C28   C     C_3   0.322116 0.120473 0.645344 -0.875116
H28   H     H_    0.455292 0.163933 0.655221 0.258381
H29   H     H_    0.243840 0.218536 0.632897 0.285278
H30   H     H_    0.258722 0.068891 0.694001 0.236834
H31   H     H_    0.195259 0.966250 0.572568 0.227911
H32   H     H_    0.380295 0.893859 0.609149 0.223583

loop_
_geom_bond_atom_site_label_1
_geom_bond_atom_site_label_2
_ccdc_geom_bond_type
C24   H14   S    
C5    O7    A    
N7    H5    S    
C2    C4    S    
C1    O3    A    
C23   H18   S    
H3    N5    S    
O7    Zn2   S    
O8    Zn1   S    
C5    C17   S    
C20   N1    A    
C1    O1    A    
C12   C19   S    
C2    O2    A    
C25   H26   S    
N9    H20   S    
C19   N2    A    
C22   H11   S    
C7    N7    S    
O1    Zn1   S    
C26   H23   S    
C7    C17   A    
C6    O8    A    
C25   H27   S    
C19   N3    A    
C4    C27   S    
C21   H13   S    
C2    O4    A    
C22   H10   S    
C27   H32   S    
N7    H6    S    
N8    H8    S    
C23   H17   S    
C6    C18   S    
C11   C20   S    
O3    Zn2   S    
C27   C28   S    
C25   C26   S    
O6    Zn2   S    
C20   N4    A    
C8    C18   A    
O4    Zn1   S    
C1    C3    S    
N10   H22   S    
O5    Zn1   S    
C28   H28   S    
N5    N6    D    
C28   H29   S    
C21   C22   S    
C15   N9    S    
C13   H1    S    
C9    C11   A    
C10   C12   A    
C8    C10   A    
C22   H9    S    
C12   C14   A    
C9    C21   S    
C27   H31   S    
C13   C15   A    
C14   C16   A    
C3    C4    D    
N8    H7    S    
C15   C17   A    
C23   C24   S    
C3    C25   S    
C8    N8    S    
C21   H12   S    
N1    N3    A    
N2    N4    A    
N10   H21   S    
C14   H2    S    
C24   H15   S    
C11   C13   A    
C26   H25   S    
C5    O5    A    
N5    Zn2   S    
C6    O6    A    
N6    Zn1   S    
O2    Zn2   S    
N9    H19   S    
C10   C23   S    
C28   H30   S    
H4    N6    S    
C7    C9    A    
C16   C18   A    
C24   H16   S    
C26   H24   S    
C16   N10   S    
