data_mof_unit_3283.cif
_audit_creation_date              2012-12-10T20:52:09-0500
_audit_creation_method            fapswitch 2.2
_symmetry_space_group_name_H-M    P1
_symmetry_Int_Tables_number       1
_space_group_crystal_system       triclinic
_cell_length_a                    10.901605
_cell_length_b                    8.888814
_cell_length_c                    8.37142
_cell_angle_alpha                 89.762431
_cell_angle_beta                  94.383334
_cell_angle_gamma                 90.328547
_cell_volume                      808.818519827

loop_
_atom_site_label
_atom_site_type_symbol
_atom_type_description
_atom_site_fract_x
_atom_site_fract_y
_atom_site_fract_z
_atom_type_partial_charge
C1    C     C_R   0.499853 0.219186 0.500169 0.924540
C2    C     C_R   0.500147 0.780814 0.499831 0.924536
C3    C     C_R   0.874090 0.486998 0.510916 -0.084008
C4    C     C_R   0.125910 0.513006 0.489083 -0.084006
C5    C     C_R   0.949202 0.550814 0.635731 -0.000500
C6    C     C_R   0.050798 0.449192 0.364267 -0.000499
C7    C     C_1   0.499943 0.065540 0.500283 -0.158057
C8    C     C_1   0.500057 0.934460 0.499717 -0.158055
C9    C     C_R   0.259781 0.506032 0.495072 0.855574
C10   C     C_R   0.740220 0.493969 0.504927 0.855570
C11   C     C_R   0.168832 0.654664 0.032515 -0.164543
C12   C     C_R   0.831173 0.345346 0.967488 -0.164548
C13   C     C_R   0.093204 0.619336 0.151292 -0.103383
C14   C     C_R   0.906799 0.380675 0.848710 -0.103370
C15   C     C_R   0.086136 0.470206 0.204355 0.101239
C16   C     C_R   0.913864 0.529804 0.795643 0.101232
C17   C     C_R   0.140389 0.353320 0.125877 -0.110969
C18   C     C_R   0.859605 0.646689 0.874116 -0.110967
C19   C     C_R   0.213991 0.387653 0.001601 0.060112
C20   C     C_R   0.786003 0.612356 0.998392 0.060116
C21   C     C_R   0.232374 0.540460 0.963437 -0.201939
C22   C     C_R   0.767628 0.459550 0.036562 -0.201942
C23   C     C_R   0.927631 0.426323 0.381181 -0.242957
C24   C     C_R   0.072369 0.573682 0.618818 -0.242953
H1    H     H_    0.132933 0.238993 0.169784 0.159342
H2    H     H_    0.867058 0.761015 0.830204 0.159346
H3    H     H_    0.873064 0.366302 0.290309 0.166312
H4    H     H_    0.126936 0.633702 0.709690 0.166314
N1    N     N_1   0.500020 0.500030 0.073640 -0.092926
N2    N     N_1   0.499980 0.499970 0.926360 -0.092927
O1    O     O_R   0.499990 0.285340 0.636850 -0.624579
O2    O     O_R   0.500010 0.714660 0.363150 -0.624582
O3    O     O_R   0.500010 0.285350 0.363100 -0.602753
O4    O     O_R   0.499990 0.714650 0.636900 -0.602741
O5    O     O_R   0.316750 0.500000 0.636870 -0.680709
O6    O     O_R   0.683250 0.500000 0.363130 -0.680711
O7    O     O_R   0.316770 0.500020 0.363120 -0.593808
O8    O     O_R   0.683230 0.499980 0.636880 -0.593805
Zn1   Zn    Zn3+2 0.499990 0.499990 0.682780 0.964742
Zn2   Zn    Zn3+2 0.500010 0.500010 0.317220 0.964733
H5    H     H_    0.295196 0.577605 0.881473 0.191311
H6    H     H_    0.704806 0.422403 0.118525 0.191313
H7    H     H_    0.182085 0.770823 0.998000 0.177514
H8    H     H_    0.817924 0.229187 0.002007 0.177507
H9    H     H_    0.050082 0.709467 0.213120 0.142189
H10   H     H_    0.949925 0.290544 0.786886 0.142202
C25   C     C_2   0.275780 0.265829 0.919594 0.368205
H11   H     H_    0.336524 0.291627 0.827760 0.141302
O9    O     O_2   0.259156 0.133921 0.953712 -0.591261
C26   C     C_2   0.724206 0.734178 0.080390 0.368203
H12   H     H_    0.663489 0.708382 0.172254 0.141297
O10   O     O_2   0.740790 0.866082 0.046229 -0.591251

loop_
_geom_bond_atom_site_label_1
_geom_bond_atom_site_label_2
_ccdc_geom_bond_type
O5    Zn1   S    
C11   H7    S    
N1    N2    T    
C23   H3    S    
C26   O10   D    
C25   H11   S    
C18   H2    S    
O6    Zn2   S    
C10   O8    A    
C17   H1    S    
C2    O4    A    
C13   C15   A    
C26   H12   S    
C6    C15   S    
C3    C5    A    
C1    O3    A    
C7    C8    T    
C25   O9    D    
C3    C10   S    
C13   H9    S    
C11   C13   A    
C22   H6    S    
C5    C24   A    
O1    Zn1   S    
C21   H5    S    
C6    C23   A    
N1    Zn2   S    
C4    C6    A    
C17   C19   A    
C12   C14   A    
N2    Zn1   S    
O7    Zn2   S    
C19   C25   S    
O2    Zn2   S    
O8    Zn1   S    
C4    C24   A    
C14   C16   A    
O3    Zn2   S    
C9    O5    A    
O4    Zn1   S    
C12   C22   A    
C1    O1    A    
C18   C20   A    
C14   H10   S    
C9    O7    A    
C15   C17   A    
C12   H8    S    
C5    C16   S    
C20   C26   S    
C19   C21   A    
C4    C9    S    
C1    C7    S    
C3    C23   A    
C11   C21   A    
C16   C18   A    
C2    C8    S    
C24   H4    S    
C20   C22   A    
C2    O2    A    
C10   O6    A    
