data_mof_unit_2492.cif
_audit_creation_date              2012-12-10T20:30:08-0500
_audit_creation_method            fapswitch 2.2
_symmetry_space_group_name_H-M    P1
_symmetry_Int_Tables_number       1
_space_group_crystal_system       triclinic
_cell_length_a                    9.854418
_cell_length_b                    10.725951
_cell_length_c                    13.064773
_cell_angle_alpha                 90.622263
_cell_angle_beta                  69.924914
_cell_angle_gamma                 90.514919
_cell_volume                      1296.92385323

loop_
_atom_site_label
_atom_site_type_symbol
_atom_type_description
_atom_site_fract_x
_atom_site_fract_y
_atom_site_fract_z
_atom_type_partial_charge
C1    C     C_R   0.501856 0.739989 0.498134 0.900559
C2    C     C_R   0.429107 0.464856 0.985020 0.062582
C3    C     C_R   0.456829 0.432341 0.875763 0.029484
C4    C     C_R   0.540611 0.448832 0.028517 0.066986
C5    C     C_R   0.666194 0.378601 0.971023 0.083831
C6    C     C_R   0.680687 0.328737 0.867441 0.164806
C7    C     C_R   0.575678 0.355294 0.821629 -0.243422
C8    C     C_R   0.531448 0.505188 0.126957 -0.244481
C9    C     C_R   0.750026 0.404232 0.125026 -0.161118
C10   C     C_R   0.366334 0.480395 0.822716 -0.156806
C11   C     C_R   0.373988 0.935576 0.546604 0.088343
C12   C     C_R   0.419685 0.492991 0.704343 0.872506
C13   C     C_R   0.504465 0.872332 0.501907 -0.167750
C14   C     C_R   0.636932 0.938852 0.468010 0.192761
C15   C     C_R   0.633007 0.067565 0.468332 -0.283505
C16   C     C_R   0.500285 0.128957 0.502908 -0.139313
C17   C     C_R   0.371895 0.062999 0.547373 0.123602
C18   C     C_3   0.236237 0.067519 0.520651 -0.469821
C19   C     C_3   0.238217 0.926238 0.519814 -0.473520
C20   C     C_R   0.903423 0.588075 0.558226 0.238289
C21   C     C_R   0.956813 0.420414 0.434886 -0.140305
C22   C     C_R   0.100850 0.420331 0.434941 -0.132121
C23   C     C_R   0.499955 0.260350 0.499330 0.887708
C24   C     C_R   0.046027 0.587953 0.558218 0.209997
C25   C     C_3   0.998148 0.607856 0.678337 -0.537900
C26   C     C_3   0.844213 0.608616 0.678593 -0.495344
C27   C     C_R   0.580200 0.498352 0.295399 0.856925
C28   C     C_R   0.770682 0.357783 0.020629 -0.202015
C29   C     C_R   0.628393 0.476241 0.178619 -0.066382
C30   C     C_R   0.231384 0.530466 0.883645 -0.224299
C31   C     C_R   0.189970 0.542273 0.997203 0.285241
C32   C     C_R   0.290764 0.511953 0.046762 -0.277246
H1    H     H_    0.825162 0.379373 0.165459 0.152480
H2    H     H_    0.733796 0.118948 0.436014 0.171562
H3    H     H_    0.144546 0.107456 0.588593 0.203876
H4    H     H_    0.253023 0.108054 0.439176 0.203813
H5    H     H_    0.147400 0.884777 0.587221 0.198557
H6    H     H_    0.255849 0.884788 0.437873 0.207372
H7    H     H_    0.924807 0.354507 0.384029 0.137028
H8    H     H_    0.177692 0.354274 0.384147 0.146240
H9    H     H_    0.021379 0.526508 0.721573 0.212422
H10   H     H_    0.034079 0.699483 0.700608 0.195058
H11   H     H_    0.779633 0.528533 0.722637 0.235391
H12   H     H_    0.790945 0.700609 0.701281 0.193938
H13   H     H_    0.864866 0.300983 0.982353 0.144280
H14   H     H_    0.445264 0.569125 0.167717 0.148365
H15   H     H_    0.161112 0.562485 0.841756 0.158571
H16   H     H_    0.257094 0.521937 0.134281 0.127730
H17   H     H_    0.589496 0.316078 0.741999 0.187931
N1    N     N_R   0.856940 0.500860 0.500710 -0.099544
N2    N     N_R   0.142580 0.500820 0.500710 -0.102655
O1    O     O_R   0.385310 0.683210 0.499990 -0.619302
O2    O     O_R   0.614650 0.683240 0.500000 -0.579009
O3    O     O_R   0.328390 0.499940 0.653610 -0.613814
O4    O     O_R   0.557730 0.499980 0.653620 -0.613891
O5    O     O_R   0.385350 0.316760 0.500000 -0.616112
O6    O     O_R   0.614690 0.316790 0.500010 -0.629489
O7    O     O_R   0.442270 0.500020 0.346380 -0.616889
O8    O     O_R   0.671610 0.500060 0.346390 -0.616782
Zn1   Zn    Zn3+2 0.346870 0.499980 0.499990 0.932500
Zn2   Zn    Zn3+2 0.653130 0.500020 0.500010 0.945827
N3    N     N_2   0.804353 0.260160 0.803459 -0.306452
H18   H     H_    0.902005 0.290319 0.807389 0.217568
C33   C     C_3   0.785637 0.126311 0.808416 -0.794811
H19   H     H_    0.883811 0.081214 0.751148 0.232191
H20   H     H_    0.691920 0.098562 0.784202 0.251709
H21   H     H_    0.768466 0.093221 0.892274 0.237021
N4    N     N_2   0.049422 0.584573 0.063254 -0.307462
H22   H     H_    0.036523 0.605499 0.143318 0.220850
C34   C     C_3   0.970343 0.665379 0.015794 -0.793982
H23   H     H_    0.869941 0.697572 0.080181 0.239424
H24   H     H_    0.937535 0.613772 0.953856 0.252242
H25   H     H_    0.036930 0.748219 0.978849 0.235069
N5    N     N_2   0.772541 0.877992 0.422339 -0.278219
H26   H     H_    0.824378 0.899544 0.341440 0.212692
C35   C     C_3   0.867080 0.891497 0.485572 -0.758938
H27   H     H_    0.904625 0.989627 0.484543 0.227131
H28   H     H_    0.963098 0.831199 0.450021 0.225281
H29   H     H_    0.810038 0.862952 0.571119 0.244964

loop_
_geom_bond_atom_site_label_1
_geom_bond_atom_site_label_2
_ccdc_geom_bond_type
C27   C29   S    
C35   H29   S    
C4    C8    A    
C26   H12   S    
C23   O5    A    
O3    Zn1   S    
C11   C19   S    
N5    C35   S    
C8    C29   A    
C14   N5    S    
C35   H28   S    
C3    C7    A    
C5    C6    A    
O7    Zn1   S    
C15   C16   A    
C2    C32   A    
C18   C19   S    
C1    O2    A    
C20   N1    A    
O1    Zn1   S    
O2    Zn2   S    
C20   C24   A    
N4    H22   S    
N3    C33   S    
C34   H23   S    
C19   H5    S    
C18   H3    S    
C15   H2    S    
C9    C29   A    
C24   N2    A    
C21   C22   A    
C9    H1    S    
C32   H16   S    
C21   N1    A    
C26   H11   S    
C31   N4    S    
C28   H13   S    
O8    Zn2   S    
N5    H26   S    
C33   H21   S    
C30   H15   S    
C35   H27   S    
C7    H17   S    
C25   H9    S    
C16   C17   A    
C25   C26   S    
O5    Zn1   S    
C33   H20   S    
C2    C4    A    
N3    H18   S    
C19   H6    S    
C5    C28   A    
C10   C30   A    
C31   C32   A    
C21   H7    S    
C22   H8    S    
C34   H25   S    
C17   C18   S    
C24   C25   S    
C10   C12   S    
C16   C23   S    
C1    C13   S    
C23   O6    A    
C11   C17   A    
C4    C5    A    
C27   O7    A    
C25   H10   S    
O6    Zn2   S    
C6    C7    A    
C33   H19   S    
C6    N3    S    
C2    C3    A    
C3    C10   A    
C27   O8    A    
C11   C13   A    
C30   C31   A    
C20   C26   S    
O4    Zn2   S    
C1    O1    A    
C8    H14   S    
C12   O4    A    
N4    C34   S    
N1    Zn2   S    
C14   C15   A    
C34   H24   S    
N2    Zn1   S    
C13   C14   A    
C18   H4    S    
C12   O3    A    
C9    C28   A    
C22   N2    A    
