data_mof_unit_2649.cif
_audit_creation_date              2012-12-11T15:08:54-0500
_audit_creation_method            fapswitch 2.2
_symmetry_space_group_name_H-M    P1
_symmetry_Int_Tables_number       1
_space_group_crystal_system       triclinic
_cell_length_a                    21.413948
_cell_length_b                    21.407186
_cell_length_c                    22.259632
_cell_angle_alpha                 89.997039
_cell_angle_beta                  90.0002
_cell_angle_gamma                 89.999943
_cell_volume                      10204.0905985

loop_
_atom_site_label
_atom_site_type_symbol
_atom_type_description
_atom_site_fract_x
_atom_site_fract_y
_atom_site_fract_z
_atom_type_partial_charge
C1    C     C_R   0.914387 0.158863 0.078376 -0.145819
C2    C     C_R   0.061504 0.135166 0.112774 -0.127521
C3    C     C_R   0.360225 0.800018 0.153080 -0.242429
C4    C     C_R   0.262318 0.101967 0.692657 -0.241771
C5    C     C_R   0.737813 0.898070 0.307596 -0.242367
C6    C     C_R   0.199823 0.639674 0.846805 -0.242134
C7    C     C_R   0.639726 0.199818 0.153113 -0.245328
C8    C     C_R   0.300167 0.139673 0.346814 -0.242136
C9    C     C_R   0.860261 0.699737 0.653193 -0.245341
C10   C     C_R   0.237679 0.601966 0.192661 -0.241767
C11   C     C_R   0.762219 0.398075 0.807564 -0.242370
C12   C     C_R   0.860242 0.699891 0.346880 -0.245038
C13   C     C_R   0.158830 0.914388 0.921592 -0.146125
C14   C     C_R   0.139777 0.300026 0.653088 -0.242424
C15   C     C_R   0.762010 0.398127 0.192122 -0.243404
C16   C     C_R   0.398011 0.762089 0.807727 -0.243305
C17   C     C_R   0.851633 0.148541 0.089550 0.080701
C18   C     C_R   0.148493 0.851631 0.910380 0.080902
C19   C     C_R   0.107781 0.107558 0.147785 0.069280
C20   C     C_R   0.892402 0.892183 0.852228 0.069600
C21   C     C_R   0.148296 0.851492 0.089713 0.081059
C22   C     C_R   0.851670 0.148520 0.910358 0.080858
C23   C     C_R   0.892431 0.892248 0.147789 0.069542
C24   C     C_R   0.841180 0.085770 0.078359 -0.143439
C25   C     C_R   0.107526 0.107721 0.852199 0.069227
C26   C     C_R   0.392217 0.607559 0.647784 0.069281
C27   C     C_R   0.607597 0.392195 0.352224 0.069597
C28   C     C_R   0.648376 0.648537 0.589538 0.080705
C29   C     C_R   0.351506 0.351632 0.410378 0.080901
C30   C     C_R   0.607568 0.392254 0.647791 0.069540
C31   C     C_R   0.392472 0.607723 0.352200 0.069229
C32   C     C_R   0.351704 0.351493 0.589713 0.081060
C33   C     C_R   0.648335 0.648517 0.410367 0.080863
C34   C     C_R   0.903304 0.822674 0.763046 -0.244220
C35   C     C_R   0.061417 0.135301 0.887349 -0.129219
C36   C     C_R   0.177221 0.096601 0.237000 -0.243746
C37   C     C_R   0.821735 0.258788 0.888559 -0.245435
C38   C     C_R   0.178148 0.741263 0.111702 -0.245473
C39   C     C_R   0.096608 0.177095 0.762925 -0.243533
C40   C     C_R   0.903343 0.822832 0.237034 -0.244063
C41   C     C_R   0.258740 0.821623 0.888683 -0.247009
C42   C     C_R   0.821566 0.258851 0.111121 -0.247095
C43   C     C_R   0.241259 0.321631 0.388674 -0.247007
C44   C     C_R   0.678488 0.758852 0.611046 -0.247088
C45   C     C_R   0.403391 0.677095 0.262925 -0.243535
C46   C     C_R   0.938555 0.864679 0.112640 -0.129638
C47   C     C_R   0.596649 0.322860 0.737055 -0.244051
C48   C     C_R   0.678291 0.758783 0.388596 -0.245437
C49   C     C_R   0.321850 0.241264 0.611697 -0.245475
C50   C     C_R   0.596693 0.322724 0.263011 -0.244222
C51   C     C_R   0.322770 0.596604 0.736994 -0.243746
C52   C     C_R   0.874501 0.874009 0.790767 0.106610
C53   C     C_R   0.125929 0.125437 0.209249 0.106633
C54   C     C_R   0.804034 0.196362 0.897583 0.105931
C55   C     C_R   0.195903 0.803651 0.102556 0.105521
C56   C     C_R   0.125415 0.125814 0.790733 0.106585
C57   C     C_R   0.841194 0.085758 0.921583 -0.143541
C58   C     C_R   0.874530 0.874125 0.209253 0.106598
C59   C     C_R   0.196305 0.803959 0.897610 0.105689
C60   C     C_R   0.803952 0.196372 0.102257 0.106186
C61   C     C_R   0.303692 0.303963 0.397608 0.105692
C62   C     C_R   0.696071 0.696358 0.602236 0.106177
C63   C     C_R   0.374584 0.625816 0.290734 0.106585
C64   C     C_R   0.625470 0.374140 0.709258 0.106598
C65   C     C_R   0.695977 0.696353 0.397597 0.105925
C66   C     C_R   0.304097 0.303653 0.602555 0.105521
C67   C     C_R   0.625503 0.374038 0.290761 0.106606
C68   C     C_R   0.158797 0.914237 0.078437 -0.142300
C69   C     C_R   0.374066 0.625438 0.709247 0.106632
C70   C     C_R   0.823553 0.902858 0.762684 -0.223653
C71   C     C_R   0.097129 0.176442 0.237281 -0.223226
C72   C     C_R   0.741618 0.178911 0.888882 -0.226489
C73   C     C_R   0.258336 0.821071 0.111186 -0.224816
C74   C     C_R   0.176454 0.097010 0.762788 -0.222830
C75   C     C_R   0.823517 0.902938 0.237246 -0.223204
C76   C     C_R   0.178819 0.741549 0.888819 -0.224788
C77   C     C_R   0.741567 0.178858 0.111063 -0.226536
C78   C     C_R   0.321175 0.241550 0.388823 -0.224790
C79   C     C_R   0.438495 0.635167 0.612774 -0.127526
C80   C     C_R   0.758437 0.678813 0.611093 -0.226539
C81   C     C_R   0.323547 0.597010 0.262790 -0.222835
C82   C     C_R   0.676492 0.402949 0.737237 -0.223221
C83   C     C_R   0.758383 0.678888 0.388871 -0.226483
C84   C     C_R   0.241665 0.321076 0.611192 -0.224814
C85   C     C_R   0.676471 0.402878 0.262705 -0.223634
C86   C     C_R   0.402868 0.676438 0.737284 -0.223232
C87   C     C_3   0.289987 0.038890 0.290631 -1.019569
C88   C     C_3   0.960954 0.709827 0.709493 -1.022897
C89   C     C_3   0.137978 0.610995 0.134640 -1.024654
C90   C     C_R   0.561447 0.364660 0.387374 -0.130056
C91   C     C_3   0.861729 0.389179 0.865933 -1.025612
C92   C     C_3   0.960989 0.710013 0.290663 -1.022286
C93   C     C_3   0.038963 0.289857 0.709184 -1.021408
C94   C     C_3   0.861260 0.389439 0.133306 -1.027120
C95   C     C_3   0.389183 0.861509 0.866277 -1.030690
C96   C     C_3   0.638891 0.889492 0.633094 -1.027192
C97   C     C_3   0.110825 0.361535 0.366242 -1.030676
C98   C     C_3   0.538973 0.210088 0.790751 -1.022210
C99   C     C_3   0.461040 0.789851 0.209178 -1.021403
C100  C     C_3   0.362019 0.110995 0.634633 -1.024640
C101  C     C_R   0.658823 0.585766 0.578351 -0.143443
C102  C     C_3   0.638295 0.889171 0.365955 -1.025534
C103  C     C_3   0.210000 0.538895 0.790616 -1.019615
C104  C     C_3   0.538998 0.209944 0.209352 -1.022806
C105  C     C_R   0.085753 0.841166 0.921613 -0.142198
C106  C     C_R   0.341170 0.414390 0.421591 -0.146126
C107  C     C_R   0.561444 0.364682 0.612643 -0.129638
C108  C     C_R   0.438583 0.635302 0.387349 -0.129220
C109  C     C_R   0.341203 0.414237 0.578437 -0.142299
C110  C     C_R   0.658807 0.585756 0.421588 -0.143543
C111  C     C_R   0.414247 0.341167 0.421612 -0.142205
C112  C     C_R   0.585620 0.658863 0.578371 -0.145813
C113  C     C_R   0.635187 0.438484 0.387240 -0.128537
C114  C     C_R   0.364668 0.561432 0.612622 -0.129796
C115  C     C_R   0.585600 0.658852 0.421597 -0.144552
C116  C     C_R   0.135330 0.061431 0.112623 -0.129797
C117  C     C_R   0.414428 0.341159 0.578449 -0.144912
C118  C     C_R   0.364847 0.561481 0.387234 -0.127594
C119  C     C_R   0.635166 0.438520 0.612762 -0.128454
C120  C     C_R   0.793889 0.873662 0.714652 0.106106
C121  C     C_R   0.126361 0.206165 0.285246 0.105885
C122  C     C_R   0.699888 0.220131 0.861958 0.109192
C123  C     C_R   0.300060 0.779847 0.138109 0.108417
C124  C     C_R   0.206277 0.126272 0.714909 0.105759
C125  C     C_R   0.793768 0.873704 0.285196 0.105881
C126  C     C_R   0.220028 0.699806 0.861903 0.108379
C127  C     C_R   0.864813 0.938478 0.887239 -0.128545
C128  C     C_R   0.699824 0.220060 0.137988 0.109210
C129  C     C_R   0.279964 0.199808 0.361907 0.108383
C130  C     C_R   0.800186 0.720006 0.638020 0.109199
C131  C     C_R   0.293722 0.626271 0.214911 0.105758
C132  C     C_R   0.706250 0.373719 0.785183 0.105876
C133  C     C_R   0.800116 0.720102 0.361944 0.109189
C134  C     C_R   0.199940 0.279853 0.638115 0.108415
C135  C     C_R   0.706153 0.373684 0.214684 0.106096
C136  C     C_R   0.373636 0.706159 0.785251 0.105887
C137  C     C_R   0.264603 0.101975 0.308497 0.288734
C138  C     C_R   0.085572 0.841159 0.078448 -0.144909
C139  C     C_R   0.897935 0.735278 0.691548 0.289867
C140  C     C_R   0.199810 0.637672 0.154639 0.291212
C141  C     C_R   0.800021 0.362411 0.845695 0.291605
C142  C     C_R   0.897934 0.735440 0.308545 0.289808
C143  C     C_R   0.102059 0.264470 0.691395 0.289887
C144  C     C_R   0.799737 0.362521 0.153866 0.290711
C145  C     C_R   0.362365 0.799863 0.845896 0.292508
C146  C     C_R   0.700357 0.862533 0.653751 0.290704
C147  C     C_R   0.137636 0.299878 0.345879 0.292512
C148  C     C_R   0.602050 0.235489 0.808592 0.289783
C149  C     C_R   0.914404 0.158852 0.921593 -0.144554
C150  C     C_R   0.397942 0.764464 0.191389 0.289889
C151  C     C_R   0.300187 0.137672 0.654634 0.291214
C152  C     C_R   0.700011 0.862406 0.345729 0.291598
C153  C     C_R   0.235387 0.601977 0.808488 0.288744
C154  C     C_R   0.602048 0.235362 0.191464 0.289834
C155  C     C_R   0.874323 0.792163 0.714854 0.096259
C156  C     C_R   0.207755 0.125619 0.285160 0.096248
C157  C     C_R   0.780712 0.301240 0.861439 0.097672
C158  C     C_R   0.219165 0.698804 0.138805 0.097960
C159  C     C_R   0.125688 0.207629 0.714797 0.096156
C160  C     C_R   0.864833 0.938517 0.112763 -0.128457
C161  C     C_R   0.874307 0.792301 0.285187 0.096289
C162  C     C_R   0.301176 0.780588 0.861554 0.097933
C163  C     C_R   0.780521 0.301285 0.138259 0.097923
C164  C     C_R   0.198822 0.280597 0.361545 0.097923
C165  C     C_R   0.719540 0.801276 0.638192 0.097963
C166  C     C_R   0.374312 0.707626 0.214795 0.096158
C167  C     C_R   0.625689 0.292335 0.785210 0.096287
C168  C     C_R   0.719314 0.801231 0.361466 0.097662
C169  C     C_R   0.280833 0.198806 0.638802 0.097957
C170  C     C_R   0.625679 0.292223 0.214813 0.096252
C171  C     C_R   0.135152 0.061479 0.887234 -0.127593
C172  C     C_R   0.292237 0.625619 0.785154 0.096252
C173  C     C_R   0.816926 0.816162 0.693269 -0.019339
C174  C     C_R   0.183823 0.183092 0.306662 -0.019131
C175  C     C_R   0.720455 0.280083 0.844953 -0.018843
C176  C     C_R   0.279472 0.719917 0.155171 -0.018916
C177  C     C_R   0.183211 0.183722 0.693419 -0.019156
C178  C     C_R   0.816835 0.816241 0.306651 -0.019262
C179  C     C_R   0.279993 0.720355 0.844974 -0.019079
C180  C     C_R   0.720342 0.280051 0.154906 -0.018823
C181  C     C_R   0.220002 0.220360 0.344973 -0.019078
C182  C     C_R   0.938552 0.864653 0.887380 -0.130051
C183  C     C_R   0.779692 0.780014 0.654897 -0.018829
C184  C     C_R   0.316789 0.683719 0.193418 -0.019155
C185  C     C_R   0.683176 0.316265 0.806654 -0.019253
C186  C     C_R   0.779561 0.780062 0.344958 -0.018839
C187  C     C_R   0.220527 0.219921 0.655173 -0.018916
C188  C     C_R   0.683101 0.316203 0.193269 -0.019337
C189  C     C_R   0.316171 0.683088 0.806662 -0.019134
C190  C     C_R   0.738068 0.898128 0.692035 -0.243414
C191  C     C_R   0.101989 0.262101 0.307714 -0.243308
C192  C     C_R   0.639747 0.199937 0.846923 -0.245037
H1    H     H_    0.937197 0.203551 0.073484 0.086796
H2    H     H_    0.030068 0.172182 0.125506 0.096695
H3    H     H_    0.900484 0.362591 0.153235 0.246543
H4    H     H_    0.864197 0.387524 0.083531 0.253336
H5    H     H_    0.438726 0.866951 0.852430 0.254643
H6    H     H_    0.362258 0.900644 0.846267 0.247092
H7    H     H_    0.387305 0.864578 0.916044 0.253204
H8    H     H_    0.633542 0.939085 0.646842 0.254973
H9    H     H_    0.636021 0.887536 0.583318 0.253351
H10   H     H_    0.599614 0.862702 0.652990 0.246559
H11   H     H_    0.061285 0.366983 0.352387 0.254641
H12   H     H_    0.112696 0.364617 0.416010 0.253200
H13   H     H_    0.203505 0.937201 0.926486 0.086397
H14   H     H_    0.137761 0.400660 0.346226 0.247090
H15   H     H_    0.527043 0.166978 0.816055 0.253864
H16   H     H_    0.502270 0.245363 0.800291 0.255519
H17   H     H_    0.538721 0.198391 0.742158 0.246485
H18   H     H_    0.472956 0.832954 0.183860 0.253575
H19   H     H_    0.461336 0.801553 0.257768 0.247043
H20   H     H_    0.497726 0.754567 0.199613 0.254940
H21   H     H_    0.367538 0.061483 0.648607 0.254763
H22   H     H_    0.365374 0.112779 0.584880 0.252364
H23   H     H_    0.400939 0.138094 0.654805 0.248757
H24   H     H_    0.796415 0.063117 0.073484 0.085773
H25   H     H_    0.632814 0.938709 0.352045 0.254348
H26   H     H_    0.599256 0.862160 0.345882 0.248789
H27   H     H_    0.635111 0.887343 0.415723 0.252410
H28   H     H_    0.166905 0.526949 0.815909 0.253958
H29   H     H_    0.198315 0.538677 0.742024 0.246465
H30   H     H_    0.245263 0.502177 0.800143 0.255135
H31   H     H_    0.527055 0.166841 0.184047 0.253400
H32   H     H_    0.538800 0.198234 0.257941 0.246425
H33   H     H_    0.502282 0.245216 0.199849 0.255694
H34   H     H_    0.030002 0.172413 0.874862 0.096692
H35   H     H_    0.969959 0.827555 0.125119 0.096647
H36   H     H_    0.796424 0.063108 0.926419 0.085792
H37   H     H_    0.203580 0.936858 0.073585 0.086227
H38   H     H_    0.469932 0.672181 0.625507 0.096700
H39   H     H_    0.530010 0.327557 0.374910 0.096438
H40   H     H_    0.703584 0.563109 0.573466 0.085772
H41   H     H_    0.063122 0.796380 0.926492 0.086281
H42   H     H_    0.296496 0.437204 0.426485 0.086399
H43   H     H_    0.530041 0.327559 0.625126 0.096649
H44   H     H_    0.469998 0.672414 0.374862 0.096696
H45   H     H_    0.296420 0.436859 0.573585 0.086227
H46   H     H_    0.703576 0.563104 0.426430 0.085789
H47   H     H_    0.436878 0.296380 0.426488 0.086284
H48   H     H_    0.562813 0.703554 0.573486 0.086794
H49   H     H_    0.672201 0.469927 0.374522 0.096416
H50   H     H_    0.327558 0.530002 0.625073 0.096459
H51   H     H_    0.562807 0.703543 0.426522 0.086811
H52   H     H_    0.172441 0.030002 0.125076 0.096461
H53   H     H_    0.437232 0.296473 0.573528 0.086477
H54   H     H_    0.327828 0.530045 0.374530 0.096732
H55   H     H_    0.672168 0.469982 0.625467 0.096443
H56   H     H_    0.945190 0.803238 0.782317 0.137530
H57   H     H_    0.196610 0.054663 0.217769 0.137398
H58   H     H_    0.868938 0.273021 0.898185 0.135294
H59   H     H_    0.130917 0.727063 0.102167 0.135155
H60   H     H_    0.054645 0.196476 0.782096 0.137378
H61   H     H_    0.945281 0.803439 0.217829 0.137496
H62   H     H_    0.273000 0.868812 0.898395 0.135092
H63   H     H_    0.827797 0.969919 0.874515 0.096423
H64   H     H_    0.868727 0.273140 0.101368 0.135193
H65   H     H_    0.227001 0.368823 0.398380 0.135092
H66   H     H_    0.631345 0.773163 0.601246 0.135190
H67   H     H_    0.445354 0.696477 0.282095 0.137380
H68   H     H_    0.554701 0.303471 0.717860 0.137488
H69   H     H_    0.631099 0.773024 0.398249 0.135292
H70   H     H_    0.369078 0.227063 0.602156 0.135154
H71   H     H_    0.554794 0.303295 0.282265 0.137528
H72   H     H_    0.303378 0.554669 0.717759 0.137401
H73   H     H_    0.721916 0.943425 0.707358 0.139134
H74   H     H_    0.062769 0.796473 0.073526 0.086477
H75   H     H_    0.056740 0.278300 0.292328 0.139063
H76   H     H_    0.623721 0.154512 0.862026 0.137343
H77   H     H_    0.376255 0.845430 0.137946 0.137662
H78   H     H_    0.278534 0.056747 0.708141 0.139127
H79   H     H_    0.721612 0.943317 0.292170 0.138936
H80   H     H_    0.154391 0.623653 0.861858 0.138124
H81   H     H_    0.623719 0.154372 0.138056 0.137164
H82   H     H_    0.345597 0.123650 0.361871 0.138119
H83   H     H_    0.876248 0.654274 0.638169 0.137168
H84   H     H_    0.221463 0.556748 0.208147 0.139126
H85   H     H_    0.937200 0.203541 0.926523 0.086817
H86   H     H_    0.778425 0.443315 0.792128 0.138938
H87   H     H_    0.876256 0.654454 0.361961 0.137345
H88   H     H_    0.123748 0.345440 0.637957 0.137663
H89   H     H_    0.778179 0.443407 0.207479 0.139125
H90   H     H_    0.443263 0.778285 0.792346 0.139064
H91   H     H_    0.803070 0.944801 0.781256 0.114784
H92   H     H_    0.055218 0.196951 0.218688 0.114733
H93   H     H_    0.726259 0.131784 0.898160 0.111273
H94   H     H_    0.273722 0.868174 0.101840 0.111887
H95   H     H_    0.196939 0.055097 0.781419 0.114751
H96   H     H_    0.827831 0.969978 0.125470 0.096447
H97   H     H_    0.803018 0.944857 0.218629 0.114687
H98   H     H_    0.131681 0.726210 0.898016 0.112017
H99   H     H_    0.726253 0.131696 0.101887 0.111215
H100  H     H_    0.368311 0.226208 0.398027 0.112014
H101  H     H_    0.773729 0.631638 0.601960 0.111216
H102  H     H_    0.303065 0.555096 0.281420 0.114753
H103  H     H_    0.696993 0.444858 0.718610 0.114694
H104  H     H_    0.773731 0.631755 0.398126 0.111276
H105  H     H_    0.226280 0.368180 0.601849 0.111888
H106  H     H_    0.696961 0.444807 0.281297 0.114774
H107  H     H_    0.172171 0.030042 0.874530 0.096733
H108  H     H_    0.444782 0.696944 0.718694 0.114738
H109  H     H_    0.333089 0.026947 0.315919 0.253945
H110  H     H_    0.254724 0.002175 0.300171 0.255135
H111  H     H_    0.301663 0.038664 0.242036 0.246454
H112  H     H_    0.972880 0.666695 0.684231 0.253417
H113  H     H_    0.997704 0.745061 0.699988 0.255699
H114  H     H_    0.961112 0.698157 0.758091 0.246433
H115  H     H_    0.132459 0.561485 0.148618 0.254769
H116  H     H_    0.099057 0.638095 0.154808 0.248763
H117  H     H_    0.134623 0.612774 0.084887 0.252368
H118  H     H_    0.969989 0.827548 0.874924 0.096430
H119  H     H_    0.867198 0.438721 0.852039 0.254366
H120  H     H_    0.864909 0.387334 0.915698 0.252434
H121  H     H_    0.900775 0.362184 0.845858 0.248800
H122  H     H_    0.972917 0.666901 0.315960 0.253884
H123  H     H_    0.961203 0.698319 0.242070 0.246506
H124  H     H_    0.997714 0.745271 0.300180 0.255514
H125  H     H_    0.027047 0.332961 0.683867 0.253576
H126  H     H_    0.002277 0.254574 0.699621 0.254939
H127  H     H_    0.038668 0.301559 0.757775 0.247043
H128  H     H_    0.866646 0.439018 0.147101 0.254949
N1    N     N_R   0.940200 0.105310 0.059970 -0.036853
N2    N     N_R   0.059800 0.105310 0.059970 -0.042471
N3    N     N_R   0.105310 0.940200 0.940030 -0.036919
N4    N     N_R   0.894690 0.059800 0.059970 -0.037155
N5    N     N_R   0.059800 0.105310 0.940030 -0.042250
N6    N     N_R   0.940200 0.894690 0.059970 -0.042217
N7    N     N_R   0.894690 0.059800 0.940030 -0.037170
N8    N     N_R   0.105310 0.940200 0.059970 -0.037268
N9    N     N_R   0.440200 0.605310 0.559970 -0.042471
N10   N     N_R   0.559800 0.394690 0.440030 -0.042219
N11   N     N_R   0.605310 0.559800 0.559970 -0.037155
N12   N     N_R   0.059800 0.894690 0.940030 -0.037237
N13   N     N_R   0.394690 0.440200 0.440030 -0.036919
N14   N     N_R   0.559800 0.394690 0.559970 -0.042217
N15   N     N_R   0.440200 0.605310 0.440030 -0.042250
N16   N     N_R   0.394690 0.440200 0.559970 -0.037268
N17   N     N_R   0.605310 0.559800 0.440030 -0.037170
N18   N     N_R   0.440200 0.394690 0.440030 -0.037236
N19   N     N_R   0.559800 0.605310 0.559970 -0.036854
N20   N     N_R   0.605310 0.440200 0.440030 -0.042543
N21   N     N_R   0.394690 0.559800 0.559970 -0.042297
N22   N     N_R   0.559800 0.605310 0.440030 -0.036913
N23   N     N_R   0.105310 0.059800 0.059970 -0.042297
N24   N     N_R   0.440200 0.394690 0.559970 -0.036961
N25   N     N_R   0.394690 0.559800 0.440030 -0.042566
N26   N     N_R   0.605310 0.440200 0.559970 -0.042591
N27   N     N_R   0.894690 0.940200 0.940030 -0.042541
N28   N     N_R   0.059800 0.894690 0.059970 -0.036961
N29   N     N_R   0.940200 0.105310 0.940030 -0.036914
N30   N     N_R   0.894690 0.940200 0.059970 -0.042590
N31   N     N_R   0.105310 0.059800 0.940030 -0.042567
N32   N     N_R   0.940200 0.894690 0.940030 -0.042220
Ni1   Ni    Ni4+2 0.000000 0.104370 0.000000 0.212651
Ni2   Ni    Ni4+2 1.000000 0.895630 0.000000 0.212040
Ni3   Ni    Ni4+2 0.104370 0.000000 0.000000 0.212070
Ni4   Ni    Ni4+2 0.895630 0.000000 0.000000 0.211395
Ni5   Ni    Ni4+2 0.500000 0.604370 0.500000 0.212649
Ni6   Ni    Ni4+2 0.500000 0.395630 0.500000 0.212041
Ni7   Ni    Ni4+2 0.604370 0.500000 0.500000 0.211391
Ni8   Ni    Ni4+2 0.395630 0.500000 0.500000 0.212071

loop_
_geom_bond_atom_site_label_1
_geom_bond_atom_site_label_2
_ccdc_geom_bond_type
C23   C58   S    
C92   H124  S    
C93   H125  S    
N14   Ni6   S    
C75   H97   S    
C123  C176  A    
C91   H121  S    
C34   C155  A    
N14   N26   A    
C100  H22   S    
C149  N29   A    
C13   C18   A    
C116  N23   A    
C94   H4    S    
C71   H92   S    
N6    N30   A    
C78   C129  A    
C87   C137  S    
C147  C164  A    
C167  C185  A    
C154  C170  A    
C27   C90   A    
C192  H76   S    
C10   C131  A    
C36   C53   A    
C102  H25   S    
C57   H36   S    
C38   C55   A    
C128  C180  A    
C48   C65   A    
C104  H31   S    
N3    Ni3   S    
C25   C171  A    
C23   C46   A    
C41   C162  A    
C98   H16   S    
C10   C140  A    
C3    C123  A    
N23   Ni3   S    
C50   H71   S    
C26   C69   S    
C67   C85   A    
C40   C58   A    
C32   C109  A    
C24   N4    A    
C165  C183  A    
C166  C184  A    
C169  C187  A    
N2    N23   A    
C21   C55   S    
C87   H109  S    
C90   N10   A    
C9    C130  A    
C1    H1    S    
C26   C114  A    
C131  C184  A    
C39   C56   A    
C47   H68   S    
C95   H5    S    
C156  C174  A    
N21   Ni8   S    
C141  C157  A    
C93   H127  S    
N25   Ni8   S    
C94   H128  S    
C97   H12   S    
C42   C60   A    
C53   C71   A    
C112  N19   A    
C43   C61   A    
C176  C184  A    
C2    C19   A    
C191  H75   S    
C29   C111  A    
C72   H93   S    
C49   H70   S    
C118  H54   S    
C96   H10   S    
C138  H74   S    
C94   C144  S    
N1    Ni1   S    
C103  H29   S    
N11   N19   A    
C190  H73   S    
C6    C153  A    
C44   H66   S    
C178  C186  A    
C8    C129  A    
C148  C167  A    
C107  N14   A    
C51   C69   A    
C160  H96   S    
C70   H91   S    
C116  H52   S    
C88   H114  S    
C30   C107  A    
C87   H111  S    
C88   H112  S    
C32   C117  A    
C142  C161  A    
N28   Ni2   S    
C22   C54   S    
C99   H19   S    
C108  N15   A    
C127  H63   S    
N2    Ni1   S    
C62   C80   A    
C130  C183  A    
C81   C131  A    
C6    C126  A    
C150  C166  A    
C48   H69   S    
C4    C124  A    
C37   C157  A    
C119  H55   S    
C164  C181  A    
C140  C158  A    
N27   N32   A    
C73   H94   S    
C39   H60   S    
C85   H106  S    
C115  N22   A    
C147  C191  A    
C112  H48   S    
C48   C168  A    
C46   H35   S    
C149  H85   S    
N27   Ni4   S    
C45   C166  A    
C11   H86   S    
C76   H98   S    
N17   N22   A    
C103  H28   S    
C43   C164  A    
N1    N4    A    
N9    Ni5   S    
C97   C147  S    
C98   H17   S    
C29   C61   S    
C168  C186  A    
C49   C66   A    
C31   C63   S    
C20   C127  A    
C89   H116  S    
C16   C145  A    
C81   H102  S    
C31   C118  A    
C83   H104  S    
C179  C189  A    
C139  C155  A    
C89   C140  S    
C138  N28   A    
C11   C141  A    
C124  C177  A    
C27   C113  A    
C114  H50   S    
C146  C165  A    
C157  C175  A    
C21   C68   A    
C7    C128  A    
C16   C136  A    
C84   H105  S    
C158  C176  A    
C96   H8    S    
C106  H42   S    
C9    H83   S    
C10   H84   S    
N13   Ni8   S    
C132  C185  A    
C121  C191  A    
C117  N24   A    
N24   Ni6   S    
C110  H46   S    
C122  C192  A    
N7    N29   A    
C96   C146  S    
C1    C17   A    
C151  C169  A    
C136  C189  A    
C104  C154  S    
N16   N24   A    
C24   H24   S    
C7    C154  A    
C74   H95   S    
C86   H108  S    
C153  C172  A    
C101  H40   S    
C44   C165  A    
C29   C106  A    
C92   H123  S    
C27   C67   S    
C102  H26   S    
C17   C60   S    
C55   C73   A    
C80   H101  S    
C5    C125  A    
C125  C178  A    
N20   Ni7   S    
C33   C110  A    
N22   Ni5   S    
C59   C76   A    
C104  H32   S    
N6    Ni2   S    
C102  C152  S    
C91   C141  S    
C28   C62   S    
C148  C192  A    
C74   C124  A    
C108  H44   S    
C30   C64   S    
C76   C126  A    
C95   C145  S    
C68   N8    A    
C11   C132  A    
C104  H33   S    
C91   H120  S    
C28   C112  A    
C84   C134  A    
C51   C172  A    
C46   N6    A    
C82   H103  S    
C101  N11   A    
N31   Ni3   S    
N12   Ni2   S    
C37   H58   S    
C13   N3    A    
C129  C181  A    
C180  C188  A    
C28   C101  A    
N32   Ni2   S    
C106  N13   A    
C22   C149  A    
C93   H126  S    
N11   Ni7   S    
C21   C138  A    
C97   H11   S    
C152  C168  A    
C71   C121  A    
C99   C150  S    
C100  H21   S    
C33   C115  A    
C56   C74   A    
C94   H3    S    
C35   N5    A    
C171  H107  S    
C8    C137  A    
C2    H2    S    
C171  N31   A    
C120  C190  A    
C175  C185  A    
C182  N32   A    
C121  C174  A    
C36   H57   S    
N18   Ni6   S    
C111  N18   A    
C126  C179  A    
C50   C170  A    
C114  N21   A    
C38   C158  A    
C25   C35   A    
C40   H61   S    
C63   C81   A    
C91   H119  S    
C144  C163  A    
C13   H13   S    
C98   H15   S    
C82   C132  A    
C47   C64   A    
C36   C156  A    
C32   C66   S    
N17   Ni7   S    
C14   C143  A    
C3    C150  A    
N19   Ni5   S    
C39   C159  A    
C134  C187  A    
N10   N20   A    
N5    N31   A    
C3    H77   S    
C109  N16   A    
C1    N1    A    
C143  C159  A    
C117  H53   S    
C172  C189  A    
C34   C52   A    
C26   C79   A    
C177  C187  A    
C118  N25   A    
C127  N27   A    
C40   C161  A    
C49   C169  A    
C9    C139  A    
C98   C148  S    
N13   N18   A    
C95   H6    S    
C12   C142  A    
N15   N25   A    
C110  N17   A    
C173  C183  A    
C30   C119  A    
N15   Ni5   S    
C75   C125  A    
C161  C178  A    
N8    Ni3   S    
C119  N26   A    
C100  H23   S    
C35   H34   S    
C31   C108  A    
C25   C56   S    
C22   C57   A    
C33   C65   S    
C96   H9    S    
C57   N7    A    
C5    C152  A    
N16   Ni8   S    
C19   C116  A    
C89   H115  S    
C103  H30   S    
N8    N28   A    
C65   C83   A    
C15   C135  A    
C145  C162  A    
C122  C175  A    
C103  C153  S    
C2    N2    A    
C160  N30   A    
C182  H118  S    
C92   C142  S    
C93   C143  S    
N10   Ni6   S    
C155  C173  A    
C88   H113  S    
C159  C177  A    
C133  C186  A    
C174  C181  A    
C44   C62   A    
C58   C75   A    
C45   H67   S    
C99   H20   S    
C100  C151  S    
C4    H78   S    
C92   H122  S    
C60   C77   A    
C5    H79   S    
C17   C24   A    
C80   C130  A    
C6    H80   S    
C41   C59   A    
C70   C120  A    
C42   C163  A    
C14   C134  A    
C73   C123  A    
C41   H62   S    
C45   C63   A    
C111  H47   S    
C137  C156  A    
C79   N9    A    
N4    Ni4   S    
C88   C139  S    
C47   C167  A    
C18   C59   S    
C38   H59   S    
C12   H87   S    
N30   Ni4   S    
C61   C78   A    
N9    N21   A    
C23   C160  A    
C64   C82   A    
C162  C179  A    
C77   C128  A    
C102  H27   S    
C85   C135  A    
C115  H51   S    
C37   C54   A    
C86   C136  A    
C113  H49   S    
C12   C133  A    
C34   H56   S    
C97   H14   S    
C90   H39   S    
C15   H89   S    
C170  C188  A    
N29   Ni1   S    
C135  C188  A    
C43   H65   S    
C68   H37   S    
C20   C182  A    
C50   C67   A    
C14   H88   S    
C4    C151  A    
C107  H43   S    
C105  N12   A    
C72   C122  A    
C105  H41   S    
C7    H81   S    
C89   H117  S    
C77   H99   S    
C78   H100  S    
N3    N12   A    
C109  H45   S    
N7    Ni4   S    
C18   C105  A    
C20   C52   S    
C19   C53   S    
C42   H64   S    
C79   H38   S    
C16   H90   S    
N26   Ni7   S    
C83   C133  A    
C52   C70   A    
C66   C84   A    
C15   C144  A    
C120  C173  A    
C54   C72   A    
C95   H7    S    
C51   H72   S    
C163  C180  A    
C87   H110  S    
C146  C190  A    
C8    H82   S    
C69   C86   A    
C113  N20   A    
C99   H18   S    
N5    Ni1   S    
