data_mof_unit_3802.cif
_audit_creation_date              2012-12-10T17:11:00-0500
_audit_creation_method            fapswitch 2.2
_symmetry_space_group_name_H-M    P1
_symmetry_Int_Tables_number       1
_space_group_crystal_system       triclinic
_cell_length_a                    11.753162
_cell_length_b                    12.985178
_cell_length_c                    13.374773
_cell_angle_alpha                 93.325499
_cell_angle_beta                  77.116637
_cell_angle_gamma                 100.573125
_cell_volume                      1955.73517245

loop_
_atom_site_label
_atom_site_type_symbol
_atom_type_description
_atom_site_fract_x
_atom_site_fract_y
_atom_site_fract_z
_atom_type_partial_charge
C1    C     C_R   0.520145 0.700759 0.505434 0.806398
C2    C     C_R   0.437419 0.466589 0.977812 0.079062
C3    C     C_R   0.466668 0.451293 0.869998 0.046455
C4    C     C_R   0.525445 0.459350 0.034208 0.082494
C5    C     C_R   0.626770 0.413826 0.987986 0.070030
C6    C     C_R   0.638075 0.377988 0.885903 -0.246318
C7    C     C_R   0.561202 0.398376 0.827547 -0.177606
C8    C     C_R   0.518975 0.502641 0.133142 -0.253061
C9    C     C_R   0.693015 0.437250 0.149263 -0.171541
C10   C     C_R   0.397827 0.485852 0.808291 -0.104176
C11   C     C_R   0.463586 0.186266 0.505870 -0.045996
C12   C     C_R   0.436590 0.492164 0.695870 0.782498
C13   C     C_R   0.532071 0.814798 0.509512 -0.053296
C14   C     C_R   0.649203 0.980973 0.447438 -0.203621
C15   C     C_R   0.638827 0.873866 0.457836 -0.208058
C16   C     C_R   0.435699 0.864684 0.557224 0.116742
C17   C     C_R   0.442902 0.971807 0.538667 0.159277
C18   C     C_R   0.551438 0.029883 0.485107 0.129213
C19   C     C_R   0.561348 0.136751 0.470554 -0.240191
C20   C     C_R   0.354666 0.128754 0.554383 -0.207103
C21   C     C_R   0.344461 0.022667 0.571713 -0.193121
C22   C     C_R   0.958111 0.612689 0.575876 -0.265580
C23   C     C_R   0.478410 0.299320 0.499103 0.797185
C24   C     C_R   0.836909 0.600769 0.573790 0.191991
C25   C     C_R   0.850139 0.447716 0.469697 0.019845
C26   C     C_R   0.971561 0.454828 0.474628 0.022704
C27   C     C_R   0.026400 0.540279 0.526411 -0.027538
C28   C     C_R   0.147589 0.550689 0.530639 -0.027797
C29   C     C_R   0.162842 0.395774 0.428707 0.367464
C30   C     C_R   0.038557 0.378065 0.430721 0.081738
C31   C     C_R   0.562722 0.501768 0.304080 0.808742
C32   C     C_R   0.712584 0.404629 0.045873 0.002554
C33   C     C_R   0.595686 0.484669 0.192990 -0.106363
C34   C     C_R   0.292525 0.520993 0.855145 -0.236962
C35   C     C_R   0.252819 0.518122 0.960742 -0.119843
C36   C     C_R   0.321214 0.487393 0.023059 0.169413
Cu1   Cu    Cu3+1 0.386470 0.492430 0.492410 0.933991
Cu2   Cu    Cu3+1 0.613530 0.507570 0.507590 0.926147
H1    H     H_    0.753262 0.425026 0.196346 0.186743
H2    H     H_    0.278495 0.166667 0.582244 0.160165
H3    H     H_    0.732561 0.024996 0.406756 0.152770
H4    H     H_    0.258897 0.981406 0.610552 0.161108
H5    H     H_    0.713579 0.836461 0.422738 0.173725
H6    H     H_    0.187079 0.614285 0.574359 0.140004
H7    H     H_    0.998718 0.677452 0.618401 0.174101
H8    H     H_    0.707104 0.335523 0.848534 0.136949
H9    H     H_    0.807543 0.386028 0.425823 0.144726
H10   H     H_    0.453474 0.550473 0.165806 0.176452
H11   H     H_    0.238446 0.547912 0.809694 0.162224
H12   H     H_    0.166184 0.537266 0.994090 0.162233
H13   H     H_    0.574953 0.368634 0.749456 0.175948
H14   H     H_    0.645350 0.181685 0.431924 0.141155
N1    N     N_R   0.215880 0.481050 0.481000 -0.191306
N2    N     N_R   0.784100 0.518950 0.519000 -0.226924
O1    O     O_R   0.419710 0.645650 0.494620 -0.569317
O2    O     O_R   0.611450 0.658430 0.507430 -0.602142
O3    O     O_R   0.357340 0.490460 0.641450 -0.575615
O4    O     O_R   0.549080 0.503250 0.654260 -0.616805
O5    O     O_R   0.388550 0.341570 0.492570 -0.586839
O6    O     O_R   0.580290 0.354350 0.505380 -0.594619
O7    O     O_R   0.450920 0.496750 0.345740 -0.587845
O8    O     O_R   0.642660 0.509540 0.358550 -0.578696
C37   C     C_3   0.329458 0.807218 0.631863 -0.880994
H15   H     H_    0.343865 0.731256 0.655948 0.233435
H16   H     H_    0.311646 0.854462 0.703749 0.231864
H17   H     H_    0.250348 0.794515 0.597350 0.229270
C38   C     C_3   0.232372 0.317192 0.367302 -0.773468
H18   H     H_    0.326449 0.346194 0.339000 0.262044
H19   H     H_    0.220451 0.245734 0.412926 0.219130
H20   H     H_    0.201072 0.294236 0.295556 0.199113
C39   C     C_3   0.975339 0.276516 0.390016 -0.905845
H21   H     H_    0.026529 0.211693 0.377926 0.247676
H22   H     H_    0.893336 0.245759 0.446877 0.227051
H23   H     H_    0.952014 0.291148 0.316716 0.250466
C40   C     C_2   0.770188 0.678467 0.633963 0.375941
H24   H     H_    0.676744 0.659405 0.666273 0.124342
O9    O     O_2   0.820734 0.766717 0.650249 -0.569388
C41   C     C_2   0.823369 0.362739 0.001354 0.339712
H25   H     H_    0.855658 0.356310 0.919315 0.069627
O10   O     O_2   0.882389 0.336413 0.056757 -0.555825
C42   C     C_3   0.257614 0.460510 0.131862 -0.879499
H26   H     H_    0.301820 0.407190 0.165381 0.239702
H27   H     H_    0.251121 0.532945 0.179573 0.235443
H28   H     H_    0.166268 0.417547 0.133467 0.256238

loop_
_geom_bond_atom_site_label_1
_geom_bond_atom_site_label_2
_ccdc_geom_bond_type
C37   H16   S    
C31   O7    A    
C35   C36   A    
C4    C8    A    
C30   C39   S    
C23   O5    A    
C11   C19   A    
C26   C27   A    
C29   C30   A    
C1    O2    A    
C18   C19   A    
C3    C7    A    
C5    C6    A    
C20   H2    S    
C41   O10   D    
C24   N2    A    
C9    H1    S    
C34   C35   A    
C14   C18   A    
C9    C32   A    
Cu2   O4    S    
C19   H14   S    
C16   C17   A    
C31   C33   S    
C16   C37   S    
C25   H9    S    
C5    C32   A    
C12   O4    A    
C37   H17   S    
C29   C38   S    
C9    C33   A    
C31   O8    A    
C42   H27   S    
C42   H26   S    
C23   O6    A    
C11   C20   A    
Cu1   N1    S    
C25   N2    A    
C39   H22   S    
C41   H25   S    
C25   C26   A    
C37   H15   S    
C28   H6    S    
C17   C21   A    
C38   H18   S    
C38   H19   S    
C2    C4    A    
C40   H24   S    
C8    H10   S    
Cu1   Cu2   S    
C7    H13   S    
Cu2   N2    S    
C36   C42   S    
C35   H12   S    
C17   C18   A    
C10   C34   A    
C40   O9    D    
Cu1   O5    S    
C10   C12   S    
C14   H3    S    
Cu2   O6    S    
C12   O3    A    
C26   C30   A    
C22   C27   A    
C13   C15   A    
C22   C24   A    
C1    C13   S    
C42   H28   S    
C2    C36   A    
C34   H11   S    
C6    H8    S    
C4    C5    A    
C39   H23   S    
Cu1   O7    S    
C28   N1    A    
C24   C40   S    
C6    C7    A    
C38   H20   S    
C2    C3    A    
C1    O1    A    
C15   H5    S    
C39   H21   S    
C3    C10   A    
C29   N1    A    
C11   C23   S    
C8    C33   A    
C32   C41   S    
C21   H4    S    
Cu1   O1    S    
C22   H7    S    
Cu2   O2    S    
C20   C21   A    
C13   C16   A    
C27   C28   A    
C14   C15   A    
Cu1   O3    S    
Cu2   O8    S    
