data_mof_unit_3480.cif
_audit_creation_date              2012-12-11T14:15:19-0500
_audit_creation_method            fapswitch 2.2
_symmetry_space_group_name_H-M    P1
_symmetry_Int_Tables_number       1
_space_group_crystal_system       triclinic
_cell_length_a                    11.132514
_cell_length_b                    12.726908
_cell_length_c                    23.524715
_cell_angle_alpha                 90.099642
_cell_angle_beta                  96.226644
_cell_angle_gamma                 68.860509
_cell_volume                      3087.8921323

loop_
_atom_site_label
_atom_site_type_symbol
_atom_type_description
_atom_site_fract_x
_atom_site_fract_y
_atom_site_fract_z
_atom_type_partial_charge
C1    C     C_R   0.150037 0.617288 0.429300 0.561486
C2    C     C_R   0.651935 0.566342 0.312157 -0.131502
C3    C     C_R   0.686367 0.744580 0.319688 -0.015041
C4    C     C_R   0.667325 0.756995 0.259112 0.010364
C5    C     C_R   0.670777 0.660805 0.227114 0.072263
C6    C     C_R   0.690055 0.659619 0.169350 0.105648
C7    C     C_R   0.649325 0.859478 0.169842 -0.124342
C8    C     C_R   0.648338 0.859717 0.228973 0.032716
C9    C     C_1   0.231682 0.174458 0.118691 0.030983
C10   C     C_2   0.186284 0.270763 0.217679 0.024717
C11   C     C_2   0.126754 0.227400 0.253106 -0.073841
C12   C     C_R   0.748110 0.605370 0.404286 0.535555
C13   C     C_1   0.109071 0.261723 0.310948 0.046846
C14   C     C_1   0.208589 0.221288 0.162894 -0.057351
C15   C     C_1   0.097373 0.290884 0.359379 0.069765
C16   C     C_1   0.165087 0.749282 0.122807 0.050090
C17   C     C_2   0.141681 0.686809 0.227244 0.041638
C18   C     C_2   0.226501 0.693416 0.272815 0.055620
C19   C     C_1   0.214585 0.661090 0.330262 0.019172
C20   C     C_1   0.152722 0.719867 0.169805 -0.016348
C21   C     C_1   0.194547 0.637995 0.377113 0.076668
C22   C     C_1   0.615482 0.765256 0.862235 0.009929
C23   C     C_R   0.086989 0.328725 0.416563 0.560258
C24   C     C_2   0.652119 0.751470 0.753050 0.094280
C25   C     C_2   0.634060 0.667215 0.723711 -0.101028
C26   C     C_1   0.660624 0.650905 0.665219 0.017362
C27   C     C_1   0.636449 0.758454 0.812981 -0.012727
C28   C     C_1   0.693558 0.632722 0.618031 0.067007
C29   C     C_R   0.214790 0.167452 0.848217 0.003694
C30   C     C_R   0.104764 0.205775 0.635250 0.007791
C31   C     C_R   0.992611 0.181515 0.714906 0.060688
C32   C     C_R   0.991853 0.199818 0.655669 0.084150
C33   C     C_R   0.221009 0.163576 0.670578 -0.014784
C34   C     C_R   0.152720 0.617762 0.589769 0.575682
C35   C     C_R   0.216245 0.173122 0.729678 -0.033802
C36   C     C_R   0.099325 0.183919 0.753045 -0.041985
C37   C     C_R   0.096436 0.191331 0.813429 0.005874
C38   C     C_R   0.320751 0.176263 0.823818 -0.087670
C39   C     C_R   0.321813 0.180243 0.765511 0.075113
C40   C     C_R   0.137035 0.753997 0.848944 -0.008348
C41   C     C_R   0.203556 0.642466 0.646512 0.024614
C42   C     C_R   0.327760 0.570375 0.739558 -0.024583
C43   C     C_R   0.317157 0.567568 0.678787 -0.026328
C44   C     C_R   0.118244 0.732394 0.672808 -0.133485
C45   C     C_R   0.748823 0.601850 0.565622 0.552024
C46   C     C_R   0.126220 0.736024 0.731302 0.011373
C47   C     C_R   0.228861 0.654393 0.765817 0.042712
C48   C     C_R   0.233146 0.665650 0.825257 -0.091400
C49   C     C_R   0.031025 0.827223 0.813671 -0.099242
C50   C     C_R   0.028294 0.820141 0.755188 -0.101122
C51   C     C_R   0.265073 0.111412 0.068624 0.564327
C52   C     C_R   0.600727 0.775152 0.080944 0.566556
C53   C     C_R   0.188750 0.787520 0.069373 0.555939
C54   C     C_R   0.243161 0.113609 0.906209 0.583979
C55   C     C_R   0.573320 0.777354 0.917986 0.546411
C56   C     C_R   0.098938 0.275305 0.584101 0.594004
C57   C     C_R   0.165685 0.787792 0.906390 0.532583
C58   C     C_R   0.663179 0.761574 0.139741 -0.025876
C59   C     C_R   0.686906 0.643878 0.345711 -0.046581
C60   C     C_R   0.646169 0.572525 0.253328 0.125549
Cr1   Cr    Cr6+3 0.189770 0.415650 0.511620 1.130736
Cr2   Cr    Cr6+3 0.930400 0.667320 0.496770 1.079293
Cr3   Cr    Cr6+3 0.879870 0.417010 0.491650 1.094858
Cr4   Cr    Cr6+3 0.149500 0.973980 0.985330 1.106488
Cr5   Cr    Cr6+3 0.457000 0.976510 0.994660 1.062834
Cr6   Cr    Cr6+3 0.411170 0.724270 0.995270 1.092380
H1    H     H_    0.609876 0.603628 0.745248 0.093769
H2    H     H_    0.407844 0.173890 0.850144 0.193744
H3    H     H_    0.316019 0.612788 0.853324 0.193490
H4    H     H_    0.624611 0.939288 0.146546 0.189173
H5    H     H_    0.956243 0.896360 0.830830 0.183273
H6    H     H_    0.951477 0.882728 0.728160 0.185350
H7    H     H_    0.035889 0.795204 0.647959 0.167460
H8    H     H_    0.638007 0.495213 0.331714 0.173198
H9    H     H_    0.093407 0.160224 0.238850 0.134438
O1    O     O_R   0.196340 0.303200 0.448500 -0.476050
O2    O     O_R   0.811960 0.658090 0.547150 -0.495743
O3    O     O_R   0.757930 0.506140 0.547110 -0.474982
O4    O     O_R   0.988670 0.321620 0.556040 -0.485947
O5    O     O_3   0.000020 0.499990 0.500010 -0.303995
O6    O     O_R   0.113660 0.883270 0.047820 -0.504085
O7    O     O_R   0.186930 0.068530 0.043990 -0.480299
O8    O     O_R   0.377770 0.089040 0.054220 -0.499999
O9    O     O_R   0.562800 0.872960 0.056970 -0.514322
O10   O     O_R   0.555390 0.700940 0.062700 -0.456862
O11   O     O_R   0.295020 0.731920 0.049950 -0.477666
O12   O     O_R   0.199310 0.519670 0.454880 -0.497810
O13   O     O_R   0.094290 0.884230 0.921550 -0.505104
O14   O     O_R   0.168980 0.069410 0.926940 -0.439829
O15   O     O_R   0.358400 0.089990 0.927950 -0.529311
O16   O     O_R   0.544850 0.873850 0.939920 -0.493319
O17   O     O_R   0.536020 0.701900 0.936430 -0.495246
O18   O     O_R   0.277070 0.732810 0.932890 -0.510575
O19   O     O_3   0.339220 0.891590 0.991750 -0.278186
O20   O     O_R   0.045660 0.691380 0.441680 -0.469440
O21   O     O_R   0.811930 0.659460 0.430950 -0.492970
O22   O     O_R   0.757900 0.507620 0.421760 -0.512834
O23   O     O_R   0.988630 0.322990 0.439840 -0.487343
O24   O     O_R   0.196380 0.301720 0.573850 -0.453348
O25   O     O_R   0.199350 0.518300 0.571080 -0.460954
O26   O     O_R   0.045700 0.689900 0.567030 -0.522673
I1    I     I_    0.797818 0.508443 0.129493 -0.287552
C61   C     C_2   0.031078 0.648502 0.231828 0.262007
H10   H     H_    0.971184 0.643464 0.193092 0.110472
O27   O     O_2   0.003992 0.623458 0.277534 -0.464010
I2    I     I_    0.690980 0.882180 0.712975 -0.348704
C62   C     C_2   0.973450 0.252731 0.838117 0.269202
H11   H     H_    0.887900 0.303552 0.810336 0.138544
O28   O     O_2   0.967264 0.253764 0.889602 -0.468247
I3    I     I_    0.845499 0.130800 0.744054 -0.318101
I4    I     I_    0.482120 0.208762 0.736959 -0.279614
I5    I     I_    0.826508 0.204814 0.597668 -0.192270
C63   C     C_2   0.339109 0.087857 0.646778 0.288158
H12   H     H_    0.421200 0.035078 0.675429 0.164408
O29   O     O_2   0.343319 0.077910 0.595311 -0.455034
C64   C     C_2   0.440612 0.485253 0.774305 0.213614
H13   H     H_    0.536623 0.459710 0.760732 0.111696
O30   O     O_2   0.426561 0.437742 0.816730 -0.478876
C65   C     C_2   0.424176 0.488849 0.649332 0.241128
H14   H     H_    0.489331 0.409965 0.669955 0.148156
O31   O     O_2   0.443755 0.513710 0.601992 -0.478995
I6    I     I_    0.567548 0.461094 0.209263 -0.252120
C66   C     C_2   0.600368 0.971867 0.254908 0.292152
H15   H     H_    0.545649 0.984221 0.291384 0.103083
O32   O     O_2   0.618819 0.052537 0.234911 -0.464219
C67   C     C_2   0.721025 0.828198 0.355310 0.258227
H16   H     H_    0.673350 0.857974 0.393244 0.106591
O33   O     O_2   0.806782 0.860434 0.343805 -0.442589
C68   C     C_2   0.238530 0.360962 0.232429 0.282607
H17   H     H_    0.280282 0.393294 0.200108 0.129260
O34   O     O_2   0.237396 0.399316 0.280037 -0.480169
C69   C     C_2   0.331114 0.739345 0.268647 0.221211
H18   H     H_    0.392483 0.742794 0.307204 0.093427
O35   O     O_2   0.349999 0.774646 0.223560 -0.513080

loop_
_geom_bond_atom_site_label_1
_geom_bond_atom_site_label_2
_ccdc_geom_bond_type
C1    O12   A    
C1    C21   S    
C67   H16   S    
Cr2   O21   S    
C41   C43   A    
C6    C58   A    
Cr2   O2    S    
C18   C69   S    
C35   C36   A    
C25   H1    S    
C24   C27   S    
C23   O1    A    
C4    C8    A    
Cr6   O10   S    
C3    C67   S    
C7    C8    A    
Cr3   O4    S    
C56   O4    A    
Cr2   O5    S    
C36   C37   A    
C19   C21   T    
C37   C62   S    
Cr3   O23   S    
C5    C6    A    
C2    C60   A    
C66   O32   D    
C29   C54   S    
Cr1   O5    S    
C40   C49   A    
C17   C20   S    
C64   H13   S    
Cr5   O16   S    
C18   C19   S    
C52   O9    A    
C50   H6    S    
C16   C53   S    
C55   O16   A    
Cr1   O12   S    
C12   C59   S    
C31   C32   A    
C69   H18   S    
C9    C51   S    
C29   C38   A    
C34   O25   A    
C62   H11   S    
C53   O11   A    
C48   H3    S    
C7    C58   A    
C5    C60   A    
C1    O20   A    
Cr6   O19   S    
Cr2   O26   S    
C15   C23   S    
C57   O18   A    
Cr2   O20   S    
C62   O28   D    
Cr1   O24   S    
C34   C41   S    
Cr4   O14   S    
C7    H4    S    
C44   C46   A    
Cr3   O5    S    
C65   O31   D    
Cr1   O1    S    
Cr5   O15   S    
C28   C45   S    
C34   O26   A    
C66   H15   S    
C24   C25   D    
C54   O14   A    
C10   C14   S    
C2    C59   A    
Cr5   O9    S    
Cr6   O17   S    
C25   C26   S    
C30   C56   S    
C35   C39   A    
C9    C14   T    
C55   O17   A    
C47   C48   A    
C16   C20   T    
C17   C18   D    
C61   O27   D    
C60   I6    S    
C51   O7    A    
Cr4   O7    S    
C12   O22   A    
C45   O3    A    
C52   C58   S    
Cr6   O18   S    
C42   C64   S    
Cr5   O19   S    
C38   H2    S    
C22   C27   T    
C13   C15   T    
C41   C44   A    
Cr1   O25   S    
C24   I2    S    
C42   C43   A    
C3    C4    A    
C51   O8    A    
C63   H12   S    
C40   C48   A    
C46   C47   A    
C52   O10   A    
C67   O33   D    
C40   C57   S    
C32   I5    S    
C30   C33   A    
C33   C63   S    
C4    C5    A    
C2    H8    S    
Cr6   O11   S    
C65   H14   S    
C8    C66   S    
C54   O15   A    
C22   C55   S    
C46   C50   A    
C26   C28   T    
C57   O13   A    
C68   H17   S    
C10   C68   S    
Cr4   O19   S    
Cr3   O22   S    
C11   H9    S    
C30   C32   A    
C11   C13   S    
C38   C39   A    
C39   I4    S    
C33   C35   A    
C31   I3    S    
C64   O30   D    
C42   C47   A    
C6    I1    S    
C17   C61   S    
C44   H7    S    
C53   O6    A    
Cr4   O6    S    
Cr5   O8    S    
C10   C11   D    
C23   O23   A    
C69   O35   D    
C49   C50   A    
C49   H5    S    
C29   C37   A    
C61   H10   S    
C31   C36   A    
C12   O21   A    
C45   O2    A    
C56   O24   A    
C68   O34   D    
Cr4   O13   S    
C43   C65   S    
C63   O29   D    
Cr3   O3    S    
C3    C59   A    
