data_mof_unit_1427.cif
_audit_creation_date              2013-03-05T16:15:19-0500
_audit_creation_method            fapswitch 2.2
_symmetry_space_group_name_H-M    P1
_symmetry_Int_Tables_number       1
_space_group_crystal_system       triclinic
_cell_length_a                    27.749808
_cell_length_b                    10.623361
_cell_length_c                    9.408749
_cell_angle_alpha                 89.603245
_cell_angle_beta                  90.125856
_cell_angle_gamma                 91.148561
_cell_volume                      2773.03407717

loop_
_atom_site_label
_atom_site_type_symbol
_atom_site_description
_atom_site_fract_x
_atom_site_fract_y
_atom_site_fract_z
_atom_type_partial_charge
O1    O     O_R   0.500020 0.316850 0.620870 -0.586842
O2    O     O_R   0.499980 0.683150 0.379130 -0.586771
O3    O     O_R   0.500000 0.316860 0.379090 -0.581390
O4    O     O_R   0.500000 0.683140 0.620910 -0.581496
C1    C     C_R   0.499964 0.259356 0.500469 0.790342
C2    C     C_R   0.500037 0.740644 0.499530 0.790375
O5    O     O_R   0.430270 0.500020 0.620880 -0.583797
O6    O     O_R   0.569730 0.499980 0.379120 -0.584386
O7    O     O_R   0.430250 0.500030 0.379090 -0.585183
O8    O     O_R   0.569750 0.499970 0.620910 -0.584427
C3    C     C_R   0.407437 0.498460 0.499787 0.796616
C4    C     C_R   0.592563 0.501532 0.500031 0.796629
Cu1   Cu    Cu3+1 0.500010 0.499990 0.643150 0.937228
Cu2   Cu    Cu3+1 0.499990 0.500010 0.356850 0.937058
C5    C     C_R   0.175214 0.380326 0.510720 0.562408
C6    C     C_R   0.824843 0.619070 0.511922 0.562531
O9    O     O_2   0.197771 0.271318 0.537703 -0.494016
O10   O     O_2   0.802357 0.727836 0.538713 -0.493998
N1    N     N_R   0.201612 0.488784 0.491156 -0.479232
N2    N     N_R   0.798388 0.510842 0.492721 -0.479130
C7    C     C_R   0.180165 0.601201 0.464095 0.595433
C8    C     C_R   0.819769 0.398661 0.465931 0.595556
C9    C     C_R   0.279017 0.492907 0.366666 -0.091088
C10   C     C_R   0.722208 0.519108 0.624957 -0.089198
C11   C     C_R   0.329211 0.497036 0.368644 -0.208822
C12   C     C_R   0.671880 0.514765 0.627031 -0.212620
C13   C     C_R   0.328209 0.484570 0.626281 -0.213579
C14   C     C_R   0.670705 0.503420 0.369509 -0.209111
C15   C     C_R   0.277883 0.480102 0.623905 -0.090315
C16   C     C_R   0.720893 0.507476 0.367831 -0.091673
C17   C     C_R   0.253211 0.484907 0.494094 0.342212
C18   C     C_R   0.746791 0.514821 0.495351 0.341886
C19   C     C_R   0.101659 0.496188 0.471980 -0.088114
C20   C     C_R   0.898303 0.503540 0.473007 -0.088044
C21   C     C_R   0.124809 0.381735 0.501281 -0.011709
C22   C     C_R   0.875229 0.617707 0.502217 -0.011790
C23   C     C_R   0.097210 0.271442 0.521796 -0.088341
C24   C     C_R   0.902885 0.727774 0.522262 -0.088179
C25   C     C_R   0.129407 0.607994 0.453251 -0.178935
C26   C     C_R   0.870503 0.391935 0.454796 -0.178881
C27   C     C_R   0.354329 0.493702 0.498524 -0.042806
C28   C     C_R   0.645672 0.506235 0.499184 -0.042491
H1    H     H_    0.346589 0.481394 0.727867 0.155209
H2    H     H_    0.651586 0.497178 0.269247 0.155177
H3    H     H_    0.258040 0.474816 0.722798 0.146053
H4    H     H_    0.739787 0.503522 0.267419 0.145691
H5    H     H_    0.114001 0.183361 0.549381 0.227375
H6    H     H_    0.886166 0.815580 0.549787 0.227625
C29   C     C_R   0.972742 0.385696 0.447373 -0.100285
C30   C     C_R   0.027152 0.614275 0.446809 -0.100300
C31   C     C_R   0.976513 0.615839 0.469666 0.097388
C32   C     C_R   0.023443 0.383899 0.469675 0.097496
C33   C     C_R   0.949223 0.501576 0.462795 0.047245
C34   C     C_R   0.050712 0.498239 0.462250 0.047209
C35   C     C_R   0.944673 0.276562 0.412698 0.188343
C36   C     C_R   0.055127 0.723770 0.411556 0.188123
C37   C     C_R   0.894001 0.279083 0.420643 0.277226
C38   C     C_R   0.105818 0.721178 0.418996 0.277101
O11   O     O_2   0.791665 0.294543 0.450770 -0.458527
O12   O     O_2   0.208227 0.705488 0.448452 -0.458368
C39   C     C_R   0.047384 0.272725 0.507524 -0.094400
C40   C     C_R   0.952674 0.726621 0.507529 -0.094468
H7    H     H_    0.653570 0.517515 0.728456 0.151428
H8    H     H_    0.348265 0.503787 0.268466 0.152702
H9    H     H_    0.742119 0.523878 0.723937 0.146189
H10   H     H_    0.260050 0.497312 0.266097 0.145517
H11   H     H_    0.027849 0.186411 0.532103 0.199236
H12   H     H_    0.972280 0.812671 0.531720 0.199434
C41   C     C_3   0.500058 0.039440 0.635421 -0.139852
C42   C     C_3   0.499944 0.960560 0.364576 -0.139629
C43   C     C_3   0.539639 0.959505 0.567037 -0.159022
C44   C     C_3   0.460363 0.040495 0.432960 -0.158915
H13   H     H_    0.572062 0.923166 0.621736 0.140591
H14   H     H_    0.427940 0.076833 0.378260 0.140934
H15   H     H_    0.500108 0.074272 0.746403 0.132368
H16   H     H_    0.499894 0.925728 0.253593 0.132411
C45   C     C_3   0.500022 0.877608 0.498616 0.012457
C46   C     C_3   0.499980 0.122393 0.501381 0.012220
C47   C     C_3   0.460441 0.955268 0.566881 -0.160016
C48   C     C_3   0.539561 0.044733 0.433116 -0.159930
H17   H     H_    0.428085 0.915452 0.621460 0.140320
H18   H     H_    0.571917 0.084551 0.378537 0.140820
C49   C     C_3   0.507072 0.612597 0.049585 -0.036232
C50   C     C_3   0.492928 0.387402 0.950417 -0.035802
C51   C     C_3   0.466346 0.570356 0.948523 -0.035193
C52   C     C_3   0.533655 0.429644 0.051479 -0.034507
H19   H     H_    0.438072 0.629582 0.900152 0.117260
H20   H     H_    0.561931 0.370427 0.099857 0.116402
H21   H     H_    0.513124 0.707529 0.095619 0.114725
H22   H     H_    0.486875 0.292470 0.904384 0.114537
N3    N     N_3   0.500040 0.499970 0.858290 -0.155231
N4    N     N_3   0.499960 0.500030 0.141710 -0.155229
C53   C     C_3   0.540768 0.542197 0.949505 -0.037558
C54   C     C_3   0.459232 0.457803 0.050497 -0.038711
H23   H     H_    0.575059 0.578034 0.902352 0.114540
H24   H     H_    0.424940 0.421973 0.097655 0.115077
N5    N     N_R   0.866756 0.167796 0.384821 0.200238
O13   O     O_R   0.856818 0.143489 0.252540 -0.270040
O14   O     O_R   0.855035 0.086287 0.483290 -0.274449
N6    N     N_R   0.132974 0.832822 0.382587 0.200307
O15   O     O_R   0.144899 0.913427 0.480679 -0.274669
O16   O     O_R   0.142652 0.858311 0.250161 -0.269973
N7    N     N_R   0.966625 0.168565 0.350475 0.149337
O17   O     O_R   0.954080 0.055297 0.391114 -0.269537
O18   O     O_R   0.997012 0.183192 0.246204 -0.268939
N8    N     N_R   0.033007 0.832394 0.349286 0.149316
O19   O     O_R   0.045682 0.945260 0.389409 -0.268621
O20   O     O_R   0.002313 0.818808 0.245458 -0.269132

loop_
_geom_bond_atom_site_label_1
_geom_bond_atom_site_label_2
_geom_bond_distance
_ccdc_geom_bond_type
C13   C15   1.396533 A    
C12   H7    1.082937 S    
N1    C17   1.433486 S    
N5    O13   1.300711 A    
C51   N3    1.481363 S    
C5    N1    1.364506 A    
C49   N4    1.482307 S    
C19   C25   1.412714 A    
O1    C1    1.290686 A    
C9    H10   1.082945 S    
C21   C23   1.399352 A    
C50   C52   1.537398 S    
C44   C47   1.546510 S    
C32   C39   1.409841 A    
C52   H20   1.110346 S    
N8    O19   1.301019 A    
C49   C53   1.536875 S    
C35   N7    1.438404 S    
O4    Cu1   1.955453 S    
C41   C43   1.545813 S    
C13   C27   1.406787 A    
C4    C28   1.473636 S    
C44   C46   1.531755 S    
C41   H15   1.110231 S    
C50   N3    1.482319 S    
C23   H5    1.083353 S    
C24   H6    1.083360 S    
O6    C4    1.301006 A    
C51   H19   1.110335 S    
C37   N5    1.432309 S    
C53   H23   1.110076 S    
Cu1   Cu2   2.693721 S    
Cu1   N3    2.024196 S    
C42   C45   1.533540 S    
C41   C46   1.533538 S    
O2    C2    1.290683 A    
C31   C40   1.409831 A    
C50   H22   1.109870 S    
C5    C21   1.401724 A    
C43   C48   1.546514 S    
N5    O14   1.301084 A    
C32   C34   1.419567 A    
C45   C47   1.531770 S    
C49   H21   1.109870 S    
C36   N8    1.438434 S    
C42   C48   1.545808 S    
C38   N6    1.432324 S    
C7    O12   1.348741 S    
C44   H14   1.110214 S    
C11   C27   1.406083 A    
C8    O11   1.348741 S    
C43   H13   1.110215 S    
C2    C45   1.454991 S    
C29   C35   1.423107 A    
C25   C38   1.415403 A    
C14   H2    1.083073 S    
C30   C36   1.423125 A    
C15   H3    1.082779 S    
C31   C33   1.419549 A    
C11   H8    1.082974 S    
C9    C17   1.399072 A    
O5    C3    1.302490 A    
O7    Cu2   1.947013 S    
C10   C18   1.400037 A    
C52   C53   1.537749 S    
N3    C53   1.481841 S    
C51   C54   1.537747 S    
C39   H11   1.079733 S    
C7    C25   1.415241 A    
C6    N2    1.364524 A    
C29   C32   1.422519 A    
C8    C26   1.415236 A    
N6    O16   1.300676 A    
C30   C31   1.422494 A    
N7    O18   1.301529 A    
C6    O10   1.349665 S    
C50   C54   1.536885 S    
C54   H24   1.110088 S    
O7    C3    1.301196 A    
Cu2   N4    2.024196 S    
O3    Cu2   1.955452 S    
O8    C4    1.302699 A    
C10   H9    1.082782 S    
C48   H18   1.110225 S    
C49   C51   1.537387 S    
N2    C8    1.367104 A    
C35   C37   1.409063 A    
C42   H16   1.110230 S    
C20   C26   1.412709 A    
C41   C47   1.545806 S    
O4    C2    1.291408 A    
O1    Cu1   1.958272 S    
C22   C24   1.399361 A    
C43   C45   1.531758 S    
C12   C28   1.406789 A    
C47   H17   1.110219 S    
N2    C18   1.433558 S    
C19   C34   1.417101 A    
C5    O9    1.349668 S    
O6    Cu2   1.946130 S    
C26   C37   1.415398 A    
N1    C7    1.367065 A    
C16   H4    1.082966 S    
C10   C12   1.396616 A    
O3    C1    1.291403 A    
O8    Cu1   1.947013 S    
C23   C39   1.389184 A    
C40   H12   1.079744 S    
C14   C16   1.392612 A    
C30   C34   1.413327 A    
C52   N4    1.481351 S    
C6    C22   1.401751 A    
C16   C18   1.399063 A    
N4    C54   1.481833 S    
N8    O20   1.301526 A    
C29   C33   1.413342 A    
C14   C28   1.406100 A    
N6    O15   1.301067 A    
C19   C21   1.411716 A    
C20   C22   1.411736 A    
C36   C38   1.409083 A    
C3    C27   1.473609 S    
C46   C48   1.531774 S    
C9    C11   1.392770 A    
O2    Cu2   1.958271 S    
C13   H1    1.083022 S    
O5    Cu1   1.946130 S    
C20   C33   1.417091 A    
C15   C17   1.399968 A    
N7    O17   1.301031 A    
C42   C44   1.545811 S    
C1    C46   1.454989 S    
C24   C40   1.389181 A    
