data_mof_unit_108.cif
_audit_creation_date              2012-12-10T17:50:14-0500
_audit_creation_method            fapswitch 2.2
_symmetry_space_group_name_H-M    P1
_symmetry_Int_Tables_number       1
_space_group_crystal_system       triclinic
_cell_length_a                    10.606692
_cell_length_b                    14.705036
_cell_length_c                    14.663168
_cell_angle_alpha                 65.034781
_cell_angle_beta                  103.44618
_cell_angle_gamma                 102.855205
_cell_volume                      1996.36297984

loop_
_atom_site_label
_atom_site_type_symbol
_atom_type_description
_atom_site_fract_x
_atom_site_fract_y
_atom_site_fract_z
_atom_type_partial_charge
C1    C     C_R   0.485812 0.119813 0.311654 0.812233
C2    C     C_R   0.514226 0.880967 0.687504 0.816896
C3    C     C_R   0.511557 0.294300 0.176815 0.363715
C4    C     C_R   0.538374 0.716647 0.830046 0.368115
C5    C     C_R   0.486208 0.362577 0.074610 -0.020473
C6    C     C_R   0.500030 0.641615 0.921400 -0.013731
C7    C     C_R   0.469325 0.326146 0.997062 0.055450
C8    C     C_R   0.466706 0.673366 0.990254 0.039780
C9    C     C_R   0.481859 0.466834 0.047509 0.063553
C10   C     C_R   0.493085 0.536398 0.946233 0.073565
C11   C     C_R   0.482401 0.497815 0.870892 -0.140691
C12   C     C_R   0.454749 0.501950 0.116052 -0.154725
C13   C     C_R   0.467011 0.394157 0.895772 -0.187334
C14   C     C_R   0.445560 0.603326 0.087180 -0.183369
C15   C     C_R   0.737992 0.293432 0.652192 -0.264879
C16   C     C_R   0.269428 0.710897 0.339980 -0.252026
C17   C     C_R   0.694945 0.208190 0.629200 0.044101
C18   C     C_R   0.307629 0.793276 0.368151 0.057802
C19   C     C_R   0.514897 0.283252 0.513065 0.054963
C20   C     C_R   0.486639 0.717595 0.485050 0.022349
C21   C     C_R   0.553418 0.373370 0.532589 -0.043600
C22   C     C_R   0.454529 0.631307 0.458769 -0.041790
C23   C     C_R   0.259523 0.000320 0.500205 0.767266
C24   C     C_R   0.740549 0.999291 0.500443 0.777325
C25   C     C_R   0.667244 0.376627 0.605737 0.117163
C26   C     C_R   0.343350 0.629608 0.382923 0.125020
C27   C     C_R   0.483993 0.459638 0.481626 0.078927
C28   C     C_R   0.527288 0.546886 0.506324 0.070601
C29   C     C_R   0.642287 0.547306 0.577621 -0.306462
C30   C     C_R   0.374491 0.462148 0.404998 -0.313678
C31   C     C_R   0.710422 0.464101 0.628009 0.016967
C32   C     C_R   0.306770 0.545658 0.354122 0.001058
C33   C     C_3   0.016119 0.011908 0.407773 -0.160872
C34   C     C_3   0.983976 0.987211 0.593690 -0.164116
C35   C     C_3   0.962463 0.087816 0.431388 -0.172946
C36   C     C_3   0.037759 0.911360 0.570052 -0.178288
C37   C     C_3   0.877241 0.998489 0.500606 0.024302
C38   C     C_3   0.122908 0.000697 0.500784 0.026962
C39   C     C_3   0.928617 0.922509 0.477021 -0.140278
C40   C     C_3   0.071539 0.076624 0.524463 -0.135864
C41   C     C_R   0.486235 0.188331 0.202321 -0.252321
C42   C     C_R   0.506192 0.814826 0.794785 -0.249143
C43   C     C_R   0.456704 0.222220 0.021421 -0.151978
C44   C     C_R   0.449252 0.774147 0.960075 -0.147286
C45   C     C_R   0.462212 0.152278 0.122780 -0.080567
C46   C     C_R   0.459269 0.843958 0.860210 -0.086447
Cu1   Cu    Cu3+1 0.465750 0.918270 0.475680 0.940412
Cu2   Cu    Cu3+1 0.534250 0.081730 0.524320 0.939408
H1    H     H_    0.928372 0.159921 0.374709 0.122134
H2    H     H_    0.072306 0.839407 0.626640 0.131850
H3    H     H_    0.567563 0.724944 0.542343 0.151341
H4    H     H_    0.429736 0.273173 0.460041 0.135323
H5    H     H_    0.251150 0.855753 0.333655 0.140503
H6    H     H_    0.750272 0.145029 0.664822 0.139262
H7    H     H_    0.828169 0.293511 0.704673 0.193122
H8    H     H_    0.180463 0.711585 0.286213 0.197050
H9    H     H_    0.682530 0.612207 0.596486 0.135431
H10   H     H_    0.340960 0.400648 0.379845 0.124839
H11   H     H_    0.032637 0.022120 0.331786 0.134043
H12   H     H_    0.967286 0.976734 0.669724 0.133964
H13   H     H_    0.867347 0.859268 0.457853 0.135890
H14   H     H_    0.132797 0.139751 0.543828 0.138992
H15   H     H_    0.454427 0.367213 0.835412 0.157077
H16   H     H_    0.420068 0.626778 0.140621 0.183228
H17   H     H_    0.443804 0.195467 0.960821 0.195995
H18   H     H_    0.417949 0.796180 0.012291 0.207777
H19   H     H_    0.474912 0.545940 0.790837 0.197105
H20   H     H_    0.429498 0.450893 0.189862 0.191705
N1    N     N_R   0.585750 0.204560 0.560800 -0.187321
N2    N     N_R   0.414250 0.795440 0.439200 -0.187449
O1    O     O_R   0.454850 0.022100 0.338110 -0.610691
O2    O     O_R   0.545150 0.977900 0.661890 -0.607415
O3    O     O_R   0.512700 0.160150 0.379180 -0.515884
O4    O     O_R   0.487300 0.839850 0.620820 -0.532601
O5    O     O_R   0.287930 0.931000 0.479440 -0.586441
O6    O     O_R   0.712070 0.069000 0.520560 -0.590870
O7    O     O_R   0.345780 0.069050 0.520520 -0.602644
O8    O     O_R   0.654220 0.930950 0.479480 -0.594010
O9    O     O_3   0.613445 0.696008 0.777258 -0.594783
C47   C     C_3   0.746240 0.729697 0.806017 0.093633
H21   H     H_    0.777267 0.690873 0.889664 0.157106
H22   H     H_    0.763734 0.813252 0.784367 0.130762
C48   C     C_3   0.831007 0.705107 0.751496 -0.808624
H23   H     H_    0.817602 0.622003 0.773717 0.259808
H24   H     H_    0.803307 0.743290 0.667731 0.234819
H25   H     H_    0.935603 0.731525 0.773393 0.207793
O10   O     O_3   0.570328 0.331257 0.251581 -0.583307
C49   C     C_3   0.707111 0.351070 0.252540 0.094967
H26   H     H_    0.732113 0.413285 0.179998 0.149786
H27   H     H_    0.746496 0.281996 0.264302 0.124653
C50   C     C_3   0.773489 0.383941 0.339658 -0.762248
H28   H     H_    0.756420 0.321190 0.413548 0.258096
H29   H     H_    0.880590 0.403910 0.338493 0.187200
H30   H     H_    0.733706 0.451033 0.332041 0.249378
C51   C     C_2   0.413429 0.943489 0.825566 0.398750
H31   H     H_    0.383033 0.987013 0.745541 0.088561
O11   O     O_2   0.406031 0.977367 0.886894 -0.505039
C52   C     C_2   0.453534 0.043816 0.141637 0.412823
H32   H     H_    0.511467 0.993999 0.207442 0.089638
O12   O     O_2   0.383848 0.009378 0.081362 -0.499670
C53   C     C_2   0.827508 0.473484 0.703473 0.319363
H33   H     H_    0.895154 0.543652 0.685546 0.067929
O13   O     O_2   0.845323 0.406052 0.787917 -0.538155
C54   C     C_2   0.198685 0.540093 0.270525 0.301457
H34   H     H_    0.141973 0.467243 0.275983 0.071303
O14   O     O_2   0.177443 0.614368 0.192377 -0.552371

loop_
_geom_bond_atom_site_label_1
_geom_bond_atom_site_label_2
_ccdc_geom_bond_type
C18   N2    A    
C38   C40   S    
O10   C49   S    
C17   N1    A    
C53   H33   S    
C34   C37   S    
Cu2   O6    S    
C44   H18   S    
C51   H31   S    
Cu2   N1    S    
C54   O14   D    
C26   C32   A    
C12   H20   S    
C1    O1    A    
C34   C40   S    
C31   C53   S    
C28   C29   A    
C35   C37   S    
C20   H3    S    
C45   C52   S    
C15   C25   A    
C40   H14   S    
C42   C46   A    
C18   H5    S    
C19   H4    S    
C46   C51   S    
C48   H23   S    
C44   C46   A    
C35   H1    S    
C32   C54   S    
C7    C43   A    
C9    C10   A    
C2    O4    A    
C21   C27   A    
C33   H11   S    
C22   C28   A    
C27   C30   A    
C34   H12   S    
C20   N2    A    
Cu2   O2    S    
C47   C48   S    
C2    O2    A    
Cu2   O3    S    
C54   H34   S    
C11   H19   S    
C16   C26   A    
C39   H13   S    
C29   H9    S    
C3    O10   S    
C4    O9    S    
C4    C6    A    
C23   O5    A    
C50   H28   S    
C5    C7    A    
C24   O6    A    
C6    C8    A    
C15   H7    S    
Cu2   O7    S    
C16   H8    S    
Cu1   N2    S    
C5    C9    A    
C50   H29   S    
Cu1   Cu2   S    
C13   H15   S    
C49   C50   S    
C43   H17   S    
C14   H16   S    
C24   C37   S    
C33   C39   S    
C23   O7    A    
C43   C45   A    
Cu1   O1    S    
C1    C41   S    
C48   H24   S    
C12   C14   A    
C52   O12   D    
C19   N1    A    
C36   H2    S    
C53   O13   D    
C24   O8    A    
C15   C17   A    
C21   C25   A    
C3    C41   A    
C8    C14   A    
C19   C21   A    
C29   C31   A    
C25   C31   A    
C36   C39   S    
C8    C44   A    
Cu1   O4    S    
C20   C22   A    
C47   H21   S    
C3    C5    A    
C6    C10   A    
C51   O11   D    
C23   C38   S    
C33   C38   S    
C1    O3    A    
C36   C38   S    
C49   H27   S    
Cu1   O5    S    
C37   C39   S    
C50   H30   S    
C30   C32   A    
C11   C13   A    
C4    C42   A    
C2    C42   S    
C30   H10   S    
C33   C35   S    
C47   H22   S    
C35   C40   S    
C34   C36   S    
C9    C12   A    
C10   C11   A    
O9    C47   S    
C7    C13   A    
C48   H25   S    
C49   H26   S    
C16   C18   A    
C52   H32   S    
C22   C26   A    
C27   C28   A    
C41   C45   A    
Cu1   O8    S    
C17   H6    S    
