data_mof_unit_2071.cif
_audit_creation_date              2012-10-26T19:35:15-0400
_audit_creation_method            fapswitch 2.2
_symmetry_space_group_name_H-M    P1
_symmetry_Int_Tables_number       1
_space_group_crystal_system       triclinic
_cell_length_a                    10.864813
_cell_length_b                    10.838837
_cell_length_c                    9.515553
_cell_angle_alpha                 90.262854
_cell_angle_beta                  90.040963
_cell_angle_gamma                 90.313541
_cell_volume                      1120.54107703

loop_
_atom_site_label
_atom_site_type_symbol
_atom_type_description
_atom_site_fract_x
_atom_site_fract_y
_atom_site_fract_z
_atom_type_partial_charge
C1    C     C_R   0.500652 0.262371 0.499640 0.543256
C2    C     C_R   0.507466 0.935437 0.371405 -0.158499
C3    C     C_R   0.505736 0.871220 0.499575 0.004478
C4    C     C_R   0.262232 0.508757 0.500950 0.544199
C5    C     C_R   0.517719 0.937681 0.625008 -0.038532
C6    C     C_3   0.441090 0.934156 0.756126 -0.229687
C7    C     C_3   0.447109 0.074393 0.756672 0.156383
C8    C     C_R   0.602492 0.535992 0.073962 0.148569
C9    C     C_R   0.404627 0.450386 0.074142 -0.005173
C10   C     C_R   0.404791 0.450087 0.925120 0.006753
C11   C     C_R   0.602704 0.535475 0.926483 0.149554
C12   C     C_R   0.061988 0.517944 0.634330 0.029649
C13   C     C_3   0.666477 0.657364 0.920750 -0.280491
C14   C     C_3   0.665516 0.658398 0.080352 -0.277226
C15   C     C_R   0.499459 0.737818 0.500187 0.553295
C16   C     C_R   0.737681 0.490662 0.500854 0.542455
C17   C     C_R   0.114730 0.555269 0.764286 -0.103980
C18   C     C_R   0.056174 0.529189 0.891036 -0.140390
C19   C     C_R   0.944459 0.466528 0.890474 -0.144453
C20   C     C_R   0.885427 0.441599 0.763270 -0.106269
C21   C     C_R   0.938021 0.479588 0.634024 0.028639
C22   C     C_3   0.636599 0.120541 0.874439 0.026591
C23   C     C_R   0.127643 0.516203 0.504968 -0.009456
C24   C     C_3   0.688080 0.161536 0.016579 -0.260302
C25   C     C_3   0.828282 0.154428 0.019456 -0.493970
C26   C     C_R   0.063243 0.504565 0.378032 -0.162890
C27   C     C_R   0.936497 0.493159 0.377945 -0.164748
C28   C     C_R   0.872192 0.482073 0.504767 -0.011357
C29   C     C_R   0.521346 0.064925 0.623728 -0.000928
C30   C     C_R   0.508873 0.129469 0.498359 -0.020095
C31   C     C_R   0.507857 0.063841 0.370928 -0.163964
Cu1   Cu    Cu3+1 0.499990 0.499980 0.640670 0.933403
Cu2   Cu    Cu3+1 0.500010 0.500020 0.359330 0.930377
H1    H     H_    0.488951 0.892437 0.846823 0.138861
H2    H     H_    0.901482 0.440706 0.988744 0.105411
H3    H     H_    0.800255 0.390087 0.768216 0.135388
H4    H     H_    0.888961 0.492120 0.277817 0.127406
H5    H     H_    0.500924 0.111235 0.271494 0.147464
H6    H     H_    0.502482 0.887212 0.271701 0.131934
H7    H     H_    0.346890 0.897147 0.736718 0.101035
H8    H     H_    0.110702 0.505304 0.277937 0.126908
H9    H     H_    0.672003 0.184713 0.792724 0.149483
H10   H     H_    0.669341 0.025238 0.852494 0.128816
H11   H     H_    0.659102 0.257835 0.039048 0.176995
H12   H     H_    0.355675 0.117334 0.739049 0.130998
H13   H     H_    0.651000 0.100385 0.099709 0.167080
H14   H     H_    0.858319 0.057083 0.008174 0.149627
H15   H     H_    0.863087 0.191297 0.121144 0.152253
H16   H     H_    0.868621 0.209519 0.932826 0.146095
H17   H     H_    0.098965 0.555134 0.989706 0.101114
H18   H     H_    0.326605 0.411943 0.129492 0.118096
H19   H     H_    0.327224 0.410842 0.869223 0.130007
H20   H     H_    0.760409 0.651086 0.875716 0.144383
H21   H     H_    0.608641 0.729673 0.873359 0.143273
H22   H     H_    0.759078 0.652150 0.127003 0.124364
H23   H     H_    0.606411 0.731867 0.125408 0.145552
H24   H     H_    0.199345 0.607735 0.770180 0.138193
N1    N     N_R   0.500790 0.500930 0.147930 -0.235019
N2    N     N_R   0.500790 0.500890 0.852020 -0.234100
O1    O     O_R   0.500000 0.319640 0.618810 -0.489153
O2    O     O_R   0.500010 0.319680 0.381230 -0.504697
O3    O     O_R   0.319640 0.499980 0.618820 -0.522176
O4    O     O_R   0.319650 0.500020 0.381230 -0.511359
O5    O     O_R   0.499990 0.680320 0.618770 -0.503525
O6    O     O_R   0.500000 0.680360 0.381190 -0.506872
O7    O     O_R   0.680350 0.499980 0.618770 -0.511838
O8    O     O_R   0.680360 0.500020 0.381180 -0.503849
O9    O     O_3   0.506254 0.124704 0.878608 -0.563336

loop_
_geom_bond_atom_site_label_1
_geom_bond_atom_site_label_2
_ccdc_geom_bond_type
C12   C17   A    
C16   C28   S    
C14   H23   S    
C15   O5    A    
C6    C7    S    
C7    C29   S    
C29   C30   A    
C18   C19   A    
C9    C10   A    
C25   H14   S    
C5    C29   A    
C19   C20   A    
C9    H18   S    
C31   H5    S    
C30   C31   A    
Cu2   O4    S    
C10   H19   S    
Cu1   Cu2   S    
C2    C3    A    
Cu1   O3    S    
C16   O8    A    
C19   H2    S    
C13   C14   S    
C24   C25   S    
C11   C13   S    
C4    O4    A    
Cu1   O5    S    
C26   C27   A    
Cu2   N1    S    
C12   C21   A    
C27   H4    S    
C8    C11   A    
C11   N2    A    
C18   H17   S    
C7    H12   S    
C22   C24   S    
Cu1   O7    S    
C1    C30   S    
C21   C28   A    
C14   H22   S    
C13   H20   S    
C2    C31   A    
C17   C18   A    
C5    C6    S    
C24   H11   S    
C6    H7    S    
C23   C26   A    
C16   O7    A    
Cu1   O1    S    
Cu2   O6    S    
C15   O6    A    
C4    O3    A    
C3    C15   S    
C20   C21   A    
Cu2   O8    S    
C10   N2    A    
Cu2   O2    S    
C13   H21   S    
C1    O1    A    
C22   H9    S    
C27   C28   A    
C4    C23   S    
C9    N1    A    
C20   H3    S    
C12   C23   A    
C8    C14   S    
Cu1   N2    S    
C8    N1    A    
C7    O9    S    
C22   O9    S    
C25   H15   S    
C2    H6    S    
C22   H10   S    
C6    H1    S    
C26   H8    S    
C17   H24   S    
C24   H13   S    
C3    C5    A    
C25   H16   S    
C1    O2    A    
