data_mof_unit_859.cif
_audit_creation_date              2012-10-26T21:24:50-0400
_audit_creation_method            fapswitch 2.2
_symmetry_space_group_name_H-M    P1
_symmetry_Int_Tables_number       1
_space_group_crystal_system       triclinic
_cell_length_a                    9.59927
_cell_length_b                    10.816298
_cell_length_c                    15.531419
_cell_angle_alpha                 87.89581
_cell_angle_beta                  73.56355
_cell_angle_gamma                 90.002682
_cell_volume                      1545.56995035

loop_
_atom_site_label
_atom_site_type_symbol
_atom_type_description
_atom_site_fract_x
_atom_site_fract_y
_atom_site_fract_z
_atom_type_partial_charge
C1    C     C_R   0.997960 0.262509 0.504187 0.546470
C2    C     C_R   0.226294 0.422836 0.048416 0.033500
C3    C     C_R   0.329097 0.435098 0.097266 0.012700
C4    C     C_R   0.917265 0.499767 0.672096 0.547161
C5    C     C_R   0.077653 0.412543 0.093764 -0.145019
C6    C     C_R   0.028188 0.434809 0.185304 -0.145141
C7    C     C_R   0.276374 0.440986 0.191195 -0.131007
C8    C     C_R   0.118796 0.064190 0.510851 0.011336
C9    C     C_R   0.991857 0.129298 0.518164 -0.032514
C10   C     C_R   0.858618 0.064558 0.544339 -0.163798
C11   C     C_R   0.855561 0.932992 0.547205 0.240255
C12   C     C_R   0.669853 0.490317 0.908905 0.030734
C13   C     C_R   0.990374 0.870540 0.519467 0.019972
C14   C     C_R   0.118370 0.937398 0.510864 -0.020528
C15   C     C_3   0.261274 0.936329 0.440674 -0.282120
C16   C     C_R   0.997639 0.737597 0.504696 0.560639
C17   C     C_3   0.261894 0.076185 0.441446 -0.256661
C18   C     C_R   0.608755 0.519899 0.421328 0.101448
C19   C     C_R   0.539509 0.467689 0.575268 -0.018322
C20   C     C_R   0.391445 0.467319 0.575188 -0.035700
C21   C     C_R   0.461455 0.522888 0.422023 0.180794
C22   C     C_3   0.483597 0.638359 0.363220 0.160985
C23   C     C_R   0.769941 0.515748 0.957560 0.047959
C24   C     C_3   0.645663 0.626586 0.352712 -0.120272
C25   C     C_R   0.082114 0.487553 0.329041 0.537145
C26   C     C_R   0.869615 0.503151 0.770512 0.001927
C27   C     C_R   0.128325 0.455832 0.233610 -0.008524
C28   C     C_R   0.914745 0.545300 0.912177 -0.143499
C29   C     C_R   0.964331 0.540384 0.818910 -0.141160
C30   C     C_R   0.724694 0.474109 0.816267 -0.139715
C31   C     C_3   0.597861 0.927171 0.595794 -0.026832
C32   C     C_3   0.471501 0.835214 0.621566 -0.370424
C33   C     C_3   0.398244 0.734770 0.252200 -0.010396
C34   C     C_R   0.519795 0.474416 0.955137 0.035912
C35   C     C_3   0.431470 0.744243 0.150456 -0.380153
C36   C     C_3   0.718009 0.741123 0.377098 -0.278354
C37   C     C_3   0.702408 0.857939 0.322580 -0.473293
C38   C     C_3   0.416408 0.576395 0.833054 -0.286819
C39   C     C_3   0.328638 0.692078 0.866984 -0.434534
C40   C     C_R   0.478610 0.454180 0.050324 0.010965
C41   C     C_R   0.586174 0.466363 0.095937 -0.134451
C42   C     C_R   0.725781 0.506200 0.050840 -0.148622
C43   C     C_R   0.408314 0.484580 0.911165 0.001784
C44   C     C_R   0.269684 0.438072 0.955231 -0.120901
Cu1   Cu    Cu3+1 0.140670 0.499980 0.500000 0.939617
Cu2   Cu    Cu3+1 0.859330 0.500020 0.500000 0.936112
H1    H     H_    0.800887 0.524691 0.089365 0.102123
H2    H     H_    0.348596 0.442346 0.232466 0.177119
H3    H     H_    0.429496 0.716594 0.403697 0.099108
H4    H     H_    0.706854 0.593372 0.285614 0.144356
H5    H     H_    0.912477 0.436852 0.217769 0.118923
H6    H     H_    0.188504 0.436922 0.918987 0.107940
H7    H     H_    0.989121 0.571262 0.949352 0.097237
H8    H     H_    0.076426 0.564578 0.784922 0.121964
H9    H     H_    0.654760 0.437451 0.779317 0.111742
H10   H     H_    0.565670 0.450168 0.167153 0.143987
H11   H     H_    0.588640 0.983848 0.536377 0.121339
H12   H     H_    0.999471 0.396898 0.056970 0.109018
H13   H     H_    0.589913 0.986055 0.654238 0.133848
H14   H     H_    0.489342 0.765654 0.671417 0.170705
H15   H     H_    0.368098 0.884283 0.650356 0.102674
H16   H     H_    0.462941 0.785429 0.562144 0.132642
H17   H     H_    0.448132 0.818438 0.271013 0.113294
H18   H     H_    0.278580 0.736875 0.282070 0.146893
H19   H     H_    0.364545 0.677337 0.127022 0.161893
H20   H     H_    0.404560 0.838354 0.129383 0.091606
H21   H     H_    0.548607 0.728030 0.118542 0.170862
H22   H     H_    0.723598 0.838134 0.250350 0.160728
H23   H     H_    0.759750 0.117481 0.559315 0.113426
H24   H     H_    0.592561 0.897187 0.348893 0.132554
H25   H     H_    0.782004 0.928881 0.329253 0.147097
H26   H     H_    0.672595 0.758190 0.449097 0.220278
H27   H     H_    0.835901 0.722816 0.360950 0.191774
H28   H     H_    0.332784 0.758951 0.810659 0.129779
H29   H     H_    0.212998 0.668680 0.899426 0.145593
H30   H     H_    0.373817 0.737715 0.916331 0.158664
H31   H     H_    0.527267 0.610735 0.798905 0.161239
H32   H     H_    0.373133 0.532675 0.782141 0.119076
H33   H     H_    0.347730 0.895430 0.466743 0.125624
H34   H     H_    0.251087 0.901222 0.376704 0.110535
H35   H     H_    0.347415 0.114496 0.468802 0.138862
H36   H     H_    0.254188 0.121368 0.377469 0.136881
H37   H     H_    0.565354 0.442439 0.636824 0.112680
H38   H     H_    0.308765 0.441931 0.636609 0.116991
N1    N     N_R   0.648210 0.500930 0.499430 -0.233235
N2    N     N_R   0.352300 0.500890 0.499430 -0.254953
O1    O     O_R   0.118810 0.319640 0.500000 -0.495905
O2    O     O_3   0.452514 0.623200 0.280363 -0.579702
O3    O     O_R   0.881230 0.319680 0.499990 -0.507063
O4    O     O_R   0.055580 0.499970 0.629840 -0.513330
O5    O     O_R   0.818000 0.500010 0.629830 -0.506738
O6    O     O_R   0.118770 0.680320 0.500010 -0.510398
O7    O     O_R   0.881190 0.680360 0.500000 -0.464772
O8    O     O_R   0.182000 0.499990 0.370170 -0.476416
O9    O     O_R   0.944420 0.500030 0.370160 -0.519377
O10   O     O_3   0.728838 0.860710 0.575319 -0.547822

loop_
_geom_bond_atom_site_label_1
_geom_bond_atom_site_label_2
_ccdc_geom_bond_type
C11   O10   S    
C1    O1    A    
C18   C21   A    
C41   C42   A    
C19   C20   A    
Cu2   O3    S    
Cu1   Cu2   S    
C12   C23   A    
C16   O7    A    
C24   C36   S    
C23   C42   A    
C5    H12   S    
C18   C24   S    
C21   C22   S    
C36   C37   S    
Cu1   O1    S    
C33   O2    S    
C32   H15   S    
C3    C7    A    
C38   C39   S    
C29   H8    S    
C35   H19   S    
C31   O10   S    
C37   H22   S    
C7    C27   A    
C17   H36   S    
C39   H28   S    
C31   H13   S    
Cu1   O6    S    
C15   H33   S    
Cu2   O9    S    
C31   C32   S    
C2    C44   A    
C8    C9    A    
C20   N2    A    
C8    C14   A    
C22   O2    S    
C6    H5    S    
C9    C10   A    
C17   H35   S    
C6    C27   A    
C4    O5    A    
C44   H6    S    
C25   O8    A    
C13   C14   A    
C19   H37   S    
Cu1   O8    S    
C4    O4    A    
C24   H4    S    
C18   N1    A    
C1    C9    S    
C36   H27   S    
Cu2   O5    S    
C38   H32   S    
C35   H20   S    
C23   C28   A    
C43   C44   A    
C41   H10   S    
C15   H34   S    
C35   H21   S    
C33   H17   S    
C39   H30   S    
Cu1   O4    S    
C22   H3    S    
C40   C41   A    
C3    C40   A    
C25   O9    A    
C39   H29   S    
C37   H25   S    
C34   C40   A    
C2    C5    A    
C32   H14   S    
C12   C34   A    
C15   C17   S    
C21   N2    A    
C28   C29   A    
C1    O3    A    
C12   C30   A    
C34   C43   A    
C19   N1    A    
C4    C26   S    
C28   H7    S    
C16   O6    A    
C38   H31   S    
C25   C27   S    
C30   H9    S    
C8    C17   S    
C7    H2    S    
Cu2   N1    S    
C20   H38   S    
C2    C3    A    
C32   H16   S    
C38   C43   S    
C11   C13   A    
C31   H11   S    
C5    C6    A    
Cu2   O7    S    
C33   H18   S    
C33   C35   S    
Cu1   N2    S    
C22   C24   S    
C42   H1    S    
C10   C11   A    
C10   H23   S    
C26   C29   A    
C13   C16   S    
C14   C15   S    
C37   H24   S    
C36   H26   S    
C26   C30   A    
