data_mof_unit_4998.cif
_audit_creation_date              2012-12-10T20:36:34-0500
_audit_creation_method            fapswitch 2.2
_symmetry_space_group_name_H-M    P1
_symmetry_Int_Tables_number       1
_space_group_crystal_system       triclinic
_cell_length_a                    10.505315
_cell_length_b                    10.689137
_cell_length_c                    9.895423
_cell_angle_alpha                 90.469736
_cell_angle_beta                  89.785233
_cell_angle_gamma                 90.902142
_cell_volume                      1111.00191823

loop_
_atom_site_label
_atom_site_type_symbol
_atom_type_description
_atom_site_fract_x
_atom_site_fract_y
_atom_site_fract_z
_atom_type_partial_charge
C1    C     C_R   0.498094 0.259960 0.499947 0.883348
C2    C     C_3   0.957782 0.460319 0.378344 -0.147753
C3    C     C_3   0.037878 0.384888 0.477416 0.234171
C4    C     C_3   0.122305 0.500124 0.500575 0.017485
C5    C     C_R   0.488649 0.064152 0.622578 0.171072
C6    C     C_R   0.479485 0.128182 0.501537 -0.173383
C7    C     C_R   0.441184 0.064696 0.384417 -0.248126
C8    C     C_R   0.430013 0.935222 0.383463 0.177029
C9    C     C_R   0.468894 0.870719 0.500837 -0.138711
C10   C     C_R   0.485029 0.936626 0.621913 0.093163
C11   C     C_3   0.586220 0.928809 0.727388 -0.494887
C12   C     C_R   0.257395 0.499907 0.500216 0.854873
C13   C     C_3   0.590000 0.070688 0.728096 -0.446370
C14   C     C_R   0.438262 0.407175 0.070082 0.154519
C15   C     C_R   0.570059 0.585355 0.072379 -0.143224
C16   C     C_R   0.569739 0.585630 0.928571 -0.142161
C17   C     C_R   0.440266 0.406010 0.927969 0.149767
C18   C     C_3   0.304465 0.366102 0.915703 0.295926
C19   C     C_3   0.298503 0.376592 0.070341 -0.151896
C20   C     C_R   0.492444 0.739627 0.500073 0.885358
C21   C     C_R   0.742484 0.501358 0.499760 0.869378
C22   C     C_3   0.041069 0.541879 0.621225 -0.197486
C23   C     C_3   0.955031 0.425192 0.597922 -0.191383
C24   C     C_3   0.877260 0.501853 0.499214 -0.000927
C25   C     C_3   0.960129 0.618650 0.522840 -0.177711
C26   C     C_3   0.043805 0.577132 0.402234 -0.202337
H1    H     H_    0.913362 0.365254 0.678100 0.138494
H2    H     H_    0.675399 0.886505 0.688554 0.197144
H3    H     H_    0.554975 0.112428 0.824302 0.228904
H4    H     H_    0.681262 0.111070 0.689629 0.190839
H5    H     H_    0.624991 0.655647 0.126824 0.148003
H6    H     H_    0.624187 0.656285 0.874941 0.149501
H7    H     H_    0.246486 0.436712 0.862533 0.051601
H8    H     H_    0.240869 0.456918 0.106198 0.144637
H9    H     H_    0.078750 0.575000 0.720130 0.141114
H10   H     H_    0.923172 0.714048 0.541319 0.130420
H11   H     H_    0.084254 0.639039 0.322827 0.138339
H12   H     H_    0.920287 0.426726 0.279506 0.141000
H13   H     H_    0.427716 0.114591 0.291826 0.178613
H14   H     H_    0.549153 0.888693 0.823355 0.207046
N1    N     N_R   0.499140 0.499140 0.142800 -0.113183
N2    N     N_R   0.499140 0.499180 0.857150 -0.135511
O1    O     O_R   0.500020 0.316790 0.614690 -0.595697
O2    O     O_R   0.500000 0.316760 0.385350 -0.620939
O3    O     O_R   0.313960 0.499990 0.614650 -0.639605
O4    O     O_R   0.313940 0.499950 0.385310 -0.622390
O5    O     O_R   0.500000 0.683240 0.614650 -0.620358
O6    O     O_R   0.499980 0.683210 0.385310 -0.618348
O7    O     O_R   0.686060 0.500050 0.614690 -0.620636
O8    O     O_R   0.686040 0.500010 0.385350 -0.620707
Zn1   Zn    Zn3+2 0.500010 0.500020 0.653130 0.945242
Zn2   Zn    Zn3+2 0.499990 0.499980 0.346870 0.935883
O9    O     O_3   0.299731 0.241214 0.865945 -0.627818
C27   C     C_3   0.189112 0.215212 0.788976 0.127606
H15   H     H_    0.216853 0.147699 0.708631 0.169351
H16   H     H_    0.151271 0.297992 0.736212 0.130588
C28   C     C_3   0.085601 0.154025 0.877023 -0.364133
H17   H     H_    0.129560 0.083978 0.944103 0.239543
H18   H     H_    0.039810 0.227000 0.940304 0.206127
C29   C     C_3   0.983225 0.087425 0.792786 -0.983391
H19   H     H_    0.931973 0.155187 0.729767 0.257313
H20   H     H_    0.913049 0.041196 0.860969 0.269597
H21   H     H_    0.026206 0.014821 0.726719 0.265920
C30   C     C_3   0.266439 0.256207 0.145145 -0.804484
H22   H     H_    0.323172 0.176758 0.106500 0.257890
H23   H     H_    0.285108 0.270814 0.254165 0.258387
H24   H     H_    0.164112 0.233472 0.133157 0.217579
C31   C     C_3   0.080294 0.251142 0.452144 -0.990749
H25   H     H_    0.017589 0.185036 0.507928 0.249829
H26   H     H_    0.072119 0.228145 0.343436 0.250442
H27   H     H_    0.180144 0.239490 0.485118 0.229627
C32   C     C_3   0.383369 0.871663 0.255563 -0.856176
H28   H     H_    0.311309 0.798128 0.280302 0.239773
H29   H     H_    0.336781 0.938891 0.187219 0.217964
H30   H     H_    0.464370 0.830581 0.199327 0.250078

loop_
_geom_bond_atom_site_label_1
_geom_bond_atom_site_label_2
_ccdc_geom_bond_type
C8    C9    A    
C3    C23   S    
C3    C31   S    
C21   O7    A    
C7    C8    A    
O9    C27   S    
C22   H9    S    
C29   H21   S    
C13   H3    S    
C5    C6    A    
C28   H18   S    
O3    Zn1   S    
C15   C16   A    
O4    Zn2   S    
C29   H20   S    
C18   C19   S    
C17   N2    A    
C9    C20   S    
C18   O9    S    
C1    O1    A    
C31   H25   S    
O7    Zn1   S    
C22   C25   S    
O8    Zn2   S    
C23   C24   S    
C23   H1    S    
C4    C12   S    
C9    C10   A    
N1    Zn2   S    
C5    C13   S    
N2    Zn1   S    
O2    Zn2   S    
C14   C17   A    
C32   H30   S    
C21   O8    A    
C27   H16   S    
C8    C32   S    
C1    C6    S    
C30   H24   S    
C13   H4    S    
C24   C25   S    
C15   N1    A    
C32   H29   S    
C32   H28   S    
C28   C29   S    
O5    Zn1   S    
C25   C26   S    
C29   H19   S    
C30   H23   S    
C4    C22   S    
C2    H12   S    
C1    O2    A    
C19   C30   S    
C17   C18   S    
C2    C26   S    
C20   O6    A    
C14   N1    A    
C12   O4    A    
C2    C24   S    
C3    C4    S    
C16   N2    A    
C27   H15   S    
C14   C19   S    
C12   O3    A    
C19   H8    S    
C4    C26   S    
C26   H11   S    
C15   H5    S    
C6    C7    A    
C16   H6    S    
C30   H22   S    
C2    C3    S    
C5    C10   A    
C11   C13   S    
O1    Zn1   S    
C28   H17   S    
C11   H2    S    
C31   H27   S    
C11   H14   S    
C18   H7    S    
C20   O5    A    
C10   C11   S    
C25   H10   S    
O6    Zn2   S    
C31   H26   S    
C21   C24   S    
C7    H13   S    
C22   C23   S    
C27   C28   S    
