data_mof_unit_1086.cif
_audit_creation_date              2013-03-05T16:15:18-0500
_audit_creation_method            fapswitch 2.2
_symmetry_space_group_name_H-M    P1
_symmetry_Int_Tables_number       1
_space_group_crystal_system       triclinic
_cell_length_a                    27.774509
_cell_length_b                    10.620952
_cell_length_c                    9.403578
_cell_angle_alpha                 90.121262
_cell_angle_beta                  90.02162
_cell_angle_gamma                 90.029359
_cell_volume                      2773.97093793

loop_
_atom_site_label
_atom_site_type_symbol
_atom_site_description
_atom_site_fract_x
_atom_site_fract_y
_atom_site_fract_z
_atom_type_partial_charge
O1    O     O_R   0.500020 0.316850 0.620870 -0.571254
O2    O     O_R   0.499980 0.683150 0.379130 -0.569093
O3    O     O_R   0.500000 0.316860 0.379090 -0.595866
O4    O     O_R   0.500000 0.683140 0.620910 -0.593023
C1    C     C_R   0.499937 0.259499 0.499689 0.862951
C2    C     C_R   0.500064 0.740500 0.500308 0.865749
O5    O     O_R   0.430270 0.500020 0.620880 -0.607160
O6    O     O_R   0.569730 0.499980 0.379120 -0.525174
O7    O     O_R   0.430250 0.500030 0.379090 -0.511302
O8    O     O_R   0.569750 0.499970 0.620910 -0.593037
C3    C     C_R   0.407361 0.500081 0.499772 0.857551
C4    C     C_R   0.592628 0.500623 0.499820 0.858923
Cu1   Cu    Cu3+1 0.500010 0.499990 0.643150 0.963386
Cu2   Cu    Cu3+1 0.499990 0.500010 0.356850 1.020733
C5    C     C_R   0.176515 0.392242 0.518394 0.607867
C6    C     C_R   0.823421 0.609627 0.529246 0.608780
O9    O     O_2   0.200745 0.283259 0.536146 -0.509454
O10   O     O_2   0.799175 0.716697 0.558517 -0.510128
N1    N     N_R   0.201191 0.502719 0.506525 -0.444853
N2    N     N_R   0.798762 0.500528 0.505729 -0.444448
C7    C     C_R   0.178033 0.615573 0.492501 0.627107
C8    C     C_R   0.821931 0.389304 0.479739 0.626384
C9    C     C_R   0.277552 0.499941 0.369660 -0.084319
C10   C     C_R   0.722302 0.515430 0.370227 -0.082367
C11   C     C_R   0.328143 0.500711 0.369912 0.508844
C12   C     C_R   0.671711 0.514239 0.370579 0.486835
C13   C     C_R   0.328743 0.499091 0.628123 -0.282455
C14   C     C_R   0.671305 0.491900 0.627521 -0.257562
C15   C     C_R   0.278631 0.499141 0.629040 -0.115731
C16   C     C_R   0.721416 0.492512 0.628283 -0.115686
C17   C     C_R   0.252804 0.499836 0.501337 0.272279
C18   C     C_R   0.747147 0.503668 0.501102 0.271342
C19   C     C_R   0.101440 0.505673 0.485963 -0.049698
C20   C     C_R   0.898514 0.499314 0.485068 -0.049460
C21   C     C_R   0.126226 0.391642 0.510580 -0.011749
C22   C     C_R   0.873710 0.610906 0.521514 -0.012743
C23   C     C_R   0.100390 0.279390 0.526641 -0.121861
C24   C     C_R   0.899529 0.721449 0.549326 -0.124718
C25   C     C_R   0.127379 0.619790 0.473297 -0.038295
C26   C     C_R   0.872591 0.386662 0.460350 -0.036872
C27   C     C_R   0.354095 0.500048 0.499015 -0.129768
C28   C     C_R   0.645873 0.502154 0.499059 -0.132296
H1    H     H_    0.347623 0.498611 0.728924 0.190175
H2    H     H_    0.652485 0.482625 0.727818 0.193856
H3    H     H_    0.259644 0.499197 0.729619 0.168143
H4    H     H_    0.740482 0.483477 0.728231 0.168618
H5    H     H_    0.118504 0.191629 0.550562 0.180779
H6    H     H_    0.881399 0.806960 0.582275 0.184867
C29   C     C_R   0.974771 0.387871 0.452236 0.034171
C30   C     C_R   0.025201 0.619290 0.464630 0.032317
C31   C     C_R   0.974689 0.616462 0.489136 0.089203
C32   C     C_R   0.025264 0.388733 0.477317 0.089862
C33   C     C_R   0.949321 0.501066 0.474908 0.049933
C34   C     C_R   0.050638 0.504762 0.475433 0.048841
C35   C     C_R   0.948895 0.279371 0.405927 -0.103331
C36   C     C_R   0.051099 0.730998 0.430161 -0.093831
C37   C     C_R   0.897918 0.277743 0.413270 -0.095743
C38   C     C_R   0.102074 0.731997 0.437758 -0.096654
O11   O     O_2   0.795727 0.282510 0.474360 -0.487993
O12   O     O_2   0.204243 0.722325 0.498669 -0.487477
C39   C     C_R   0.050671 0.278243 0.512021 -0.130129
C40   C     C_R   0.949252 0.723764 0.535096 -0.132378
H7    H     H_    0.032256 0.190266 0.531661 0.123212
H8    H     H_    0.967646 0.809824 0.564035 0.128442
C41   C     C_3   0.538980 0.042043 0.565569 0.704877
C42   C     C_3   0.461022 0.957953 0.434415 0.707797
C43   C     C_3   0.539734 0.958001 0.431935 -0.301011
C44   C     C_3   0.460269 0.041994 0.568049 -0.305099
H9    H     H_    0.572407 0.921197 0.378094 0.187657
H10   H     H_    0.427595 0.078790 0.621891 0.182534
C45   C     C_3   0.500319 0.877148 0.501268 -0.171299
C46   C     C_3   0.499683 0.122848 0.498719 -0.168371
C47   C     C_3   0.500206 0.959615 0.636139 -0.278286
C48   C     C_3   0.499796 0.040382 0.363846 -0.276981
H11   H     H_    0.501010 0.924699 0.747325 0.180348
H12   H     H_    0.498993 0.075298 0.252660 0.180387
C49   C     C_3   0.499499 0.613766 0.050628 -0.017442
C50   C     C_3   0.500505 0.386235 0.949363 -0.080425
C51   C     C_3   0.462094 0.555688 0.949402 -0.010737
C52   C     C_3   0.537902 0.444293 0.050592 -0.000078
H13   H     H_    0.430251 0.602743 0.901888 0.141491
H14   H     H_    0.569693 0.396999 0.098068 0.175684
H15   H     H_    0.499064 0.709791 0.097397 0.147498
H16   H     H_    0.500940 0.290210 0.902594 0.154119
N3    N     N_3   0.500040 0.499970 0.858290 -0.174915
N4    N     N_3   0.499960 0.500030 0.141710 -0.172481
C53   C     C_3   0.537447 0.558010 0.949652 -0.021145
C54   C     C_3   0.462563 0.441967 0.050335 -0.014481
H17   H     H_    0.568915 0.606905 0.902307 0.140765
H18   H     H_    0.431182 0.392682 0.097602 0.178007
F1    F     F_    0.579310 0.089372 0.633399 -0.645270
F2    F     F_    0.420692 0.910620 0.366585 -0.637613
F3    F     F_    0.647837 0.526510 0.245105 -0.689725
F4    F     F_    0.351887 0.501450 0.243504 -0.683335
C55   C     C_2   0.747592 0.529347 0.231435 0.474868
H19   H     H_    0.727144 0.528574 0.133076 0.124931
O13   O     O_2   0.791131 0.543215 0.223855 -0.525995
C56   C     C_2   0.252153 0.498875 0.230068 0.478038
H20   H     H_    0.272499 0.509247 0.132288 0.124196
O14   O     O_2   0.208644 0.484966 0.221008 -0.526358
C57   C     C_2   0.872043 0.165335 0.358036 0.504665
H21   H     H_    0.879781 0.072844 0.401184 0.040186
O15   O     O_2   0.843646 0.175031 0.259490 -0.454231
C58   C     C_2   0.127955 0.848232 0.394410 0.514587
H22   H     H_    0.120089 0.937119 0.446529 0.029181
O16   O     O_2   0.156485 0.846095 0.295652 -0.450008
C59   C     C_2   0.973630 0.176190 0.326544 0.359888
H23   H     H_    0.961348 0.079659 0.335537 0.072433
O17   O     O_2   0.006995 0.199197 0.246087 -0.485213
C60   C     C_2   0.026376 0.840015 0.361940 0.361544
H24   H     H_    0.038363 0.935568 0.382138 0.046634
O18   O     O_2   0.993315 0.823291 0.278302 -0.495055

loop_
_geom_bond_atom_site_label_1
_geom_bond_atom_site_label_2
_geom_bond_distance
_ccdc_geom_bond_type
C42   C44   1.540002 S    
C57   H21   1.085192 S    
C13   C15   1.391867 A    
C47   H11   1.110327 S    
C55   H19   1.085218 S    
N1    C17   1.434709 S    
C58   O16   1.221218 D    
O5    C3    1.304332 A    
C30   C34   1.410833 A    
C48   H12   1.110329 S    
O1    C1    1.290982 A    
C21   C23   1.399676 A    
C10   C12   1.405176 A    
C52   C53   1.537766 S    
C32   C39   1.408500 A    
C50   C52   1.536666 S    
C49   H15   1.109878 S    
C42   C48   1.539028 S    
C41   C47   1.539023 S    
C41   F1    1.382679 S    
C36   C60   1.492428 S    
O4    Cu1   1.956878 S    
C39   H7    1.081258 S    
C60   H24   1.084289 S    
C58   H22   1.085142 S    
C4    C28   1.478961 S    
C41   C43   1.540006 S    
C40   H8    1.081159 S    
C59   H23   1.083829 S    
O6    C4    1.300840 A    
C23   H5    1.083429 S    
C24   H6    1.083416 S    
C44   C46   1.537162 S    
C12   F3    1.359788 S    
N3    C53   1.481204 S    
C11   F4    1.359623 S    
C57   O15   1.221224 D    
Cu1   Cu2   2.692244 S    
C59   O17   1.221464 D    
O2    C2    1.290958 A    
C31   C40   1.408436 A    
C5    C21   1.398678 A    
C51   C54   1.537764 S    
C32   C34   1.419464 A    
C49   C51   1.536890 S    
C2    C45   1.451355 S    
N4    C54   1.481187 S    
Cu2   N4    2.023087 S    
C7    O12   1.348201 S    
C46   C48   1.539810 S    
C10   C55   1.489979 S    
C11   C27   1.411686 A    
C8    O11   1.348213 S    
C45   C47   1.539792 S    
C42   F2    1.382687 S    
C44   C47   1.552020 S    
C29   C35   1.425086 A    
C25   C38   1.424179 A    
C14   H2    1.083137 S    
C30   C36   1.425155 A    
C15   H3    1.083059 S    
C43   H9    1.110192 S    
C9    C17   1.416457 A    
C5    N1    1.363357 A    
O7    Cu2   1.948330 S    
C10   C18   1.416498 A    
C50   H16   1.109882 S    
C13   C27   1.403773 A    
C42   C45   1.525033 S    
C7    C25   1.419115 A    
C6    N2    1.363317 A    
C29   C32   1.422052 A    
C8    C26   1.419159 A    
C30   C31   1.422130 A    
C43   C48   1.552028 S    
C19   C25   1.414924 A    
O7    C3    1.300979 A    
O3    Cu2   1.956876 S    
O8    C4    1.304206 A    
C50   N3    1.482295 S    
C52   H14   1.110128 S    
C54   H18   1.109975 S    
C49   N4    1.482353 S    
C56   O14   1.220281 D    
C35   C37   1.417680 A    
C20   C26   1.414846 A    
O4    C2    1.288499 A    
O1    Cu1   1.955932 S    
Cu1   N3    2.023087 S    
C51   N3    1.481288 S    
C12   C28   1.411523 A    
C51   H13   1.110276 S    
N2    C18   1.434643 S    
C50   C54   1.536713 S    
C19   C34   1.414458 A    
C5    O9    1.349852 S    
O6    Cu2   1.948204 S    
C26   C37   1.424071 A    
C14   C28   1.403592 A    
N1    C7    1.367180 A    
C16   H4    1.083062 S    
N2    C8    1.367112 A    
O3    C1    1.288481 A    
O8    Cu1   1.948330 S    
C23   C39   1.387752 A    
C55   O13   1.220285 D    
C1    C46   1.451382 S    
C41   C46   1.525035 S    
C37   C57   1.485874 S    
C52   N4    1.481318 S    
C53   H17   1.110242 S    
C14   C16   1.391847 A    
C15   C17   1.398609 A    
C6    C22   1.398726 A    
C16   C18   1.398650 A    
C29   C33   1.410807 A    
C22   C24   1.399571 A    
C19   C21   1.412875 A    
C20   C22   1.412834 A    
C36   C38   1.417613 A    
C3    C27   1.479471 S    
C43   C45   1.537162 S    
C9    C11   1.405158 A    
O2    Cu2   1.955931 S    
C60   O18   1.221471 D    
C13   H1    1.083107 S    
O5    Cu1   1.948204 S    
C9    C56   1.489996 S    
C38   C58   1.486064 S    
C49   C53   1.536942 S    
C20   C33   1.414524 A    
C6    O10   1.349840 S    
C56   H20   1.085211 S    
C35   C59   1.492597 S    
C44   H10   1.110182 S    
C31   C33   1.419441 A    
C24   C40   1.387760 A    
