data_mof_unit_2564.cif
_audit_creation_date              2012-12-11T15:37:02-0500
_audit_creation_method            fapswitch 2.2
_symmetry_space_group_name_H-M    P1
_symmetry_Int_Tables_number       1
_space_group_crystal_system       triclinic
_cell_length_a                    15.03265
_cell_length_b                    15.095244
_cell_length_c                    34.82091
_cell_angle_alpha                 91.620151
_cell_angle_beta                  92.182604
_cell_angle_gamma                 60.141935
_cell_volume                      6847.39746741

loop_
_atom_site_label
_atom_site_type_symbol
_atom_type_description
_atom_site_fract_x
_atom_site_fract_y
_atom_site_fract_z
_atom_type_partial_charge
C1    C     C_R   0.610203 0.303418 0.443594 0.559356
C2    C     C_R   0.623717 0.081388 0.762468 -0.085405
C3    C     C_R   0.101570 0.756755 0.886775 -0.102474
C4    C     C_R   0.127206 0.746303 0.848224 -0.040356
C5    C     C_R   0.109997 0.680197 0.824050 0.058167
C6    C     C_R   0.076213 0.617691 0.839362 -0.125409
C7    C     C_R   0.052677 0.626450 0.878000 -0.114583
C8    C     C_R   0.194937 0.586198 0.765441 -0.170013
C9    C     C_R   0.208635 0.579928 0.726050 -0.134196
C10   C     C_R   0.151198 0.666158 0.703199 -0.023442
C11   C     C_R   0.079110 0.758378 0.719867 -0.091742
C12   C     C_R   0.062735 0.765124 0.759321 0.257564
C13   C     C_R   0.605516 0.162182 0.788052 0.041305
C14   C     C_R   0.628702 0.737270 0.155513 -0.049767
C15   C     C_R   0.123107 0.678440 0.782486 -0.000061
C16   C     C_R   0.196832 0.725780 0.645368 -0.120724
C17   C     C_R   0.231773 0.707864 0.607903 -0.129772
C18   C     C_R   0.201959 0.563968 0.602540 -0.124003
C19   C     C_R   0.168141 0.581316 0.639995 -0.117156
C20   C     C_R   0.169192 0.659742 0.661999 0.033804
C21   C     C_R   0.238740 0.624006 0.586839 0.023775
C22   C     C_R   0.671757 0.079352 0.906490 -0.015805
C23   C     C_R   0.604167 0.057281 0.885036 -0.136971
C24   C     C_R   0.555690 0.187655 0.639921 -0.118179
C25   C     C_R   0.577624 0.089858 0.847077 -0.162985
C26   C     C_3   0.089924 0.945090 0.074470 0.003592
C27   C     C_3   0.125132 0.002449 0.102114 -0.398357
C28   C     C_3   0.534263 0.093346 0.314710 0.000266
C29   C     C_3   0.442928 0.081629 0.301736 -0.331139
C30   C     C_3   0.468829 0.182112 0.418390 0.020975
C31   C     C_3   0.366951 0.216426 0.437233 -0.351463
C32   C     C_3   0.437818 0.890236 0.661024 -0.022022
C33   C     C_3   0.386159 0.971946 0.691877 -0.370022
C34   C     C_3   0.873563 0.395893 0.285749 -0.026854
C35   C     C_R   0.810704 0.614017 0.158835 -0.142577
C36   C     C_3   0.901257 0.296471 0.305330 -0.348674
C37   C     C_3   0.733242 0.450072 0.829971 0.034975
C38   C     C_3   0.773948 0.393205 0.792174 -0.370411
C39   C     C_3   0.825468 0.149786 0.823364 0.012569
C40   C     C_3   0.909028 0.148889 0.849895 -0.367134
C41   C     C_3   0.722820 0.864071 0.221422 -0.015541
C42   C     C_3   0.695599 0.940638 0.189491 -0.350631
C43   C     C_R   0.555559 0.214464 0.601808 -0.123775
C44   C     C_R   0.692959 0.250234 0.618036 -0.126227
C45   C     C_R   0.691624 0.225390 0.656155 -0.111186
C46   C     C_R   0.620967 0.196984 0.667510 0.032378
C47   C     C_R   0.622043 0.249106 0.590824 0.023758
C48   C     C_R   0.046204 0.739088 0.048467 0.549245
C49   C     C_R   0.716056 0.668552 0.176746 0.057482
C50   C     C_R   0.746209 0.745463 0.063409 0.552122
C51   C     C_R   0.751230 0.040894 0.050656 0.553537
C52   C     C_R   0.016350 0.722435 0.939694 0.535137
C53   C     C_R   0.716658 0.730470 0.954667 0.582979
C54   C     C_R   0.819606 0.634255 0.120812 -0.120893
C55   C     C_R   0.720833 0.024866 0.942271 0.548102
C56   C     C_R   0.744902 0.567832 0.235422 -0.089835
C57   C     C_R   0.744054 0.559613 0.275450 0.309483
C58   C     C_R   0.704354 0.649358 0.298483 0.018185
C59   C     C_R   0.673340 0.743744 0.281282 -0.127229
C60   C     C_R   0.618667 0.144448 0.829989 0.037441
C61   C     C_R   0.677156 0.750714 0.241666 0.271739
C62   C     C_R   0.711361 0.662430 0.218518 0.012745
C63   C     C_R   0.588427 0.720741 0.353833 -0.086974
C64   C     C_R   0.592875 0.609904 0.449301 0.547739
C65   C     C_R   0.561734 0.712563 0.390783 -0.120089
C66   C     C_R   0.728735 0.562692 0.401143 -0.131472
C67   C     C_R   0.755965 0.571860 0.364223 -0.079659
C68   C     C_R   0.684180 0.648042 0.339620 0.072774
C69   C     C_R   0.630027 0.630980 0.414183 0.019577
C70   C     C_R   0.111751 0.725657 0.083122 0.010145
C71   C     C_R   0.681783 0.171851 0.852463 0.279476
C72   C     C_R   0.177222 0.626596 0.097077 -0.175409
C73   C     C_R   0.219864 0.612184 0.134255 -0.087624
C74   C     C_R   0.196357 0.696553 0.158189 0.055167
C75   C     C_R   0.136812 0.795338 0.143755 -0.048548
C76   C     C_R   0.306721 0.589450 0.441597 0.553307
C77   C     C_R   0.097542 0.810693 0.105943 0.260456
C78   C     C_R   0.315994 0.648632 0.217128 0.262671
C79   C     C_R   0.330571 0.625620 0.257270 0.264179
C80   C     C_R   0.243621 0.647594 0.279088 0.011164
C81   C     C_R   0.147308 0.684800 0.261235 -0.086855
C82   C     C_R   0.705267 0.141515 0.890723 -0.083287
C83   C     C_R   0.134761 0.700118 0.222061 -0.145498
C84   C     C_R   0.217552 0.682227 0.199796 -0.031591
C85   C     C_R   0.244508 0.554917 0.338358 0.281258
C86   C     C_R   0.253118 0.546399 0.378431 -0.092867
C87   C     C_R   0.266426 0.699751 0.384122 -0.126435
C88   C     C_R   0.605843 0.300616 0.553760 0.538698
C89   C     C_R   0.256513 0.709809 0.344295 -0.098378
C90   C     C_R   0.248744 0.636372 0.321134 0.070858
C91   C     C_R   0.268026 0.616195 0.401527 -0.022891
C92   C     C_R   0.723513 0.102849 0.086380 0.021867
C93   C     C_R   0.584172 0.256522 0.773270 -0.092400
C94   C     C_R   0.796205 0.121550 0.105926 -0.098697
C95   C     C_R   0.781661 0.155718 0.144029 -0.103806
C96   C     C_R   0.692999 0.174337 0.162816 0.036284
C97   C     C_R   0.615136 0.166968 0.141976 -0.116812
C98   C     C_R   0.630705 0.130421 0.104135 -0.127637
C99   C     C_R   0.601144 0.258781 0.223089 -0.088424
C100  C     C_R   0.588753 0.607222 0.558597 0.544813
C101  C     C_R   0.594831 0.259547 0.262936 -0.079238
C102  C     C_R   0.674643 0.183545 0.285453 -0.007069
C103  C     C_R   0.762903 0.106101 0.267195 0.240266
C104  C     C_R   0.587829 0.267807 0.733890 -0.131608
C105  C     C_R   0.770254 0.109398 0.227392 -0.112282
C106  C     C_R   0.689134 0.183923 0.205070 -0.037305
C107  C     C_R   0.740222 0.197761 0.350266 -0.103662
C108  C     C_R   0.725437 0.224121 0.388859 -0.182951
C109  C     C_R   0.558084 0.236152 0.384161 0.283526
C110  C     C_R   0.575509 0.204480 0.345350 0.301571
C111  C     C_R   0.664870 0.191028 0.327753 0.020039
C112  C     C_R   0.298086 0.589082 0.551666 0.543884
C113  C     C_R   0.632329 0.249602 0.405853 -0.037075
C114  C     C_R   0.689438 0.697769 0.917550 -0.030969
C115  C     C_R   0.610230 0.185813 0.708591 0.025671
C116  C     C_R   0.748636 0.598980 0.900812 0.266180
C117  C     C_R   0.736011 0.585443 0.860905 0.273957
C118  C     C_R   0.668303 0.670836 0.838350 -0.022884
C119  C     C_R   0.601666 0.763072 0.856143 -0.189426
C120  C     C_R   0.610807 0.775796 0.895234 -0.188589
C121  C     C_R   0.575763 0.698101 0.775284 -0.139427
C122  C     C_R   0.574477 0.696805 0.735341 -0.087150
C123  C     C_R   0.665376 0.664441 0.715566 0.062038
C124  C     C_R   0.733784 0.709358 0.100448 0.021857
C125  C     C_R   0.757951 0.633042 0.736237 -0.131010
C126  C     C_R   0.625196 0.093452 0.722910 -0.081232
C127  C     C_R   0.759161 0.634934 0.776379 -0.090292
C128  C     C_R   0.668117 0.666509 0.796059 0.042976
C129  C     C_R   0.719803 0.560414 0.655956 -0.177960
C130  C     C_R   0.700977 0.545684 0.617526 -0.148437
C131  C     C_R   0.575043 0.725601 0.612364 -0.121854
C132  C     C_R   0.591974 0.740919 0.651438 0.277459
C133  C     C_R   0.662823 0.656583 0.673405 0.047260
C134  C     C_R   0.625086 0.627195 0.595950 -0.019423
C135  C     C_R   0.061595 0.698726 0.901639 0.024815
C136  C     C_R   0.637475 0.757684 0.117586 -0.143974
Cr1   Cr    Cr6+3 0.426010 0.422500 0.497000 1.022331
Cr2   Cr    Cr6+3 0.651300 0.426310 0.501970 1.013068
Cr3   Cr    Cr6+3 0.422670 0.651170 0.501050 1.011947
Cr4   Cr    Cr6+3 0.905130 0.911420 0.992650 1.024503
Cr5   Cr    Cr6+3 0.911860 0.682710 0.002320 1.106330
Cr6   Cr    Cr6+3 0.682710 0.906840 0.004710 1.017302
H1    H     H_    0.569804 0.814882 0.102323 0.131066
H2    H     H_    0.059372 0.726381 0.208865 0.143503
H3    H     H_    0.796118 0.794090 0.213773 0.128435
H4    H     H_    0.734875 0.896991 0.248740 0.166449
H5    H     H_    0.629018 0.015118 0.197798 0.156313
H6    H     H_    0.762162 0.950890 0.184161 0.125683
H7    H     H_    0.675858 0.912540 0.162503 0.167637
H8    H     H_    0.254616 0.481445 0.391486 0.168437
H9    H     H_    0.116899 0.860755 0.162488 0.138064
H10   H     H_    0.278416 0.754395 0.401052 0.136852
H11   H     H_    0.867691 0.102766 0.092819 0.160950
H12   H     H_    0.572842 0.117811 0.089661 0.126828
H13   H     H_    0.527046 0.319790 0.276313 0.231784
H14   H     H_    0.537466 0.316605 0.206319 0.174460
H15   H     H_    0.831848 0.517569 0.354597 0.125824
H16   H     H_    0.842164 0.162034 0.159531 0.116850
H17   H     H_    0.485069 0.766486 0.400005 0.129645
H18   H     H_    0.837425 0.050031 0.213360 0.164144
H19   H     H_    0.808756 0.188228 0.337558 0.171006
H20   H     H_    0.784562 0.232323 0.404563 0.153925
H21   H     H_    0.546121 0.180885 0.155959 0.112522
H22   H     H_    0.561548 0.851183 0.907119 0.151563
H23   H     H_    0.502785 0.718958 0.719800 0.114689
H24   H     H_    0.504936 0.722524 0.790037 0.104627
H25   H     H_    0.828804 0.607126 0.721319 0.110749
H26   H     H_    0.830855 0.611700 0.792093 0.137276
H27   H     H_    0.773654 0.495093 0.672821 0.110289
H28   H     H_    0.878791 0.560655 0.174990 0.108301
H29   H     H_    0.741075 0.469081 0.605516 0.135600
H30   H     H_    0.546657 0.827981 0.839344 0.129030
H31   H     H_    0.520384 0.789362 0.595105 0.115603
H32   H     H_    0.109773 0.812358 0.904613 0.115426
H33   H     H_    0.768304 0.500988 0.217180 0.134559
H34   H     H_    0.021432 0.581259 0.888708 0.179057
H35   H     H_    0.145418 0.530805 0.652410 0.108613
H36   H     H_    0.265440 0.508251 0.713449 0.121850
H37   H     H_    0.240820 0.519034 0.782774 0.119976
H38   H     H_    0.156560 0.792502 0.836899 0.146522
H39   H     H_    0.783360 0.499861 0.418850 0.119892
H40   H     H_    0.034832 0.824518 0.701885 0.156154
H41   H     H_    0.197760 0.786854 0.662163 0.107293
H42   H     H_    0.259398 0.755439 0.596447 0.123320
H43   H     H_    0.063636 0.565556 0.821006 0.115618
H44   H     H_    0.554859 0.778965 0.168913 0.182982
H45   H     H_    0.205217 0.499548 0.586795 0.128552
H46   H     H_    0.577149 0.009469 0.896707 0.131077
H47   H     H_    0.755657 0.160923 0.907339 0.142798
H48   H     H_    0.743068 0.232114 0.677161 0.117648
H49   H     H_    0.574420 0.340223 0.723126 0.104991
H50   H     H_    0.190446 0.560169 0.080054 0.139605
H51   H     H_    0.567635 0.320600 0.792288 0.140282
H52   H     H_    0.528862 0.068269 0.830456 0.110206
H53   H     H_    0.642268 0.029618 0.703670 0.139219
H54   H     H_    0.641239 0.007583 0.773168 0.127327
H55   H     H_    0.500869 0.165554 0.648321 0.106316
H56   H     H_    0.644015 0.812964 0.298569 0.112257
H57   H     H_    0.500080 0.213006 0.581404 0.116515
H58   H     H_    0.744630 0.277201 0.610553 0.123734
H59   H     H_    0.531569 0.780690 0.335608 0.134814
H60   H     H_    0.038529 0.999509 0.052169 0.159883
H61   H     H_    0.258381 0.773254 0.331327 0.146541
H62   H     H_    0.156913 0.883674 0.058977 0.123025
H63   H     H_    0.184445 0.948760 0.122721 0.170053
H64   H     H_    0.158874 0.040035 0.085699 0.110842
H65   H     H_    0.058920 0.061756 0.118225 0.154145
H66   H     H_    0.531249 0.478634 0.330823 0.368444
H67   H     H_    0.431138 0.701857 0.135520 0.358186
H68   H     H_    0.200915 0.374112 0.350631 0.322343
H69   H     H_    0.572938 0.041934 0.339642 0.111533
H70   H     H_    0.588344 0.068042 0.290634 0.150708
H71   H     H_    0.403791 0.130229 0.276337 0.194741
H72   H     H_    0.264902 0.535416 0.145312 0.145200
H73   H     H_    0.469340 0.000659 0.293808 0.109994
H74   H     H_    0.387735 0.104918 0.325361 0.169505
H75   H     H_    0.908190 0.844537 0.273017 0.342566
H76   H     H_    0.530310 0.153533 0.441298 0.107602
H77   H     H_    0.483299 0.118664 0.397951 0.128194
H78   H     H_    0.304103 0.243946 0.415044 0.164301
H79   H     H_    0.370049 0.151442 0.452599 0.078957
H80   H     H_    0.350768 0.279236 0.458165 0.160958
H81   H     H_    0.905499 0.328516 0.926796 0.358063
H82   H     H_    0.404317 0.838823 0.661269 0.114257
H83   H     H_    0.081457 0.700783 0.277893 0.165493
H84   H     H_    0.420757 0.928774 0.632790 0.130732
H85   H     H_    0.416304 0.025860 0.692059 0.156209
H86   H     H_    0.302013 0.015131 0.686044 0.097801
H87   H     H_    0.401302 0.935908 0.720542 0.156921
H88   H     H_    0.923495 0.425093 0.298283 0.132960
H89   H     H_    0.890059 0.378141 0.254754 0.131289
H90   H     H_    0.857843 0.262344 0.291093 0.177701
H91   H     H_    0.984637 0.241906 0.302869 0.126154
H92   H     H_    0.882291 0.310766 0.336224 0.148638
H93   H     H_    0.650622 0.507676 0.825067 0.103720
H94   H     H_    0.894639 0.595707 0.108212 0.137650
H95   H     H_    0.736248 0.395593 0.851390 0.220505
H96   H     H_    0.855424 0.332768 0.795969 0.161474
H97   H     H_    0.727623 0.357892 0.782143 0.122452
H98   H     H_    0.768406 0.446649 0.769807 0.150736
H99   H     H_    0.872778 0.826127 0.801403 0.339109
H100  H     H_    0.833654 0.172598 0.794273 0.168809
H101  H     H_    0.838222 0.070659 0.820226 0.239258
H102  H     H_    0.912205 0.113129 0.877675 0.147906
H103  H     H_    0.984782 0.104158 0.836389 0.156219
H104  H     H_    0.894191 0.227754 0.855316 0.185925
O1    O     O_R   0.324990 0.503440 0.453910 -0.506033
O2    O     O_R   0.675430 0.831160 0.051290 -0.521119
O3    O     O_R   0.698870 0.998880 0.039560 -0.504010
O4    O     O_R   0.522030 0.339050 0.458320 -0.458510
O5    O     O_R   0.811290 0.006780 0.950620 -0.514081
O6    O     O_R   0.980960 0.812920 0.953200 -0.505476
O7    O     O_R   0.001480 0.656720 0.955830 -0.487656
O8    O     O_R   0.809240 0.683250 0.968050 -0.421795
O9    O     O_R   0.652500 0.818540 0.967340 -0.533441
O10   O     O_R   0.677620 0.987170 0.961730 -0.502799
O11   O     O_3   0.833240 0.833660 0.999890 -0.257608
O12   O     O_R   0.639980 0.519500 0.542640 -0.500832
O13   O     O_R   0.676180 0.324490 0.458320 -0.523767
O14   O     O_R   0.643570 0.521510 0.464260 -0.500058
O15   O     O_R   0.504630 0.675350 0.460920 -0.521884
O16   O     O_R   0.339850 0.642450 0.459830 -0.498812
O17   O     O_R   0.321120 0.501280 0.538470 -0.524563
O18   O     O_R   0.518440 0.337050 0.536710 -0.506799
O19   O     O_R   0.672300 0.322330 0.542880 -0.520770
O20   O     O_3   0.032809 0.909526 0.093850 -0.559716
O21   O     O_2   0.536498 0.497217 0.253751 -0.210447
O22   O     O_2   0.475926 0.653320 0.292679 -0.281154
O23   O     O_R   0.500750 0.673190 0.545480 -0.521520
O24   O     O_3   0.461510 0.502893 0.319559 -0.532266
O25   O     O_2   0.482761 0.671676 0.211900 -0.229529
O26   O     O_2   0.481054 0.531511 0.175108 -0.269034
O27   O     O_3   0.370008 0.716280 0.150142 -0.559007
O28   O     O_2   0.310490 0.424391 0.278312 -0.229311
O29   O     O_2   0.129700 0.500811 0.293919 -0.344324
O30   O     O_3   0.265407 0.356795 0.337821 -0.465997
O31   O     O_3   0.499436 0.196992 0.324295 -0.486865
O32   O     O_2   0.942683 0.023783 0.306469 -0.276326
O33   O     O_2   0.819600 0.972294 0.325226 -0.328882
O34   O     O_R   0.336260 0.640450 0.538210 -0.501926
O35   O     O_3   0.916763 0.898890 0.261443 -0.567234
O36   O     O_3   0.463184 0.265561 0.398942 -0.487096
O37   O     O_2   0.938601 0.489177 0.930791 -0.282844
O38   O     O_2   0.798004 0.504168 0.969041 -0.291322
O39   O     O_3   0.852892 0.382435 0.909990 -0.520998
O40   O     O_3   0.544842 0.837186 0.668724 -0.556656
O41   O     O_3   0.768739 0.466897 0.291489 -0.525472
O42   O     O_3   0.795741 0.491042 0.843531 -0.520021
O43   O     O_2   0.016593 0.941005 0.793669 -0.327345
O44   O     O_2   0.889367 0.944380 0.747066 -0.316433
O45   O     O_3   0.499990 0.499990 0.500010 -0.239352
O46   O     O_3   0.904641 0.863991 0.813651 -0.527838
O47   O     O_3   0.727027 0.222096 0.836544 -0.613029
O48   O     O_3   0.640506 0.845416 0.225371 -0.567545
O49   O     O_R   0.834210 0.019400 0.034570 -0.503083
O50   O     O_R   0.002210 0.824620 0.031030 -0.469698
O51   O     O_R   0.024400 0.669340 0.039790 -0.523545
O52   O     O_R   0.830490 0.694950 0.045870 -0.489480
S1    S     S_3+6 0.454789 0.569204 0.280475 0.056763
S2    S     S_3+6 0.416625 0.640100 0.188701 0.037920
S3    S     S_3+6 0.236650 0.458578 0.310646 0.025266
S4    S     S_3+6 0.861909 0.999366 0.291863 -0.045801
S5    S     S_3+6 0.836779 0.492877 0.929017 0.034350
S6    S     S_3+6 0.966148 0.882585 0.778112 -0.057500

loop_
_geom_bond_atom_site_label_1
_geom_bond_atom_site_label_2
_ccdc_geom_bond_type
C8    C9    A    
C85   S3    S    
Cr2   O12   S    
O38   S5    D    
C101  C102  A    
C109  O36   S    
C87   C91   A    
C48   O51   A    
C95   H16   S    
C73   C74   A    
C34   H89   S    
Cr4   O6    S    
C54   H94   S    
C65   H17   S    
C33   H86   S    
C42   H6    S    
Cr4   O49   S    
C63   C65   A    
Cr1   O4    S    
C57   O41   S    
C16   H41   S    
C92   C98   A    
C28   O31   S    
O32   S4    D    
C13   C60   S    
C34   H88   S    
C45   C46   A    
C56   C57   A    
C28   H69   S    
C7    C135  A    
C121  H24   S    
Cr3   O23   S    
C6    H43   S    
C26   C27   S    
Cr2   O45   S    
C115  C126  A    
C118  C128  S    
C46   C115  S    
C123  C133  S    
Cr5   O8    S    
C22   C82   A    
C129  H27   S    
C28   C29   S    
C125  H25   S    
O25   S2    D    
C129  C130  A    
O22   S1    D    
C32   O40   S    
C86   C91   A    
C86   H8    S    
C65   C69   A    
C5    C6    A    
Cr1   O1    S    
C33   H87   S    
C88   O19   A    
C29   H73   S    
C66   C69   A    
C122  H23   S    
C61   C62   A    
C101  H13   S    
C59   H56   S    
C36   H92   S    
C18   C21   A    
C97   C98   A    
C18   H45   S    
C30   O36   S    
C1    O13   A    
Cr6   O10   S    
C77   O20   S    
C93   C104  A    
C83   H2    S    
C18   C19   A    
C71   O47   S    
O46   S6    S    
Cr1   O45   S    
C2    C13   A    
C118  C119  A    
C76   O16   A    
C17   H42   S    
C81   C83   A    
C38   H97   S    
H81   O39   S    
C29   H71   S    
C126  H53   S    
C103  S4    S    
C132  O40   S    
C41   H4    S    
C19   C20   A    
C10   C20   S    
C132  C133  A    
C97   H21   S    
C35   C49   A    
H68   O30   S    
C107  C108  A    
C48   C70   S    
O21   S1    D    
C25   C60   A    
C9    C10   A    
O26   S2    D    
C51   O49   A    
O30   S3    S    
C48   O50   A    
C44   C47   A    
C12   S6    S    
C119  H30   S    
C30   H76   S    
C71   C82   A    
C41   O48   S    
C131  C134  A    
Cr5   O51   S    
C41   C42   S    
O33   S4    D    
C31   H79   S    
C37   H95   S    
C34   O41   S    
C35   C54   A    
C80   C90   S    
C25   H52   S    
C102  C111  S    
C130  C134  A    
Cr4   O5    S    
C1    C113  S    
C64   O14   A    
C4    H38   S    
C50   O2    A    
C42   H5    S    
C37   O42   S    
Cr3   O45   S    
C32   H82   S    
C100  C134  S    
C37   H93   S    
C6    C7    A    
C100  O12   A    
C100  O23   A    
Cr2   O14   S    
C40   H104  S    
C59   C61   A    
C70   C72   A    
Cr4   O11   S    
C124  C136  A    
C56   H33   S    
C67   C68   A    
C80   C81   A    
C107  H19   S    
Cr3   O34   S    
C50   C124  S    
O39   S5    S    
C121  C128  A    
C103  C105  A    
C74   C75   A    
C75   H9    S    
C39   C40   S    
C110  O31   S    
C78   C79   A    
C4    C5    A    
C29   H74   S    
C76   C91   S    
C60   C71   A    
C36   H91   S    
C85   C86   A    
C104  H49   S    
C108  H20   S    
C131  H31   S    
C17   C21   A    
Cr6   O9    S    
C110  C111  A    
C102  C103  A    
C13   C93   A    
C27   H63   S    
C2    H54   S    
C108  C113  A    
C26   H62   S    
C52   O7    A    
C112  O34   A    
C96   C97   A    
C39   O47   S    
C37   C38   S    
C51   C92   S    
C38   H96   S    
C31   H80   S    
C52   O6    A    
C3    H32   S    
H75   O35   S    
C83   C84   A    
C12   C15   A    
C130  H29   S    
C36   H90   S    
Cr6   O2    S    
C7    H34   S    
C92   C94   A    
C121  C122  A    
C67   H15   S    
C16   C20   A    
C64   C69   S    
C119  C120  A    
C75   C77   A    
C117  O42   S    
C40   H102  S    
C81   H83   S    
C39   H101  S    
C129  C133  A    
C2    C126  A    
C58   C68   S    
Cr5   O52   S    
C99   C101  A    
C66   H39   S    
C32   H84   S    
C24   H55   S    
C44   H58   S    
C8    C15   A    
H66   O24   S    
C87   H10   S    
C87   C89   A    
C82   H47   S    
C55   O5    A    
C73   H72   S    
C76   O1    A    
O44   S6    D    
C53   O8    A    
C79   S1    S    
C127  C128  A    
C89   C90   A    
O28   S3    D    
Cr1   O17   S    
C19   H35   S    
C21   C112  S    
C16   C17   A    
C44   C45   A    
C88   O18   A    
C125  C127  A    
C31   H78   S    
O37   S5    D    
O43   S6    D    
C99   C106  A    
C96   C106  S    
Cr2   O13   S    
C49   C62   S    
C63   H59   S    
C89   H61   S    
C1    O4    A    
C107  C111  A    
C93   H51   S    
C52   C135  S    
C74   C84   S    
C72   C73   A    
C33   H85   S    
C131  C132  A    
C127  H26   S    
C55   O10   A    
Cr4   O50   S    
C114  C116  A    
C85   C90   A    
O29   S3    D    
C22   C55   S    
Cr2   O19   S    
C109  C113  A    
C28   H70   S    
C14   C49   A    
C40   H103  S    
C105  C106  A    
C63   C68   A    
H67   O27   S    
C116  S5    S    
C27   H64   S    
C24   C46   A    
C32   C33   S    
C42   H7    S    
Cr3   O15   S    
C58   C59   A    
O27   S2    S    
C136  H1    S    
C50   O52   A    
C56   C62   A    
C109  C110  A    
C47   C88   S    
H99   O46   S    
C98   H12   S    
C8    H37   S    
C57   C58   A    
C23   H46   S    
C14   C136  A    
C24   C43   A    
C94   H11   S    
C14   H44   S    
C39   H100  S    
C78   S2    S    
C64   O15   A    
C34   C36   S    
C72   H50   S    
C116  C117  A    
C66   C67   A    
C3    C135  A    
C23   C25   A    
C11   H40   S    
C94   C95   A    
C51   O3    A    
C30   C31   S    
C114  C120  A    
C5    C15   S    
C123  C125  A    
C10   C11   A    
C120  H22   S    
C112  O17   A    
C38   H98   S    
C79   C80   A    
C105  H18   S    
Cr1   O18   S    
C78   C84   A    
C45   H48   S    
C41   H3    S    
Cr5   O7    S    
C26   H60   S    
C27   H65   S    
C61   O48   S    
Cr3   O16   S    
C95   C96   A    
Cr6   O3    S    
C35   H28   S    
Cr5   O11   S    
C22   C23   A    
O24   S1    S    
C53   C114  S    
C43   H57   S    
C53   O9    A    
C26   O20   S    
C122  C123  A    
C117  C118  A    
C99   H14   S    
C43   C47   A    
O35   S4    S    
Cr6   O11   S    
C104  C115  A    
C9    H36   S    
C3    C4    A    
C11   C12   A    
C30   H77   S    
C70   C77   A    
C54   C124  A    
