data_mof_unit_4802.cif
_audit_creation_date              2013-03-05T16:35:44-0500
_audit_creation_method            fapswitch 2.2
_symmetry_space_group_name_H-M    P1
_symmetry_Int_Tables_number       1
_space_group_crystal_system       triclinic
_cell_length_a                    19.442503
_cell_length_b                    9.086423
_cell_length_c                    7.77191
_cell_angle_alpha                 90.012153
_cell_angle_beta                  90.002331
_cell_angle_gamma                 90.019733
_cell_volume                      1373.00731852

loop_
_atom_site_label
_atom_site_type_symbol
_atom_site_description
_atom_site_fract_x
_atom_site_fract_y
_atom_site_fract_z
_atom_type_partial_charge
O1    O     O_R   0.500000 0.288390 0.642760 -0.576441
O2    O     O_R   0.500000 0.711610 0.357240 -0.576269
O3    O     O_R   0.500000 0.711610 0.642760 -0.576375
O4    O     O_R   0.500000 0.288390 0.357240 -0.576479
C1    C     C_R   0.500001 0.219980 0.499989 0.838824
C2    C     C_R   0.500003 0.780020 0.500011 0.839732
O5    O     O_R   0.400140 0.500000 0.642830 -0.583564
O6    O     O_R   0.599860 0.500000 0.357170 -0.580651
O7    O     O_R   0.599860 0.500000 0.642830 -0.584304
O8    O     O_R   0.400140 0.500000 0.357170 -0.581782
C3    C     C_R   0.367120 0.499605 0.500066 0.835920
C4    C     C_R   0.632852 0.499387 0.500094 0.836256
Cu1   Cu    Cu3+1 0.500000 0.500000 0.669080 0.983812
Cu2   Cu    Cu3+1 0.500000 0.500000 0.330920 0.985065
C5    C     C_1   0.500002 0.065376 0.499983 -0.185899
C6    C     C_1   0.500003 0.934626 0.500014 -0.185747
N1    N     N_1   0.500000 0.500000 0.076820 -0.054272
N2    N     N_1   0.500000 0.500000 0.923180 -0.054640
C7    C     C_R   0.253909 0.588647 0.614853 0.087284
C8    C     C_R   0.745646 0.594104 0.389179 0.066449
C9    C     C_R   0.744880 0.400680 0.611223 0.091268
C10   C     C_R   0.255481 0.396925 0.390510 0.066425
C11   C     C_R   0.181315 0.585998 0.614262 0.224750
C12   C     C_R   0.818339 0.593227 0.391014 0.237505
C13   C     C_R   0.817349 0.394030 0.604415 0.222686
C14   C     C_R   0.182865 0.388796 0.398325 0.237499
C15   C     C_R   0.145828 0.486143 0.505962 -0.135300
C16   C     C_R   0.854083 0.492724 0.497140 -0.134922
C17   C     C_R   0.290958 0.495928 0.500721 -0.144762
C18   C     C_R   0.708973 0.498023 0.500179 -0.145187
N3    N     N_R   0.033392 0.360339 0.490403 -0.215201
N4    N     N_R   0.966338 0.618093 0.502322 -0.222911
N5    N     N_R   0.965066 0.362006 0.486370 -0.251559
N6    N     N_R   0.034687 0.616509 0.503324 -0.247393
C19   C     C_R   0.930147 0.490824 0.494245 0.460482
C20   C     C_R   0.069643 0.487523 0.499802 0.459484
C21   C     C_3   0.292188 0.690165 0.737571 -0.770830
H1    H     H_    0.258673 0.765424 0.811251 0.249000
H2    H     H_    0.320064 0.624032 0.835165 0.242668
H3    H     H_    0.329059 0.759808 0.664829 0.209093
C22   C     C_3   0.706696 0.700456 0.273958 -0.802995
H4    H     H_    0.739410 0.783259 0.210060 0.226316
H5    H     H_    0.680198 0.638694 0.170132 0.246909
H6    H     H_    0.668398 0.762896 0.350869 0.219630
C23   C     C_3   0.705689 0.304946 0.738394 -0.775968
H7    H     H_    0.679287 0.375405 0.834413 0.242950
H8    H     H_    0.667479 0.236026 0.669091 0.211190
H9    H     H_    0.738580 0.230061 0.814664 0.249299
C24   C     C_3   0.295792 0.298437 0.268474 -0.808500
H10   H     H_    0.335331 0.235830 0.341128 0.222098
H11   H     H_    0.264574 0.216433 0.198668 0.221979
H12   H     H_    0.320858 0.366571 0.167970 0.249102
N7    N     N_2   0.144307 0.677960 0.731253 -0.419152
H13   H     H_    0.102084 0.632221 0.791158 0.260880
C25   C     C_3   0.136781 0.831455 0.683069 -0.663323
H14   H     H_    0.149445 0.901934 0.795322 0.220525
H15   H     H_    0.082907 0.854883 0.644746 0.244017
H16   H     H_    0.171480 0.861618 0.574917 0.229626
N8    N     N_2   0.856399 0.687156 0.278723 -0.413574
H17   H     H_    0.843242 0.681864 0.150324 0.253982
C26   C     C_3   0.870475 0.834336 0.342121 -0.639611
H18   H     H_    0.835294 0.915486 0.281713 0.203610
H19   H     H_    0.924037 0.865051 0.308135 0.246504
H20   H     H_    0.864858 0.840862 0.484404 0.232150
N9    N     N_2   0.852878 0.292426 0.712865 -0.419784
H21   H     H_    0.898029 0.330184 0.766597 0.263488
C27   C     C_3   0.857036 0.143203 0.647419 -0.672815
H22   H     H_    0.880929 0.071020 0.745934 0.225332
H23   H     H_    0.888562 0.138799 0.528653 0.246676
H24   H     H_    0.805130 0.099319 0.617173 0.230056
N10   N     N_2   0.145893 0.287623 0.292676 -0.407245
H25   H     H_    0.157636 0.292008 0.163429 0.253085
C28   C     C_3   0.140422 0.139579 0.361041 -0.650947
H26   H     H_    0.104512 0.074427 0.280175 0.231125
H27   H     H_    0.120257 0.141484 0.494715 0.243362
H28   H     H_    0.191186 0.083956 0.361963 0.210312

loop_
_geom_bond_atom_site_label_1
_geom_bond_atom_site_label_2
_geom_bond_distance
_ccdc_geom_bond_type
C26   H20   1.112760 S    
C7    C11   1.411623 A    
C25   H14   1.109726 S    
N3    N5    1.328881 A    
C21   H1    1.104677 S    
O7    C4    1.281465 A    
C10   C17   1.420518 A    
C11   C15   1.416659 A    
C15   C20   1.482058 S    
C28   H27   1.110570 S    
C9    C18   1.419576 A    
N7    C25   1.451645 S    
N6    C20   1.355290 A    
C24   H10   1.110770 S    
O3    Cu1   1.933672 S    
O5    Cu1   1.952211 S    
O6    C4    1.282695 A    
C24   H12   1.109475 S    
C27   H24   1.110118 S    
C24   H11   1.103373 S    
C23   H8    1.110708 S    
C8    C22   1.519886 S    
C13   N9    1.428509 S    
N10   H25   1.030909 S    
C21   H2    1.109292 S    
C8    C18   1.419419 A    
N7    H13   1.031155 S    
C13   C16   1.417505 A    
O5    C3    1.281870 A    
C14   N10   1.426606 S    
C22   H5    1.109536 S    
Cu2   N1    1.974842 S    
C14   C15   1.414542 A    
O2    C2    1.271736 A    
O7    Cu1   1.952226 S    
Cu1   N2    1.974842 S    
C12   N8    1.427441 S    
O1    C1    1.271736 A    
C27   H22   1.110218 S    
N5    C19   1.354715 A    
C11   N7    1.429270 S    
C21   H3    1.110774 S    
C9    C23   1.521221 S    
C25   H15   1.109654 S    
C28   H26   1.110149 S    
O4    Cu2   1.933672 S    
C26   H18   1.110152 S    
O2    Cu2   1.933585 S    
C22   H6    1.110775 S    
C1    C5    1.404800 S    
N8    C26   1.451067 S    
O8    C3    1.282805 A    
C7    C21   1.521021 S    
C10   C14   1.415053 A    
C5    C6    1.188052 T    
C7    C17   1.419727 A    
N4    C19   1.354909 A    
C8    C12   1.413415 A    
N8    H17   1.031268 S    
O1    Cu1   1.933586 S    
C28   H28   1.109039 S    
C3    C17   1.481154 S    
N1    N2    1.194077 T    
N9    H21   1.030731 S    
C22   H4    1.103220 S    
C25   H16   1.112112 S    
N10   C28   1.450298 S    
C26   H19   1.109957 S    
C9    C13   1.411306 A    
N3    C20   1.355359 A    
O6    Cu2   1.952209 S    
N9    C27   1.450350 S    
C23   H9    1.106234 S    
Cu1   Cu2   2.628150 S    
C4    C18   1.480043 S    
C23   H7    1.109192 S    
C2    C6    1.404816 S    
O3    C2    1.271816 A    
C10   C24   1.521472 S    
C12   C16   1.413483 A    
C16   C19   1.479149 S    
O8    Cu2   1.952228 S    
O4    C1    1.271815 A    
C27   H23   1.108760 S    
N4    N6    1.328987 A    
