data_mof_unit_4690.cif
_audit_creation_date              2012-12-10T17:49:34-0500
_audit_creation_method            fapswitch 2.2
_symmetry_space_group_name_H-M    P1
_symmetry_Int_Tables_number       1
_space_group_crystal_system       triclinic
_cell_length_a                    10.486002
_cell_length_b                    10.618413
_cell_length_c                    9.945048
_cell_angle_alpha                 90.099938
_cell_angle_beta                  89.627812
_cell_angle_gamma                 91.66912
_cell_volume                      1106.83385807

loop_
_atom_site_label
_atom_site_type_symbol
_atom_type_description
_atom_site_fract_x
_atom_site_fract_y
_atom_site_fract_z
_atom_type_partial_charge
C1    C     C_R   0.497774 0.260857 0.499783 0.860562
C2    C     C_3   0.960902 0.503157 0.371880 -0.107732
C3    C     C_3   0.039925 0.396230 0.430798 -0.192892
C4    C     C_3   0.122451 0.496618 0.501533 0.023777
C5    C     C_R   0.263250 0.123702 0.562107 -0.206074
C6    C     C_R   0.152978 0.054418 0.596749 -0.130804
C7    C     C_R   0.155235 0.923553 0.602495 -0.113528
C8    C     C_R   0.267385 0.861539 0.572148 -0.174780
C9    C     C_R   0.379990 0.930466 0.536201 0.069551
C10   C     C_R   0.378126 0.062258 0.533259 0.102318
C11   C     C_R   0.491539 0.128573 0.498665 -0.120245
C12   C     C_R   0.257560 0.498245 0.500470 0.814245
C13   C     C_R   0.602335 0.069023 0.461173 -0.217208
C14   C     C_R   0.604379 0.940159 0.460736 0.128673
C15   C     C_R   0.494437 0.871747 0.500143 -0.147833
C16   C     C_R   0.332019 0.335561 0.140527 -0.144041
C17   C     C_R   0.248511 0.255380 0.070798 -0.191640
C18   C     C_R   0.248141 0.255918 0.931581 -0.187995
C19   C     C_R   0.331416 0.336523 0.861322 -0.154618
C20   C     C_R   0.416998 0.419393 0.928302 0.165061
C21   C     C_R   0.417166 0.419189 0.072660 0.168287
C22   C     C_R   0.579434 0.577174 0.070997 -0.107470
C23   C     C_R   0.499829 0.739331 0.500067 0.914424
C24   C     C_R   0.579453 0.577087 0.928091 -0.106515
C25   C     C_R   0.742463 0.498948 0.499547 0.890394
C26   C     C_3   0.039320 0.490278 0.628341 -0.154020
C27   C     C_3   0.953856 0.390110 0.557414 -0.193051
C28   C     C_3   0.877672 0.497154 0.498650 0.034943
C29   C     C_3   0.960438 0.597183 0.569513 -0.161977
C30   C     C_3   0.046118 0.603385 0.442806 -0.155339
H1    H     H_    0.911307 0.303450 0.603719 0.136565
H2    H     H_    0.069603 0.869939 0.629489 0.144710
H3    H     H_    0.264728 0.759849 0.576249 0.136395
H4    H     H_    0.644443 0.640344 0.124120 0.168223
H5    H     H_    0.327170 0.328961 0.247201 0.198669
H6    H     H_    0.183872 0.192266 0.125324 0.155200
H7    H     H_    0.183175 0.193297 0.877507 0.157799
H8    H     H_    0.326287 0.331330 0.754873 0.201347
H9    H     H_    0.644480 0.640198 0.874277 0.153123
H10   H     H_    0.075493 0.484846 0.732806 0.153402
H11   H     H_    0.922999 0.678283 0.626475 0.150351
H12   H     H_    0.088103 0.690077 0.396054 0.156130
H13   H     H_    0.924988 0.508506 0.267322 0.152480
H14   H     H_    0.077382 0.314528 0.374719 0.135584
H15   H     H_    0.687715 0.123265 0.433309 0.162466
H16   H     H_    0.257370 0.224999 0.556362 0.110676
H17   H     H_    0.065560 0.102361 0.618813 0.137342
N1    N     N_R   0.498800 0.498800 0.142780 -0.123024
N2    N     N_R   0.498760 0.498720 0.857170 -0.122126
O1    O     O_R   0.500000 0.316780 0.614690 -0.630450
O2    O     O_R   0.499990 0.316750 0.385360 -0.633287
O3    O     O_R   0.313960 0.499980 0.614650 -0.651699
O4    O     O_R   0.313940 0.499960 0.385310 -0.636670
O5    O     O_R   0.500010 0.683250 0.614640 -0.613054
O6    O     O_R   0.500000 0.683220 0.385310 -0.592193
O7    O     O_R   0.686060 0.500040 0.614690 -0.617038
O8    O     O_R   0.686040 0.500020 0.385350 -0.614266
Zn1   Zn    Zn3+2 0.500010 0.500020 0.653130 0.939244
Zn2   Zn    Zn3+2 0.499990 0.499980 0.346870 0.950270
I1    I     I_    0.777751 0.855801 0.402516 -0.470644

loop_
_geom_bond_atom_site_label_1
_geom_bond_atom_site_label_2
_ccdc_geom_bond_type
C22   N1    A    
C23   O6    A    
C16   C21   A    
C17   H6    S    
O6    Zn2   S    
C4    C12   S    
C20   N2    A    
C14   I1    S    
C5    H16   S    
C4    C26   S    
C19   C20   A    
C1    C11   S    
C25   O7    A    
C2    H13   S    
C2    C30   S    
C21   N1    A    
C3    C27   S    
C17   C18   A    
O4    Zn2   S    
C7    C8    A    
C13   C14   A    
C25   C28   S    
C13   H15   S    
C23   O5    A    
C1    O2    A    
C26   H10   S    
C26   C27   S    
C29   C30   S    
O3    Zn1   S    
N1    Zn2   S    
C15   C23   S    
C28   C29   S    
C12   O3    A    
C18   H7    S    
O7    Zn1   S    
C1    O1    A    
C2    C3    S    
C6    C7    A    
C8    H3    S    
C16   H5    S    
O5    Zn1   S    
C5    C6    A    
C22   H4    S    
C22   C24   A    
C3    H14   S    
O8    Zn2   S    
C11   C13   A    
O2    Zn2   S    
C10   C11   A    
C27   H1    S    
C3    C4    S    
O1    Zn1   S    
C16   C17   A    
C6    H17   S    
C25   O8    A    
C5    C10   A    
C24   H9    S    
C20   C21   A    
C26   C29   S    
C18   C19   A    
C9    C10   A    
C24   N2    A    
C19   H8    S    
C30   H12   S    
C2    C28   S    
C7    H2    S    
C29   H11   S    
C14   C15   A    
C4    C30   S    
N2    Zn1   S    
C12   O4    A    
C9    C15   A    
C8    C9    A    
C27   C28   S    
