data_mof_unit_878.cif
_audit_creation_date              2012-12-10T19:33:08-0500
_audit_creation_method            fapswitch 2.2
_symmetry_space_group_name_H-M    P1
_symmetry_Int_Tables_number       1
_space_group_crystal_system       triclinic
_cell_length_a                    27.692837
_cell_length_b                    15.734962
_cell_length_c                    14.919553
_cell_angle_alpha                 88.057308
_cell_angle_beta                  90.094364
_cell_angle_gamma                 90.150899
_cell_volume                      6497.36457596

loop_
_atom_site_label
_atom_site_type_symbol
_atom_type_description
_atom_site_fract_x
_atom_site_fract_y
_atom_site_fract_z
_atom_type_partial_charge
C1    C     C_R   0.499962 0.337455 0.501490 0.914231
C2    C     C_R   0.873116 0.406024 0.524736 -0.126326
C3    C     C_3   0.996083 0.757280 0.743371 -0.822736
C4    C     C_3   0.573948 0.075398 0.389387 -0.420899
C5    C     C_3   0.603263 0.011272 0.337127 -0.341328
C6    C     C_3   0.645271 0.054826 0.287854 -0.875023
C7    C     C_3   0.425502 0.924657 0.610725 -0.417210
C8    C     C_3   0.396068 0.988856 0.662678 -0.345658
C9    C     C_3   0.353975 0.945365 0.711772 -0.871350
C10   C     C_R   0.352987 0.498598 0.500297 -0.132250
C11   C     C_R   0.646953 0.495774 0.501016 -0.122560
C12   C     C_R   0.975447 0.410317 0.529377 -0.116641
C13   C     C_R   0.024655 0.567053 0.537157 -0.116765
C14   C     C_R   0.974060 0.565842 0.523629 0.085485
C15   C     C_R   0.025960 0.413739 0.515077 0.085361
C16   C     C_R   0.949311 0.486797 0.524023 0.014754
C17   C     C_R   0.050728 0.492125 0.523246 0.013654
C18   C     C_R   0.950447 0.333464 0.550195 0.403036
C19   C     C_R   0.500009 0.662550 0.498513 0.915828
C20   C     C_R   0.049809 0.640094 0.565199 0.401974
C21   C     C_R   0.899592 0.329547 0.544045 0.014693
C22   C     C_R   0.100571 0.645269 0.557991 0.013638
C23   C     C_R   0.405735 0.499694 0.499962 0.910064
C24   C     C_R   0.594264 0.499561 0.500142 0.911137
C25   C     C_R   0.052057 0.342072 0.489086 -0.171969
C26   C     C_R   0.947848 0.640999 0.505818 -0.172117
C27   C     C_3   0.543489 0.969221 0.524846 -0.257830
C28   C     C_3   0.455968 0.030814 0.475246 -0.257876
C29   C     C_3   0.533811 0.032435 0.445206 0.119676
C30   C     C_R   0.101532 0.495328 0.516751 -0.089417
C31   C     C_3   0.465644 0.967588 0.554891 0.118115
C32   C     C_1   0.499898 0.248614 0.505170 -0.191438
C33   C     C_1   0.499869 0.751400 0.494851 -0.191308
C34   C     C_3   0.509444 0.020376 0.584846 0.117686
C35   C     C_3   0.490012 0.979653 0.415247 0.117969
C36   C     C_3   0.500121 0.082643 0.505418 0.076156
C37   C     C_3   0.499336 0.917378 0.494672 0.076026
C38   C     C_1   0.499909 0.173390 0.507084 -0.082073
C39   C     C_1   0.499676 0.826627 0.492976 -0.081851
C40   C     C_3   0.506424 0.420368 0.974118 0.130123
C41   C     C_R   0.898457 0.484634 0.518309 -0.091919
C42   C     C_3   0.494021 0.580081 0.026061 0.131203
C43   C     C_3   0.542547 0.470794 0.031226 0.134035
C44   C     C_3   0.457844 0.529702 0.968981 0.135037
C45   C     C_3   0.464034 0.450583 0.032943 -0.248598
C46   C     C_3   0.536374 0.549835 0.967166 -0.249244
C47   C     C_R   0.176879 0.423482 0.488191 0.546646
C48   C     C_R   0.823025 0.560403 0.498679 0.546957
C49   C     C_3   0.500452 0.501388 0.089632 -0.010120
C50   C     C_3   0.499902 0.499054 0.910440 -0.009966
C51   C     C_1   0.500180 0.500750 0.189780 0.026930
C52   C     C_R   0.126807 0.420948 0.494856 -0.004851
C53   C     C_1   0.499970 0.499464 0.810241 0.023812
C54   C     C_R   0.177705 0.571370 0.519275 0.519486
C55   C     C_R   0.822182 0.408846 0.514378 0.537048
C56   C     C_R   0.276983 0.509980 0.420307 0.524253
C57   C     C_R   0.723037 0.488113 0.421480 0.517092
C58   C     C_R   0.327356 0.508815 0.419762 -0.346486
C59   C     C_R   0.672725 0.494578 0.420393 -0.347396
C60   C     C_R   0.328185 0.486576 0.581578 -0.225490
C61   C     C_R   0.671627 0.491754 0.583078 -0.249603
C62   C     C_R   0.277633 0.484343 0.583422 0.079647
C63   C     C_R   0.873110 0.561841 0.504815 -0.005143
C64   C     C_R   0.721863 0.486844 0.585611 0.073465
C65   C     C_R   0.252435 0.496601 0.501684 0.197986
C66   C     C_R   0.747485 0.486371 0.503955 0.215649
C67   C     C_3   0.476462 0.952065 0.321089 -0.417031
C68   C     C_3   0.465156 0.028824 0.258572 -0.336373
C69   C     C_3   0.453314 0.001259 0.164073 -0.901075
C70   C     C_3   0.522978 0.048067 0.678974 -0.416123
C71   C     C_3   0.534350 0.971404 0.741570 -0.337438
C72   C     C_3   0.546419 0.999156 0.835912 -0.901483
C73   C     C_3   0.591218 0.443731 0.071685 -0.427624
C74   C     C_R   0.101730 0.345517 0.479736 -0.179602
C75   C     C_3   0.627450 0.418099 0.000044 -0.337124
C76   C     C_3   0.676679 0.398256 0.041723 -0.895622
C77   C     C_3   0.408888 0.557358 0.930176 -0.428667
C78   C     C_3   0.373672 0.583211 0.003524 -0.342204
C79   C     C_3   0.324534 0.607176 0.964062 -0.887220
C80   C     C_3   0.510471 0.329621 0.941270 -0.422917
C81   C     C_3   0.514376 0.264186 0.019420 -0.335986
C82   C     C_3   0.516306 0.173950 0.985588 -0.904864
C83   C     C_3   0.490584 0.670874 0.059091 -0.422931
C84   C     C_3   0.485904 0.736374 0.981155 -0.336157
C85   C     C_R   0.898128 0.639040 0.497176 -0.177244
C86   C     C_3   0.484524 0.826587 0.015128 -0.905111
C87   C     C_3   0.249178 0.469211 0.669910 -0.387848
C88   C     C_3   0.279245 0.448019 0.754379 -0.368531
C89   C     C_3   0.246726 0.429321 0.835224 -0.888533
C90   C     C_3   0.747031 0.483191 0.675879 -0.394769
C91   C     C_3   0.737354 0.397954 0.725731 -0.336820
C92   C     C_3   0.766224 0.390542 0.812820 -0.912112
C93   C     C_3   0.739983 0.415260 0.295515 0.085203
C94   C     C_3   0.776578 0.408580 0.220230 -0.801016
C95   C     C_3   0.256894 0.600544 0.303482 0.088468
C96   C     C_R   0.126885 0.572424 0.530630 -0.122254
C97   C     C_3   0.221372 0.613593 0.226446 -0.802123
C98   C     C_3   0.875530 0.243254 0.562047 -0.289646
C99   C     C_3   0.851663 0.238124 0.655040 -0.324753
C100  C     C_3   0.818558 0.160794 0.665063 -0.862081
C101  C     C_3   0.124632 0.728733 0.582729 -0.287833
C102  C     C_3   0.149330 0.721352 0.675041 -0.319352
C103  C     C_3   0.180138 0.799635 0.692363 -0.859104
C104  C     C_3   0.988866 0.273731 0.672137 0.096433
C105  C     C_3   0.005584 0.189120 0.713262 -0.822838
C106  C     C_3   0.012418 0.679921 0.693294 0.097506
H1    H     H_    0.348713 0.478317 0.642864 0.165350
H2    H     H_    0.346315 0.516029 0.356527 0.174201
H3    H     H_    0.964573 0.787196 0.708763 0.260892
H4    H     H_    0.985509 0.737859 0.812863 0.205777
H5    H     H_    0.025980 0.804333 0.746103 0.253975
H6    H     H_    0.631623 0.104555 0.239665 0.258096
H7    H     H_    0.670124 0.084427 0.336372 0.263003
H8    H     H_    0.665720 0.007136 0.250105 0.253350
H9    H     H_    0.617773 0.961017 0.383817 0.226934
H10   H     H_    0.579913 0.980862 0.286953 0.223791
H11   H     H_    0.557941 0.123875 0.342534 0.195116
H12   H     H_    0.598299 0.108913 0.435896 0.206222
H13   H     H_    0.034369 0.283479 0.472158 0.199800
H14   H     H_    0.329199 0.915694 0.663166 0.264132
H15   H     H_    0.367543 0.895705 0.760119 0.259767
H16   H     H_    0.333456 0.993111 0.749321 0.250633
H17   H     H_    0.419329 0.019384 0.712917 0.223307
H18   H     H_    0.381622 0.039021 0.615809 0.226095
H19   H     H_    0.401229 0.890931 0.564251 0.206805
H20   H     H_    0.441519 0.876365 0.657781 0.195419
H21   H     H_    0.965456 0.701775 0.494728 0.199620
H22   H     H_    0.485365 0.970956 0.134191 0.265867
H23   H     H_    0.422534 0.955827 0.165373 0.264329
H24   H     H_    0.443298 0.057744 0.121488 0.256009
H25   H     H_    0.433822 0.064084 0.285033 0.224299
H26   H     H_    0.496581 0.072566 0.254657 0.223919
H27   H     H_    0.506323 0.914085 0.293504 0.197400
H28   H     H_    0.444052 0.910408 0.326471 0.202476
H29   H     H_    0.651849 0.492845 0.645645 0.171373
H30   H     H_    0.577242 0.044496 0.834282 0.264427
H31   H     H_    0.514468 0.029641 0.865943 0.265905
H32   H     H_    0.556468 0.942736 0.878565 0.255609
H33   H     H_    0.502892 0.927748 0.745792 0.223946
H34   H     H_    0.565603 0.936016 0.714978 0.223066
H35   H     H_    0.555352 0.089806 0.673532 0.202988
H36   H     H_    0.493083 0.085984 0.706540 0.196643
H37   H     H_    0.691667 0.455497 0.073451 0.266790
H38   H     H_    0.673504 0.345762 0.093097 0.259147
H39   H     H_    0.702018 0.378376 0.988867 0.254256
H40   H     H_    0.579056 0.941851 0.544308 0.144170
H41   H     H_    0.614330 0.360722 0.966286 0.223214
H42   H     H_    0.631692 0.470515 0.948808 0.221626
H43   H     H_    0.606033 0.498255 0.108521 0.205713
H44   H     H_    0.585546 0.390310 0.121063 0.190243
H45   H     H_    0.328252 0.661156 0.914587 0.262506
H46   H     H_    0.308298 0.552044 0.930690 0.269504
H47   H     H_    0.299999 0.626429 0.018530 0.250847
H48   H     H_    0.368862 0.529763 0.053369 0.224339
H49   H     H_    0.388057 0.638812 0.038657 0.223686
H50   H     H_    0.414301 0.610853 0.880797 0.193234
H51   H     H_    0.420406 0.058202 0.455774 0.145062
H52   H     H_    0.393368 0.503166 0.893753 0.200831
H53   H     H_    0.482679 0.159155 0.948470 0.260936
H54   H     H_    0.547906 0.166788 0.940750 0.267146
H55   H     H_    0.519934 0.127993 0.043326 0.257368
H56   H     H_    0.547639 0.275704 0.058643 0.223186
H57   H     H_    0.482748 0.269622 0.064608 0.222020
H58   H     H_    0.477730 0.315901 0.901014 0.203213
H59   H     H_    0.542318 0.325270 0.896612 0.192520
H60   H     H_    0.453427 0.833823 0.061133 0.267196
H61   H     H_    0.518567 0.841222 0.051013 0.261489
H62   H     H_    0.566107 0.590427 0.939866 0.138338
H63   H     H_    0.480343 0.872604 0.957577 0.257397
H64   H     H_    0.516987 0.730803 0.934708 0.221490
H65   H     H_    0.452170 0.725075 0.943267 0.224255
H66   H     H_    0.459400 0.675513 0.105254 0.191745
H67   H     H_    0.523861 0.684363 0.097920 0.204700
H68   H     H_    0.224696 0.486080 0.849891 0.260923
H69   H     H_    0.222370 0.374875 0.822266 0.267060
H70   H     H_    0.269264 0.412661 0.894849 0.251718
H71   H     H_    0.301853 0.391036 0.743367 0.229208
H72   H     H_    0.303036 0.502694 0.769617 0.222756
H73   H     H_    0.434310 0.409964 0.060231 0.140069
H74   H     H_    0.227351 0.526829 0.682116 0.203224
H75   H     H_    0.223828 0.415436 0.659910 0.210239
H76   H     H_    0.805556 0.393903 0.798578 0.257578
H77   H     H_    0.756280 0.442541 0.857768 0.267728
H78   H     H_    0.758226 0.328589 0.847560 0.252038
H79   H     H_    0.698310 0.391877 0.741928 0.216567
H80   H     H_    0.747398 0.344689 0.682486 0.254088
H81   H     H_    0.786603 0.492313 0.668719 0.197858
H82   H     H_    0.733722 0.536153 0.716621 0.201338
H83   H     H_    0.703281 0.417411 0.265111 0.135476
H84   H     H_    0.120403 0.288630 0.460240 0.191435
H85   H     H_    0.743345 0.357179 0.340086 0.163891
H86   H     H_    0.813681 0.404961 0.248495 0.260981
H87   H     H_    0.769357 0.350455 0.182137 0.204194
H88   H     H_    0.773931 0.465036 0.173760 0.257959
H89   H     H_    0.294030 0.609465 0.276370 0.130842
H90   H     H_    0.249574 0.649822 0.353691 0.169493
H91   H     H_    0.183799 0.605926 0.251460 0.261104
H92   H     H_    0.225715 0.678562 0.196056 0.199906
H93   H     H_    0.228155 0.566372 0.174263 0.257896
H94   H     H_    0.788814 0.165234 0.615090 0.280223
H95   H     H_    0.879375 0.698526 0.484074 0.191297
H96   H     H_    0.839303 0.101481 0.655415 0.256414
H97   H     H_    0.802566 0.158184 0.733310 0.245652
H98   H     H_    0.880064 0.233403 0.707571 0.204765
H99   H     H_    0.830378 0.296176 0.667189 0.245079
H100  H     H_    0.850150 0.228427 0.507239 0.232384
H101  H     H_    0.901920 0.190389 0.559543 0.217516
H102  H     H_    0.209370 0.806067 0.641663 0.279744
H103  H     H_    0.157492 0.857836 0.689497 0.254042
H104  H     H_    0.196833 0.793142 0.759960 0.245195
H105  H     H_    0.121383 0.715152 0.728145 0.203600
H106  H     H_    0.653952 0.499239 0.356699 0.173615
H107  H     H_    0.172538 0.664030 0.680742 0.240096
H108  H     H_    0.149512 0.751479 0.528957 0.231196
H109  H     H_    0.098037 0.781285 0.585230 0.217552
H110  H     H_    0.958276 0.296937 0.713092 0.121964
H111  H     H_    0.019265 0.319829 0.675663 0.153926
H112  H     H_    0.036787 0.164993 0.675055 0.261030
H113  H     H_    0.016746 0.197396 0.783959 0.205294
H114  H     H_    0.975691 0.141973 0.711727 0.254257
H115  H     H_    0.043338 0.650485 0.730739 0.121926
H116  H     H_    0.982030 0.633595 0.692641 0.153893
N1    N     N_R   0.200909 0.497395 0.501593 -0.329638
N2    N     N_R   0.798983 0.485004 0.504339 -0.330209
N3    N     N_1   0.500020 0.500000 0.268010 -0.093990
N4    N     N_1   0.499980 0.500000 0.731990 -0.095086
O1    O     O_R   0.500000 0.376780 0.574460 -0.614727
O2    O     O_2   0.798189 0.633797 0.487793 -0.560540
O3    O     O_2   0.795399 0.337349 0.514128 -0.613526
O4    O     O_2   0.204448 0.642464 0.525819 -0.610788
O5    O     O_3   0.749332 0.489973 0.342589 -0.594431
O6    O     O_3   0.250939 0.517642 0.341194 -0.593755
O7    O     O_3   0.975155 0.262093 0.582040 -0.636957
O8    O     O_3   0.025382 0.705762 0.604870 -0.637060
O9    O     O_R   0.500000 0.623220 0.425540 -0.613581
O10   O     O_R   0.500010 0.376780 0.425520 -0.611424
O11   O     O_R   0.499990 0.623220 0.574480 -0.611033
O12   O     O_R   0.428750 0.500010 0.574460 -0.624636
O13   O     O_R   0.571250 0.499990 0.425540 -0.619848
O14   O     O_R   0.428760 0.500020 0.425520 -0.616965
O15   O     O_R   0.571240 0.499980 0.574480 -0.622856
O16   O     O_2   0.201705 0.352544 0.469336 -0.561054
Zn1   Zn    Zn3+2 0.499990 0.500000 0.599450 0.961077
Zn2   Zn    Zn3+2 0.500010 0.500000 0.400550 0.965481

loop_
_geom_bond_atom_site_label_1
_geom_bond_atom_site_label_2
_ccdc_geom_bond_type
C43   C73   S    
C87   C88   S    
C101  C102  S    
C82   H53   S    
C73   H44   S    
C27   C29   S    
C94   H87   S    
C73   C75   S    
C81   H56   S    
C97   H93   S    
C86   H60   S    
C64   C90   S    
C57   C66   A    
C84   H65   S    
C103  H103  S    
C81   C82   S    
N4    Zn1   S    
C18   O7    S    
C88   H71   S    
C77   C78   S    
C59   H106  S    
N3    Zn2   S    
C29   C36   S    
C61   H29   S    
C33   C39   T    
C22   C101  S    
C46   H62   S    
C99   H99   S    
C44   C77   S    
C67   H27   S    
C84   C86   S    
C84   H64   S    
C2    C55   A    
C19   O11   A    
C77   H50   S    
O1    Zn1   S    
C5    C6    S    
C57   O5    S    
C100  H97   S    
C40   C50   S    
C102  H105  S    
C15   C25   A    
C106  H115  S    
C90   H81   S    
C2    C41   A    
C56   C65   A    
C18   C21   A    
C11   C24   S    
O14   Zn2   S    
C21   C98   S    
C56   O6    S    
C60   C62   A    
C25   C74   A    
C42   C46   S    
C68   H26   S    
C55   O3    S    
C6    H8    S    
C30   C96   A    
C55   N2    A    
C99   H98   S    
C87   H74   S    
C68   C69   S    
C100  H96   S    
C40   C43   S    
C80   H58   S    
C12   C16   A    
C69   H22   S    
C3    H5    S    
C8    C9    S    
C105  H113  S    
C51   N3    T    
C9    H15   S    
C40   C80   S    
O13   Zn2   S    
C32   C38   T    
C34   C70   S    
C54   C96   A    
C4    C29   S    
C13   C20   A    
C85   H95   S    
C77   H52   S    
C73   H43   S    
C93   O5    S    
C72   H32   S    
C91   H79   S    
C27   C34   S    
C74   H84   S    
C13   C14   A    
C63   C85   A    
C17   C30   A    
C81   H57   S    
C4    H12   S    
C42   C44   S    
C89   H68   S    
C11   C59   A    
C25   H13   S    
C103  H104  S    
C104  C105  S    
C46   C50   S    
C93   H85   S    
C3    C106  S    
C40   C45   S    
C104  H111  S    
C70   H36   S    
C50   C53   S    
C7    C31   S    
O11   Zn1   S    
C67   C68   S    
C78   H48   S    
C97   H91   S    
C7    C8    S    
C67   H28   S    
C95   O6    S    
C104  H110  S    
C66   N2    S    
C19   C33   S    
C91   C92   S    
C23   O12   A    
C78   C79   S    
C69   H24   S    
C86   H63   S    
C71   H33   S    
C48   N2    A    
C49   C51   S    
O12   Zn1   S    
C1    C32   S    
C7    H19   S    
C31   C37   S    
C3    H3    S    
O15   Zn1   S    
C64   C66   A    
C68   H25   S    
C10   C60   A    
C75   C76   S    
C6    H7    S    
C11   C61   A    
C53   N4    T    
C79   H47   S    
C72   H30   S    
C82   H54   S    
C102  H107  S    
C83   C84   S    
C12   C15   A    
C45   C49   S    
C101  H108  S    
C105  H114  S    
C83   H66   S    
C2    C21   A    
C12   C18   A    
C9    H16   S    
C31   C34   S    
C24   O15   A    
C93   C94   S    
C14   C26   A    
C60   H1    S    
C70   C71   S    
C24   O13   A    
C4    H11   S    
C76   H38   S    
C8    H18   S    
C72   H31   S    
C90   H82   S    
C91   H80   S    
C20   C22   A    
C76   H39   S    
C105  H112  S    
C20   O8    S    
C103  H102  S    
C83   H67   S    
C5    H10   S    
C92   H78   S    
C10   C23   S    
C14   C16   A    
C98   H101  S    
C95   H90   S    
C41   C63   A    
C27   H40   S    
C100  H94   S    
C80   H59   S    
C65   N1    S    
C44   C45   S    
C35   C37   S    
C79   H45   S    
C44   C50   S    
C15   C17   A    
C47   N1    A    
C104  O7    S    
C70   H35   S    
C95   H89   S    
C106  O8    S    
C62   C65   A    
C10   C58   A    
C94   H88   S    
C22   C96   A    
C97   H92   S    
C28   C31   S    
C43   C49   S    
C86   H61   S    
C80   C81   S    
C48   C63   A    
C92   H77   S    
C19   O9    A    
C87   H75   S    
C47   O16   S    
C95   C97   S    
C8    H17   S    
C88   H72   S    
C71   H34   S    
C82   H55   S    
C93   H83   S    
C75   H42   S    
C62   C87   S    
C29   C35   S    
C52   C74   A    
C99   C100  S    
C13   C17   A    
C75   H41   S    
O10   Zn2   S    
C36   C38   S    
C42   C83   S    
C71   C72   S    
C37   C39   S    
C92   H76   S    
C61   C64   A    
C23   O14   A    
C1    O1    A    
C90   C91   S    
C106  H116  S    
C30   C52   A    
C101  H109  S    
C26   C85   A    
C48   O2    S    
C28   H51   S    
C34   C36   S    
C56   C58   A    
C58   H2    S    
C26   H21   S    
C7    H20   S    
C102  C103  S    
C78   H49   S    
C43   C46   S    
C94   H86   S    
O9    Zn2   S    
C57   C59   A    
C35   C67   S    
C45   H73   S    
C42   C49   S    
C1    O10   A    
C76   H37   S    
C4    C5    S    
C88   C89   S    
C28   C36   S    
C69   H23   S    
C98   C99   S    
C47   C52   A    
C9    H14   S    
C89   H69   S    
C98   H100  S    
C6    H6    S    
C3    H4    S    
C89   H70   S    
C28   C35   S    
C54   N1    A    
C16   C41   A    
C54   O4    S    
C5    H9    S    
C27   C37   S    
C79   H46   S    
