data_mof_unit_3436.cif
_audit_creation_date              2012-12-11T15:36:49-0500
_audit_creation_method            fapswitch 2.2
_symmetry_space_group_name_H-M    P1
_symmetry_Int_Tables_number       1
_space_group_crystal_system       triclinic
_cell_length_a                    15.039238
_cell_length_b                    15.071975
_cell_length_c                    34.851115
_cell_angle_alpha                 91.492832
_cell_angle_beta                  91.827154
_cell_angle_gamma                 60.090644
_cell_volume                      6843.66224716

loop_
_atom_site_label
_atom_site_type_symbol
_atom_type_description
_atom_site_fract_x
_atom_site_fract_y
_atom_site_fract_z
_atom_type_partial_charge
C1    C     C_R   0.611012 0.301929 0.443933 0.565911
C2    C     C_R   0.706024 0.674286 0.177353 0.008996
C3    C     C_R   0.623070 0.123575 0.827501 0.049902
C4    C     C_R   0.688895 0.150687 0.847101 -0.082472
C5    C     C_R   0.715165 0.124900 0.885515 -0.102822
C6    C     C_R   0.548385 0.234248 0.771342 -0.129828
C7    C     C_R   0.544061 0.252529 0.732210 -0.053546
C8    C     C_R   0.601886 0.171910 0.706892 0.084319
C9    C     C_R   0.660653 0.072056 0.720525 -0.050368
C10   C     C_R   0.667242 0.051938 0.759957 0.078186
C11   C     C_R   0.610777 0.135290 0.785654 -0.005908
C12   C     C_R   0.541117 0.195475 0.638664 0.205875
C13   C     C_R   0.806397 0.625701 0.162822 0.090842
C14   C     C_R   0.546171 0.222403 0.601215 -0.114328
C15   C     C_R   0.698656 0.233783 0.618242 0.054413
C16   C     C_R   0.689307 0.213026 0.656701 0.181673
C17   C     C_R   0.610637 0.193693 0.666771 0.010710
C18   C     C_R   0.621708 0.245725 0.590669 -0.080673
C19   C     C_R   0.046194 0.738856 0.048386 0.561555
C20   C     C_R   0.747349 0.746168 0.063969 0.580541
C21   C     C_R   0.750932 0.040798 0.050662 0.543413
C22   C     C_R   0.017817 0.721948 0.939805 0.572980
C23   C     C_R   0.716866 0.729310 0.955101 0.563523
C24   C     C_R   0.821437 0.643420 0.124786 0.208787
C25   C     C_R   0.721541 0.023715 0.941898 0.540955
C26   C     C_R   0.698051 0.584460 0.235030 0.252059
C27   C     C_R   0.694389 0.579143 0.274684 -0.078667
C28   C     C_R   0.685916 0.659615 0.298372 -0.052969
C29   C     C_R   0.679971 0.746367 0.282089 -0.070258
C30   C     C_R   0.683865 0.752446 0.242466 0.261171
C31   C     C_R   0.693308 0.671117 0.218790 0.093570
C32   C     C_R   0.596137 0.737503 0.359097 -0.100574
C33   C     C_R   0.593496 0.610231 0.449595 0.543577
C34   C     C_R   0.574005 0.725885 0.396452 -0.108301
C35   C     C_R   0.718628 0.552559 0.396960 -0.122705
C36   C     C_R   0.740477 0.564166 0.359582 -0.111905
C37   C     C_R   0.676534 0.655014 0.339900 0.029526
C38   C     C_R   0.632069 0.631570 0.414936 0.019750
C39   C     C_R   0.107118 0.726616 0.083946 0.025977
C40   C     C_R   0.158483 0.630738 0.101818 -0.069504
C41   C     C_R   0.187530 0.623471 0.140465 -0.064300
C42   C     C_R   0.167698 0.711513 0.161613 0.029365
C43   C     C_R   0.127347 0.805468 0.142875 -0.108085
C44   C     C_R   0.304663 0.590924 0.442149 0.543114
C45   C     C_R   0.096958 0.813116 0.104171 -0.116828
C46   C     C_R   0.239352 0.733747 0.224593 -0.077415
C47   C     C_R   0.246792 0.725646 0.264599 -0.043289
C48   C     C_R   0.187319 0.693855 0.284253 0.055349
C49   C     C_R   0.120890 0.669777 0.263212 -0.095786
C50   C     C_R   0.114974 0.675988 0.223315 -0.089246
C51   C     C_R   0.174582 0.707305 0.203767 0.019711
C52   C     C_R   0.222297 0.580619 0.339856 -0.153267
C53   C     C_R   0.247952 0.555932 0.378386 -0.129574
C54   C     C_R   0.227740 0.723629 0.390990 -0.081135
C55   C     C_R   0.605942 0.300112 0.553834 0.559494
C56   C     C_R   0.200511 0.749424 0.352412 0.240828
C57   C     C_R   0.201621 0.676017 0.326139 0.032391
C58   C     C_R   0.254766 0.625693 0.404043 -0.025550
C59   C     C_R   0.720768 0.103446 0.086146 0.016498
C60   C     C_R   0.788650 0.129634 0.104982 -0.119364
C61   C     C_R   0.770355 0.167856 0.142573 -0.094048
C62   C     C_R   0.683771 0.180954 0.161688 0.071082
C63   C     C_R   0.612214 0.162052 0.141902 -0.050712
C64   C     C_R   0.630156 0.124293 0.104368 -0.108787
C65   C     C_R   0.586763 0.273555 0.221080 0.273284
C66   C     C_R   0.588016 0.607343 0.558756 0.541480
C67   C     C_R   0.579679 0.277264 0.261058 -0.059729
C68   C     C_R   0.661842 0.206311 0.283942 -0.009302
C69   C     C_R   0.752050 0.132274 0.266545 -0.092464
C70   C     C_R   0.759229 0.127473 0.226762 -0.115969
C71   C     C_R   0.676719 0.197063 0.203629 0.053372
C72   C     C_R   0.733492 0.214100 0.348236 -0.113316
C73   C     C_R   0.722372 0.232582 0.387514 -0.132770
C74   C     C_R   0.558772 0.235766 0.384115 0.043396
C75   C     C_R   0.569583 0.220637 0.344163 -0.116771
C76   C     C_R   0.655149 0.212810 0.326073 0.001570
C77   C     C_R   0.298016 0.589077 0.551777 0.542795
C78   C     C_R   0.632646 0.249931 0.405747 0.004392
C79   C     C_R   0.693244 0.687782 0.919564 0.008091
C80   C     C_R   0.776586 0.607487 0.900282 -0.141476
C81   C     C_R   0.768594 0.588033 0.861536 -0.122924
C82   C     C_R   0.677077 0.648052 0.840999 0.008211
C83   C     C_R   0.590091 0.720226 0.860878 -0.116532
C84   C     C_R   0.596217 0.738955 0.900328 0.045888
C85   C     C_R   0.587224 0.647814 0.779339 -0.101775
C86   C     C_R   0.581918 0.647579 0.739380 -0.095064
C87   C     C_R   0.663756 0.638362 0.718017 0.041657
C88   C     C_R   0.735908 0.709979 0.101496 -0.014564
C89   C     C_R   0.751968 0.627372 0.737094 -0.087393
C90   C     C_R   0.756885 0.628810 0.777142 -0.091562
C91   C     C_R   0.674198 0.639728 0.798655 0.040478
C92   C     C_R   0.730755 0.561219 0.653619 -0.083214
C93   C     C_R   0.712956 0.554442 0.614315 -0.098024
C94   C     C_R   0.549477 0.711513 0.618778 -0.114197
C95   C     C_R   0.566890 0.717802 0.657903 -0.108111
C96   C     C_R   0.655484 0.640529 0.675858 0.027423
C97   C     C_R   0.619918 0.626976 0.596984 0.016067
C98   C     C_R   0.063796 0.697625 0.901441 0.011355
C99   C     C_R   0.636583 0.750497 0.115538 -0.151301
C100  C     C_R   0.100795 0.757200 0.884370 0.048610
C101  C     C_R   0.116153 0.748580 0.844624 -0.107441
C102  C     C_R   0.100958 0.678300 0.822449 0.006245
C103  C     C_R   0.073959 0.613195 0.840021 -0.120438
C104  C     C_R   0.054933 0.623138 0.879079 -0.139011
C105  C     C_R   0.178731 0.583195 0.762293 -0.119157
C106  C     C_R   0.188780 0.580496 0.722737 -0.140837
C107  C     C_R   0.129560 0.668748 0.700861 -0.006529
C108  C     C_R   0.056361 0.760662 0.718986 0.058221
C109  C     C_R   0.049416 0.762764 0.759093 -0.108353
C110  C     C_R   0.619947 0.733169 0.153110 0.068818
C111  C     C_R   0.110617 0.674749 0.780668 -0.006702
C112  C     C_R   0.195742 0.721044 0.646514 -0.072831
C113  C     C_R   0.236400 0.702345 0.609840 -0.113658
C114  C     C_R   0.187639 0.572355 0.599343 -0.108479
C115  C     C_R   0.147142 0.591097 0.635923 -0.092110
C116  C     C_R   0.153695 0.663342 0.660051 0.061670
C117  C     C_R   0.236114 0.625050 0.586538 0.019588
C118  C     C_R   0.675281 0.072240 0.904870 0.021576
C119  C     C_R   0.602856 0.052421 0.885899 -0.104248
C120  C     C_R   0.577180 0.077665 0.847282 -0.075393
Cr1   Cr    Cr6+3 0.426010 0.422500 0.497000 1.067527
Cr2   Cr    Cr6+3 0.651300 0.426310 0.501970 1.056811
Cr3   Cr    Cr6+3 0.422670 0.651170 0.501050 1.039788
Cr4   Cr    Cr6+3 0.905130 0.911420 0.992650 1.068681
Cr5   Cr    Cr6+3 0.911860 0.682710 0.002320 1.086602
Cr6   Cr    Cr6+3 0.682710 0.906840 0.004710 1.058976
H1    H     H_    0.571262 0.798122 0.097088 0.189407
H2    H     H_    0.507379 0.788353 0.409804 0.150964
H3    H     H_    0.765343 0.479333 0.410682 0.135517
H4    H     H_    0.168564 0.562547 0.086846 0.171505
H5    H     H_    0.057597 0.888031 0.091186 0.133243
H6    H     H_    0.300960 0.741540 0.280095 0.167069
H7    H     H_    0.286056 0.757680 0.209835 0.159163
H8    H     H_    0.219601 0.550183 0.154510 0.168202
H9    H     H_    0.074636 0.644760 0.277665 0.130596
H10   H     H_    0.063817 0.656271 0.207569 0.168708
H11   H     H_    0.223421 0.522981 0.320319 0.138791
H12   H     H_    0.268445 0.479844 0.387514 0.188662
H13   H     H_    0.111636 0.874139 0.158903 0.122262
H14   H     H_    0.230930 0.779193 0.410486 0.163917
H15   H     H_    0.859101 0.114382 0.091692 0.140003
H16   H     H_    0.576214 0.105169 0.090585 0.144410
H17   H     H_    0.511735 0.213944 0.327014 0.154974
H18   H     H_    0.510708 0.336615 0.274347 0.145200
H19   H     H_    0.804051 0.500393 0.345327 0.124378
H20   H     H_    0.826583 0.181791 0.157511 0.144981
H21   H     H_    0.816288 0.076976 0.283749 0.149638
H22   H     H_    0.828467 0.067279 0.213919 0.131973
H23   H     H_    0.800811 0.206936 0.334819 0.138021
H24   H     H_    0.781757 0.240134 0.403103 0.152185
H25   H     H_    0.545994 0.169689 0.156350 0.169670
H26   H     H_    0.851180 0.564348 0.914269 0.140835
H27   H     H_    0.508889 0.780636 0.674547 0.132226
H28   H     H_    0.696326 0.512895 0.286989 0.149593
H29   H     H_    0.513879 0.654246 0.725054 0.112349
H30   H     H_    0.523222 0.654494 0.795096 0.111367
H31   H     H_    0.835774 0.529134 0.847195 0.119328
H32   H     H_    0.815643 0.620514 0.721032 0.118931
H33   H     H_    0.824222 0.624276 0.791249 0.106261
H34   H     H_    0.800060 0.501261 0.667033 0.147064
H35   H     H_    0.769153 0.489680 0.597964 0.147922
H36   H     H_    0.517877 0.764446 0.845424 0.145729
H37   H     H_    0.477431 0.769441 0.606259 0.145889
H38   H     H_    0.027221 0.576264 0.891258 0.135623
H39   H     H_    0.114908 0.546042 0.646105 0.126063
H40   H     H_    0.245181 0.509843 0.709191 0.130962
H41   H     H_    0.225980 0.514581 0.778712 0.123311
H42   H     H_    0.141275 0.795705 0.830820 0.153997
H43   H     H_    0.994381 0.832190 0.773717 0.186563
H44   H     H_    0.202105 0.776438 0.665109 0.124371
H45   H     H_    0.273706 0.743683 0.600766 0.133498
H46   H     H_    0.062463 0.558218 0.823124 0.118064
H47   H     H_    0.185729 0.512806 0.581875 0.145101
H48   H     H_    0.571507 0.011225 0.900042 0.151161
H49   H     H_    0.770805 0.141357 0.899478 0.144817
H50   H     H_    0.498951 0.330095 0.721806 0.125384
H51   H     H_    0.505855 0.298132 0.790775 0.116430
H52   H     H_    0.526019 0.056641 0.832319 0.132782
H53   H     H_    0.705554 0.010991 0.700338 0.176814
H54   H     H_    0.673331 0.808810 0.300212 0.153317
H55   H     H_    0.487820 0.228979 0.580581 0.180956
H56   H     H_    0.724346 0.186625 0.832034 0.139839
H57   H     H_    0.545943 0.808273 0.344327 0.136090
O1    O     O_R   0.324990 0.503440 0.453910 -0.502023
O2    O     O_R   0.639980 0.519500 0.542640 -0.498310
O3    O     O_R   0.500750 0.673190 0.545480 -0.515283
O4    O     O_R   0.336260 0.640450 0.538210 -0.499267
O5    O     O_3   0.499990 0.499990 0.500010 -0.258379
O6    O     O_R   0.834210 0.019400 0.034570 -0.516283
O7    O     O_R   0.002210 0.824620 0.031030 -0.498075
O8    O     O_R   0.024400 0.669340 0.039790 -0.467207
O9    O     O_R   0.830490 0.694950 0.045870 -0.434818
O10   O     O_R   0.675430 0.831160 0.051290 -0.514106
O11   O     O_R   0.698870 0.998880 0.039560 -0.500238
O12   O     O_R   0.522030 0.339050 0.458320 -0.458791
O13   O     O_R   0.811290 0.006780 0.950620 -0.501622
O14   O     O_R   0.980960 0.812920 0.953200 -0.461195
O15   O     O_R   0.001480 0.656720 0.955830 -0.526135
O16   O     O_R   0.809240 0.683250 0.968050 -0.514063
O17   O     O_R   0.652500 0.818540 0.967340 -0.474425
O18   O     O_R   0.677620 0.987170 0.961730 -0.505136
O19   O     O_3   0.833240 0.833660 0.999890 -0.267026
O20   O     O_R   0.676180 0.324490 0.458320 -0.519445
O21   O     O_R   0.643570 0.521510 0.464260 -0.506343
O22   O     O_R   0.504630 0.675350 0.460920 -0.510486
O23   O     O_R   0.339850 0.642450 0.459830 -0.499381
O24   O     O_R   0.321120 0.501280 0.538470 -0.513579
O25   O     O_R   0.518440 0.337050 0.536710 -0.498145
O26   O     O_R   0.672300 0.322330 0.542880 -0.469788
C121  C     C_2   0.896439 0.559824 0.187957 0.636335
O27   O     O_2   0.957129 0.472172 0.177887 -0.429558
O28   O     O_R   0.911685 0.597974 0.223036 -0.707551
H58   H     H_    0.975352 0.545820 0.237489 0.333559
Cl1   Cl    Cl    0.164690 0.874507 0.338348 -0.609159
Cl2   Cl    Cl    0.949036 0.589959 0.108858 -0.547216
Cl3   Cl    Cl    0.483202 0.367921 0.194034 -0.578012
C122  C     C_2   0.471484 0.234003 0.402012 0.588216
O29   O     O_2   0.389200 0.267658 0.384673 -0.536244
O30   O     O_R   0.484652 0.189348 0.437949 -0.670904
H59   H     H_    0.419927 0.191904 0.446911 0.339696
C123  C     C_2   0.500630 0.811428 0.920315 0.591950
O31   O     O_2   0.431892 0.884360 0.903148 -0.513597
O32   O     O_R   0.487393 0.794110 0.958400 -0.666213
H60   H     H_    0.418712 0.848061 0.968707 0.346253
C124  C     C_2   0.126606 0.826388 0.907097 0.592072
O33   O     O_2   0.117421 0.903583 0.892531 -0.498872
O34   O     O_R   0.165155 0.801445 0.944720 -0.680018
H61   H     H_    0.180736 0.854025 0.957027 0.342466
Cl4   Cl    Cl    0.707886 0.481932 0.206422 -0.538440
C125  C     C_2   0.984085 0.853810 0.697198 0.584927
O35   O     O_2   0.966919 0.848308 0.662937 -0.489683
O36   O     O_R   0.932532 0.948166 0.716299 -0.670669
H62   H     H_    0.883567 0.004687 0.698570 0.380009
C126  C     C_2   0.511972 0.779833 0.166169 0.622643
O37   O     O_2   0.491576 0.747940 0.194559 -0.501328
O38   O     O_R   0.432581 0.859500 0.145282 -0.689431
H63   H     H_    0.362754 0.884128 0.156674 0.344026
Cl5   Cl    Cl    0.774449 0.213690 0.692928 -0.561455
C127  C     C_2   0.737525 0.944745 0.772787 0.583571
O39   O     O_2   0.767200 0.926277 0.806219 -0.516749
O40   O     O_R   0.771833 0.864121 0.746033 -0.697493
H64   H     H_    0.820352 0.795228 0.757867 0.332319
Cl6   Cl    Cl    0.442783 0.170005 0.650034 -0.594818
C128  C     C_2   0.789585 0.240721 0.607502 0.659406
O41   O     O_2   0.844032 0.186279 0.581623 -0.480604
O42   O     O_R   0.814290 0.307565 0.627350 -0.656883
H65   H     H_    0.879145 0.303585 0.617768 0.332036
Cl7   Cl    Cl    0.680169 0.861457 0.223391 -0.585862

loop_
_geom_bond_atom_site_label_1
_geom_bond_atom_site_label_2
_ccdc_geom_bond_type
C8    C9    A    
C15   C18   A    
C101  C102  A    
C22   C98   S    
C73   H24   S    
C41   C42   A    
C14   C18   A    
C32   H57   S    
C95   C96   A    
C72   C76   A    
C25   C118  S    
C28   C29   A    
Cr4   O7    S    
C81   C82   A    
C85   C91   A    
C7    C8    A    
C113  H45   S    
C108  C125  S    
C85   C86   A    
Cr6   O19   S    
C55   O25   A    
C33   O22   A    
C59   C64   A    
C29   C30   A    
C23   O17   A    
C30   Cl7   S    
C106  H40   S    
C66   C97   S    
C36   C37   A    
C1    O12   A    
C21   C59   S    
C25   O18   A    
C84   C123  S    
C77   O24   A    
C119  H48   S    
C54   C58   A    
C79   C84   A    
C24   Cl2   S    
C106  C107  A    
C15   C16   A    
C23   O16   A    
C92   C96   A    
C108  C109  A    
Cr3   O22   S    
O40   H64   S    
C46   C47   A    
Cr2   O21   S    
C90   H33   S    
C49   C50   A    
C2    C13   A    
C120  H52   S    
C118  C119  A    
C41   H8    S    
Cr1   O12   S    
C22   O14   A    
C102  C103  A    
O42   H65   S    
Cr2   O5    S    
C114  H47   S    
C112  H44   S    
C127  O39   D    
C42   C43   A    
C44   C58   S    
C16   C17   A    
C65   C67   A    
C29   H54   S    
O30   H59   S    
C12   C17   A    
C107  C108  A    
C43   H13   S    
C70   C71   A    
C21   O11   A    
C115  H39   S    
C52   H11   S    
C128  O41   D    
C44   O1    A    
C56   Cl1   S    
C9    H53   S    
C42   C51   S    
C39   C45   A    
C27   H28   S    
Cr1   O5    S    
C49   H9    S    
C16   Cl5   S    
C59   C60   A    
Cr6   O18   S    
C123  O32   S    
C87   C96   S    
Cr3   O4    S    
C1    C78   S    
C5    H49   S    
C102  C111  S    
C69   C70   A    
C126  O38   S    
C67   H18   S    
Cr4   O6    S    
C109  H43   S    
C50   C51   A    
C54   C56   A    
C26   Cl4   S    
C54   H14   S    
Cr5   O19   S    
C81   H31   S    
C74   C75   A    
C63   C64   A    
C67   C68   A    
C114  C117  A    
C47   C48   A    
C48   C57   S    
C35   C38   A    
O32   H60   S    
C127  O40   S    
O38   H63   S    
C3    C120  A    
C6    C11   A    
C86   C87   A    
C68   C69   A    
Cr2   O2    S    
C99   H1    S    
C94   C97   A    
C122  O29   D    
C65   C71   A    
C99   C110  A    
C46   C51   A    
C82   C83   A    
C82   C91   S    
C53   H12   S    
C13   C24   A    
Cr4   O19   S    
C60   C61   A    
C95   H27   S    
C35   C36   A    
C32   C34   A    
Cr2   O20   S    
C101  H42   S    
C75   C76   A    
C104  H38   S    
C62   C63   A    
C60   H15   S    
C55   O26   A    
C123  O31   D    
C24   C88   A    
C126  O37   D    
Cr6   O11   S    
C21   O6    A    
C83   C84   A    
C93   H35   S    
C73   C78   A    
C12   Cl6   S    
C7    H50   S    
Cr4   O13   S    
C44   O23   A    
C124  O33   D    
C26   C27   A    
Cr2   O26   S    
C110  C126  S    
C94   C95   A    
Cr5   O8    S    
C86   H29   S    
C32   C37   A    
C119  C120  A    
C125  O36   S    
C43   C45   A    
C63   H25   S    
C25   O13   A    
C75   H17   S    
C100  C124  S    
C65   Cl3   S    
Cr1   O1    S    
C113  C117  A    
C18   C55   S    
C34   H2    S    
C40   C41   A    
C83   H36   S    
C12   C14   A    
Cr5   O15   S    
C45   H5    S    
C121  O28   S    
C87   C89   A    
C6    H51   S    
C74   C78   A    
C103  H46   S    
C69   H21   S    
C70   H22   S    
C56   C57   A    
Cr1   O24   S    
C3    C4    A    
C1    O20   A    
C93   C97   A    
C20   O10   A    
C112  C116  A    
C14   H55   S    
C52   C53   A    
O34   H61   S    
C9    C10   A    
Cr6   O17   S    
C80   H26   S    
C40   H4    S    
C15   C128  S    
C48   C49   A    
C34   C38   A    
C26   C31   A    
C13   C121  S    
C22   O15   A    
C33   C38   S    
C80   C81   A    
C20   O9    A    
C52   C57   A    
C53   C58   A    
C114  C115  A    
C6    C7    A    
C122  O30   S    
C105  C106  A    
C5    C118  A    
C33   O21   A    
C77   C117  S    
C8    C17   S    
C47   H6    S    
C92   H34   S    
C4    H56   S    
Cr3   O3    S    
C109  C111  A    
C89   C90   A    
C125  O35   D    
Cr4   O14   S    
C66   O3    A    
C50   H10   S    
C46   H7    S    
C68   C76   S    
Cr6   O10   S    
C89   H32   S    
C90   C91   A    
C30   C31   A    
C64   H16   S    
C28   C37   S    
C72   C73   A    
C98   C104  A    
C4    C5    A    
C20   C88   S    
C74   C122  S    
C92   C93   A    
C124  O34   S    
C128  O42   S    
C62   C71   S    
Cr5   O9    S    
C112  C113  A    
C121  O27   D    
C105  C111  A    
C61   C62   A    
C98   C100  A    
C107  C116  S    
C88   C99   A    
C3    C11   S    
C10   C11   A    
C19   O7    A    
Cr5   O16   S    
C79   C80   A    
C39   C40   A    
C105  H41   S    
C36   H19   S    
C10   C127  S    
O28   H58   S    
Cr3   O23   S    
C19   C39   S    
C72   H23   S    
Cr3   O5    S    
C66   O2    A    
C19   O8    A    
C103  C104  A    
C2    C31   S    
C100  C101  A    
C61   H20   S    
Cr1   O25   S    
C23   C79   S    
C77   O4    A    
C94   H37   S    
C85   H30   S    
C35   H3    S    
C115  C116  A    
O36   H62   S    
C27   C28   A    
C2    C110  A    
