data_mof_unit_1465.cif
_audit_creation_date              2012-12-10T17:42:44-0500
_audit_creation_method            fapswitch 2.2
_symmetry_space_group_name_H-M    P1
_symmetry_Int_Tables_number       1
_space_group_crystal_system       triclinic
_cell_length_a                    9.940192
_cell_length_b                    10.704163
_cell_length_c                    13.013924
_cell_angle_alpha                 92.873511
_cell_angle_beta                  70.649682
_cell_angle_gamma                 91.806675
_cell_volume                      1304.67272675

loop_
_atom_site_label
_atom_site_type_symbol
_atom_type_description
_atom_site_fract_x
_atom_site_fract_y
_atom_site_fract_z
_atom_type_partial_charge
C1    C     C_R   0.506687 0.738235 0.487786 0.855088
C2    C     C_R   0.385179 0.421177 0.807993 -0.168281
C3    C     C_R   0.317143 0.867236 0.394373 -0.148952
C4    C     C_R   0.423703 0.477056 0.700194 0.880853
C5    C     C_R   0.188868 0.918546 0.397643 -0.250178
C6    C     C_R   0.144428 0.031055 0.456171 0.054052
C7    C     C_R   0.238409 0.099232 0.498708 -0.161102
C8    C     C_R   0.376186 0.053915 0.484751 0.055453
C9    C     C_R   0.404299 0.929551 0.447995 0.098725
C10   C     C_R   0.515348 0.870091 0.470809 -0.115227
C11   C     C_R   0.619148 0.939213 0.499543 -0.237008
C12   C     C_R   0.451650 0.394140 0.968818 0.098972
C13   C     C_R   0.606375 0.066034 0.515884 -0.198802
C14   C     C_R   0.486967 0.124939 0.507853 -0.114319
C15   C     C_R   0.811959 0.688202 0.616629 -0.263289
C16   C     C_R   0.494835 0.259588 0.505173 0.860083
C17   C     C_R   0.862860 0.798054 0.653350 -0.037263
C18   C     C_R   0.005142 0.805345 0.646355 -0.200236
C19   C     C_R   0.087710 0.697655 0.618722 -0.024893
C20   C     C_R   0.048454 0.594826 0.558813 0.131181
C21   C     C_R   0.904647 0.593542 0.557596 0.149918
C22   C     C_R   0.950785 0.412319 0.442505 -0.057040
C23   C     C_R   0.492241 0.399009 0.855075 0.064888
C24   C     C_R   0.093533 0.412159 0.442684 -0.087591
C25   C     C_R   0.578558 0.497953 0.295507 0.871434
C26   C     C_R   0.806468 0.467573 0.000395 -0.083063
C27   C     C_R   0.624518 0.480253 0.177354 -0.064023
C28   C     C_R   0.243420 0.388585 0.865870 -0.135270
C29   C     C_R   0.207132 0.350158 0.973330 0.043227
C30   C     C_R   0.308092 0.363134 0.027059 -0.287684
C31   C     C_2   0.998910 0.074761 0.473981 0.352976
C32   C     C_2   0.762953 0.899297 0.708569 0.427379
C33   C     C_2   0.156285 0.681821 0.700362 0.533689
C34   C     C_R   0.557258 0.420206 0.018399 0.080831
C35   C     C_2   0.065790 0.294584 0.030226 0.367588
C36   C     C_R   0.702975 0.430126 0.953235 0.153090
C37   C     C_R   0.742780 0.401709 0.841903 -0.169517
C38   C     C_R   0.638267 0.382410 0.793664 -0.156379
C39   C     C_R   0.520681 0.446493 0.129856 -0.250327
C40   C     C_R   0.767711 0.491258 0.112510 -0.203721
H1    H     H_    0.849039 0.518087 0.148229 0.149353
H2    H     H_    0.164979 0.340252 0.395696 0.139129
H3    H     H_    0.917153 0.478509 0.950474 0.181687
H4    H     H_    0.410220 0.444308 0.180602 0.159909
H5    H     H_    0.162650 0.390212 0.826950 0.205813
H6    H     H_    0.275211 0.339542 0.111695 0.120207
H7    H     H_    0.673832 0.354020 0.708163 0.208905
H8    H     H_    0.708407 0.895047 0.512201 0.162737
H9    H     H_    0.934970 0.029911 0.428971 0.052173
H10   H     H_    0.650270 0.888333 0.719120 0.047783
H11   H     H_    0.248842 0.738610 0.700059 0.047022
H12   H     H_    0.346373 0.777688 0.351415 0.165254
H13   H     H_    0.028637 0.289325 0.118334 0.053936
H14   H     H_    0.120472 0.866504 0.360453 0.139858
H15   H     H_    0.198750 0.183047 0.547470 0.209509
H16   H     H_    0.689518 0.117956 0.536613 0.216053
H17   H     H_    0.915440 0.340426 0.395374 0.146882
H18   H     H_    0.699402 0.678433 0.637310 0.212126
H19   H     H_    0.041800 0.885944 0.684437 0.188690
H20   H     H_    0.854209 0.397933 0.791696 0.185821
N1    N     N_R   0.856860 0.501200 0.500990 -0.123049
N2    N     N_R   0.142450 0.501280 0.501020 -0.125027
O1    O     O_R   0.385310 0.683220 0.500000 -0.647289
O2    O     O_2   0.804761 0.995910 0.742907 -0.515924
O3    O     O_2   0.099651 0.614938 0.776699 -0.623692
O4    O     O_2   0.991840 0.249102 0.979032 -0.553317
O5    O     O_R   0.614640 0.683250 0.500010 -0.633687
O6    O     O_R   0.328400 0.499950 0.653610 -0.589623
O7    O     O_R   0.557730 0.499970 0.653620 -0.647699
O8    O     O_R   0.385360 0.316750 0.499990 -0.635054
O9    O     O_R   0.614690 0.316780 0.500000 -0.618817
O10   O     O_R   0.442270 0.500030 0.346380 -0.626886
O11   O     O_R   0.671600 0.500050 0.346390 -0.610390
O12   O     O_2   0.947508 0.159064 0.540931 -0.575903
Zn1   Zn    Zn3+2 0.346880 0.499980 0.499990 0.941034
Zn2   Zn    Zn3+2 0.653120 0.500020 0.500010 0.927218

loop_
_geom_bond_atom_site_label_1
_geom_bond_atom_site_label_2
_ccdc_geom_bond_type
C35   H13   S    
C24   H2    S    
C19   C20   A    
C7    H15   S    
C22   H17   S    
C33   O3    D    
C7    C8    A    
O6    Zn1   S    
C12   C23   A    
C37   C38   A    
C36   C37   A    
C25   O11   A    
O9    Zn2   S    
O7    Zn2   S    
C18   C19   A    
C27   C39   A    
C8    C9    A    
C8    C14   A    
C14   C16   S    
C9    C10   A    
C21   N1    A    
C13   H16   S    
C6    C31   S    
C13   C14   A    
C11   H8    S    
C16   O9    A    
C31   H9    S    
O10   Zn1   S    
C1    O1    A    
C4    O7    A    
C26   H3    S    
N1    Zn2   S    
C28   H5    S    
C34   C39   A    
C5    H14   S    
C16   O8    A    
C32   O2    D    
C19   C33   S    
C4    O6    A    
C31   O12   D    
C35   O4    D    
C2    C4    S    
C29   C30   A    
C3    C9    A    
C27   C40   A    
C17   C18   A    
C25   O10   A    
C20   C21   A    
C32   H10   S    
C38   H7    S    
C39   H4    S    
C26   C36   A    
C40   H1    S    
C15   H18   S    
C22   C24   A    
N2    Zn1   S    
C25   C27   S    
C12   C34   A    
O8    Zn1   S    
C15   C17   A    
C28   C29   A    
C24   N2    A    
C12   C30   A    
C30   H6    S    
C1    C10   S    
C3    C5    A    
C3    H12   S    
C6    C7    A    
C33   H11   S    
C23   C38   A    
C29   C35   S    
C22   N1    A    
C11   C13   A    
C26   C40   A    
C5    C6    A    
O1    Zn1   S    
C1    O5    A    
C34   C36   A    
C20   N2    A    
C37   H20   S    
C10   C11   A    
C18   H19   S    
C15   C21   A    
O11   Zn2   S    
C2    C23   A    
C17   C32   S    
C2    C28   A    
O5    Zn2   S    
