data_mof_unit_2097.cif
_audit_creation_date              2012-12-11T15:35:28-0500
_audit_creation_method            fapswitch 2.2
_symmetry_space_group_name_H-M    P1
_symmetry_Int_Tables_number       1
_space_group_crystal_system       triclinic
_cell_length_a                    17.261499
_cell_length_b                    24.038224
_cell_length_c                    15.040255
_cell_angle_alpha                 90.03178
_cell_angle_beta                  125.128304
_cell_angle_gamma                 89.966839
_cell_volume                      5104.08525623

loop_
_atom_site_label
_atom_site_type_symbol
_atom_type_description
_atom_site_fract_x
_atom_site_fract_y
_atom_site_fract_z
_atom_type_partial_charge
C1    C     C_R   0.343191 0.150324 0.907827 -0.063456
C2    C     C_R   0.601463 0.122810 0.910786 -0.063438
C3    C     C_R   0.256176 0.546056 0.303285 -0.017311
C4    C     C_R   0.101565 0.377372 0.910665 -0.059362
C5    C     C_R   0.101463 0.622810 0.910786 -0.063438
C6    C     C_R   0.441511 0.999900 0.638556 0.017771
C7    C     C_R   0.941511 0.499900 0.638556 0.017771
C8    C     C_R   0.802014 0.999736 0.365881 0.045903
C9    C     C_R   0.302014 0.499736 0.365881 0.045903
C10   C     C_R   0.692933 0.132919 0.001732 0.096421
C11   C     C_R   0.692957 0.867197 0.001526 0.073155
C12   C     C_R   0.192933 0.632919 0.001732 0.096421
C13   C     C_R   0.344172 0.849355 0.907821 -0.081378
C14   C     C_R   0.192957 0.367197 0.001526 0.073155
C15   C     C_3   0.020200 0.944052 0.635065 0.434094
C16   C     C_3   0.018343 0.053304 0.637327 0.437372
C17   C     C_3   0.520200 0.444052 0.635065 0.434094
C18   C     C_3   0.518343 0.553304 0.637327 0.437372
C19   C     C_3   0.917844 0.944051 0.531672 -0.455374
C20   C     C_3   0.911752 0.047486 0.546022 -0.419736
C21   C     C_3   0.417844 0.444051 0.531672 -0.455374
C22   C     C_3   0.411751 0.547486 0.546022 -0.419736
C23   C     C_3   0.068183 0.000446 0.534297 -0.572414
C24   C     C_R   0.843191 0.650324 0.907827 -0.063456
C25   C     C_3   0.568183 0.500446 0.534297 -0.572414
C26   C     C_3   0.071949 0.999394 0.640597 -0.079340
C27   C     C_3   0.571949 0.499394 0.640597 -0.079340
C28   C     C_3   0.897170 0.999373 0.468316 0.112766
C29   C     C_3   0.397170 0.499373 0.468316 0.112766
C30   C     C_R   0.432979 0.849340 0.089038 -0.056018
C31   C     C_R   0.431995 0.150316 0.089157 -0.060025
C32   C     C_R   0.932979 0.349340 0.089038 -0.056018
C33   C     C_R   0.931995 0.650316 0.089157 -0.060025
C34   C     C_3   0.966484 0.005637 0.435221 -0.289600
C35   C     C_R   0.844171 0.349355 0.907821 -0.081378
C36   C     C_3   0.466484 0.505637 0.435221 -0.289600
C37   C     C_R   0.285209 0.730419 0.902003 -0.227274
C38   C     C_R   0.283578 0.269107 0.901885 -0.261150
C39   C     C_R   0.785209 0.230419 0.902003 -0.227274
C40   C     C_R   0.783578 0.769107 0.901885 -0.261150
C41   C     C_R   0.753935 0.177398 0.903757 0.424707
C42   C     C_R   0.753552 0.822584 0.903439 0.435811
C43   C     C_R   0.253935 0.677398 0.903757 0.424708
C44   C     C_R   0.253552 0.322584 0.903439 0.435811
C45   C     C_R   0.772270 0.156963 0.002015 -0.175213
C46   C     C_R   0.690937 0.122422 0.091641 -0.046755
C47   C     C_R   0.772385 0.843499 0.001581 -0.128217
C48   C     C_R   0.272270 0.656963 0.002015 -0.175213
C49   C     C_R   0.272385 0.343499 0.001581 -0.128217
C50   C     C_R   0.851564 0.178463 0.099502 0.457503
C51   C     C_R   0.851356 0.821945 0.098971 0.469770
C52   C     C_R   0.351564 0.678463 0.099502 0.457503
C53   C     C_R   0.351356 0.321945 0.098971 0.469770
C54   C     C_R   0.383724 0.731286 0.098211 -0.286331
C55   C     C_R   0.382166 0.268526 0.098181 -0.261596
C56   C     C_R   0.883724 0.231286 0.098211 -0.286331
C57   C     C_R   0.690966 0.877508 0.091511 -0.105694
C58   C     C_R   0.882166 0.768526 0.098181 -0.261596
C59   C     C_R   0.343685 0.759910 0.999366 0.021626
C60   C     C_R   0.341630 0.239604 0.999404 0.026130
C61   C     C_R   0.843685 0.259910 0.999366 0.021626
C62   C     C_R   0.841630 0.739604 0.999404 0.026130
C63   C     C_R   0.396353 0.001407 0.453078 -0.105260
C64   C     C_R   0.562296 0.998572 0.607466 -0.011072
C65   C     C_R   0.896353 0.501407 0.453078 -0.105260
C66   C     C_R   0.062296 0.498572 0.607466 -0.011072
C67   C     C_R   0.424721 0.001564 0.384211 -0.134706
C68   C     C_R   0.190937 0.622422 0.091641 -0.046755
C69   C     C_R   0.590811 0.999142 0.539404 0.106646
C70   C     C_R   0.924721 0.501564 0.384211 -0.134706
C71   C     C_R   0.090811 0.499142 0.539404 0.106646
C72   C     C_R   0.521721 0.000374 0.428589 0.135681
C73   C     C_R   0.021720 0.500374 0.428589 0.135681
C74   C     C_R   0.540779 0.046017 0.299096 0.434674
C75   C     C_R   0.540622 0.954169 0.299167 0.454692
C76   C     C_R   0.040779 0.546017 0.299096 0.434674
C77   C     C_R   0.040622 0.454169 0.299167 0.454692
C78   C     C_R   0.465900 0.999804 0.564085 0.058775
C79   C     C_R   0.190966 0.377508 0.091511 -0.105695
C80   C     C_R   0.965900 0.499804 0.564085 0.058775
C81   C     C_R   0.231174 0.953212 0.753142 -0.099315
C82   C     C_R   0.230634 0.046412 0.752850 -0.104972
C83   C     C_R   0.731174 0.453212 0.753142 -0.099315
C84   C     C_R   0.730634 0.546412 0.752850 -0.104972
C85   C     C_R   0.366600 0.181161 0.998305 0.099603
C86   C     C_R   0.368187 0.818362 0.998216 0.096899
C87   C     C_R   0.866600 0.681161 0.998305 0.099603
C88   C     C_R   0.868187 0.318362 0.998216 0.096899
C89   C     C_R   0.549302 0.000163 0.357013 -0.248380
C90   C     C_R   0.601565 0.877372 0.910665 -0.059362
C91   C     C_R   0.049302 0.500163 0.357013 -0.248380
C92   C     C_R   0.174224 0.999638 0.727627 0.200434
C93   C     C_R   0.674224 0.499638 0.727627 0.200434
C94   C     C_R   0.453928 0.045826 0.699014 -0.062103
C95   C     C_R   0.453864 0.954067 0.699049 -0.073983
C96   C     C_R   0.953928 0.545826 0.699014 -0.062103
C97   C     C_R   0.953864 0.454067 0.699049 -0.073983
C98   C     C_R   0.755088 0.953658 0.303327 -0.110918
C99   C     C_R   0.756176 0.046056 0.303285 -0.017311
C100  C     C_R   0.255088 0.453658 0.303327 -0.110918
H1    H     H_    0.305231 0.164905 0.824986 0.098677
H2    H     H_    0.263192 0.251791 0.824949 0.158848
H3    H     H_    0.764992 0.247509 0.824986 0.175993
H4    H     H_    0.763192 0.751791 0.824949 0.158848
H5    H     H_    0.440389 0.748935 0.174658 0.179223
H6    H     H_    0.439074 0.250978 0.174610 0.189722
H7    H     H_    0.940389 0.248935 0.174658 0.179223
H8    H     H_    0.939074 0.750978 0.174610 0.189722
H9    H     H_    0.321782 0.002433 0.420806 0.156844
H10   H     H_    0.614621 0.997237 0.693858 0.225977
H11   H     H_    0.821782 0.502433 0.420806 0.156844
H12   H     H_    0.306703 0.834675 0.825064 0.101220
H13   H     H_    0.114620 0.497237 0.693858 0.225977
H14   H     H_    0.371992 0.002584 0.297020 0.143984
H15   H     H_    0.665579 0.998540 0.572446 0.189682
H16   H     H_    0.871992 0.502584 0.297020 0.143984
H17   H     H_    0.165579 0.498540 0.572446 0.189682
H18   H     H_    0.210118 0.910189 0.737703 0.111483
H19   H     H_    0.208024 0.089231 0.735763 0.121500
H20   H     H_    0.710118 0.410189 0.737703 0.111483
H21   H     H_    0.708024 0.589232 0.735763 0.121500
H22   H     H_    0.768446 0.910702 0.328255 0.180530
H23   H     H_    0.805231 0.664905 0.824986 0.098677
H24   H     H_    0.771950 0.088948 0.328269 0.165788
H25   H     H_    0.268446 0.410702 0.328255 0.180530
H26   H     H_    0.271950 0.588948 0.328269 0.165788
H27   H     H_    0.746982 0.128352 0.175623 0.179712
H28   H     H_    0.747214 0.871504 0.175412 0.158621
H29   H     H_    0.246982 0.628352 0.175623 0.179712
H30   H     H_    0.247214 0.371504 0.175412 0.158621
H31   H     H_    0.575106 0.872083 0.826953 0.171347
H32   H     H_    0.574607 0.128382 0.827087 0.173836
H33   H     H_    0.075106 0.372083 0.826953 0.171347
H34   H     H_    0.806703 0.334675 0.825064 0.101220
H35   H     H_    0.074607 0.628382 0.827087 0.173836
H36   H     H_    0.055787 0.908686 0.624673 0.057021
H37   H     H_    0.043475 0.087987 0.610873 0.066181
H38   H     H_    0.555787 0.408686 0.624673 0.057021
H39   H     H_    0.543475 0.587987 0.610873 0.066181
H40   H     H_    0.950955 0.950139 0.825728 0.407969
H41   H     H_    0.962101 0.093270 0.832430 0.397218
H42   H     H_    0.450955 0.450139 0.825728 0.407969
H43   H     H_    0.462101 0.593270 0.832430 0.397218
H44   H     H_    0.865099 0.938141 0.550955 0.247607
H45   H     H_    0.953119 0.973195 0.375244 0.230637
H46   H     H_    0.869981 0.038199 0.579189 0.264713
H47   H     H_    0.365099 0.438141 0.550955 0.247607
H48   H     H_    0.369981 0.538199 0.579189 0.264713
H49   H     H_    0.910624 0.908004 0.481071 0.184868
H50   H     H_    0.886109 0.088034 0.503386 0.176148
H51   H     H_    0.410624 0.408004 0.481071 0.184868
H52   H     H_    0.386109 0.588034 0.503386 0.176148
H53   H     H_    0.099870 0.961839 0.526870 0.223169
H54   H     H_    0.109623 0.035860 0.533872 0.216180
H55   H     H_    0.599870 0.461839 0.526870 0.223169
H56   H     H_    0.956520 0.046958 0.396700 0.247418
H57   H     H_    0.609623 0.535860 0.533872 0.216180
H58   H     H_    0.780069 0.057521 0.879599 0.382472
H59   H     H_    0.609351 0.810363 0.667532 0.357505
H60   H     H_    0.280069 0.557521 0.879599 0.382472
H61   H     H_    0.109351 0.310363 0.667532 0.357505
H62   H     H_    0.936570 0.199598 0.331138 0.364046
H63   H     H_    0.851887 0.942654 0.191694 0.337093
H64   H     H_    0.436570 0.699598 0.331138 0.364046
H65   H     H_    0.351887 0.442654 0.191694 0.337093
H66   H     H_    0.472828 0.834819 0.170867 0.192103
H67   H     H_    0.453119 0.473195 0.375244 0.230637
H68   H     H_    0.471240 0.164656 0.171166 0.191215
H69   H     H_    0.972828 0.334819 0.170867 0.192103
H70   H     H_    0.971240 0.664656 0.171166 0.191215
H71   H     H_    0.664180 0.177662 0.341418 0.387522
H72   H     H_    0.711167 0.865185 0.524148 0.410326
H73   H     H_    0.164180 0.677662 0.341418 0.387522
H74   H     H_    0.211168 0.365185 0.524148 0.410326
H75   H     H_    0.445046 0.088832 0.673776 0.135871
H76   H     H_    0.444831 0.911041 0.673827 0.141427
H77   H     H_    0.945046 0.588832 0.673776 0.135871
H78   H     H_    0.456520 0.546958 0.396700 0.247418
H79   H     H_    0.944831 0.411041 0.673827 0.141427
H80   H     H_    0.264991 0.747509 0.824986 0.175993
N1    N     N_R   0.392140 0.102630 0.941800 -0.056014
N2    N     N_R   0.525160 0.972040 0.206160 -0.134474
N3    N     N_R   0.025160 0.527960 0.206160 -0.129260
N4    N     N_R   0.025160 0.472040 0.206160 -0.134474
N5    N     N_R   0.317870 0.971120 0.792790 -0.059595
N6    N     N_R   0.317870 0.028880 0.792790 -0.060976
N7    N     N_R   0.817870 0.471120 0.792790 -0.059595
N8    N     N_R   0.817870 0.528880 0.792790 -0.060976
N9    N     N_R   0.473480 0.027920 0.793480 -0.050556
N10   N     N_R   0.473480 0.972080 0.793480 -0.051635
N11   N     N_R   0.973480 0.527920 0.793480 -0.050556
N12   N     N_R   0.392140 0.897370 0.941800 -0.052786
N13   N     N_R   0.973480 0.472080 0.793480 -0.051635
N14   N     N_R   0.681610 0.971120 0.207570 -0.058835
N15   N     N_R   0.681610 0.028880 0.207570 -0.052922
N16   N     N_R   0.181610 0.471120 0.207570 -0.058835
N17   N     N_R   0.181610 0.528880 0.207570 -0.052922
N18   N     N_R   0.605410 0.102620 0.056870 -0.051093
N19   N     N_R   0.605410 0.897380 0.056870 -0.042588
N20   N     N_R   0.105410 0.602620 0.056870 -0.051093
N21   N     N_R   0.105410 0.397380 0.056870 -0.042588
N22   N     N_R   0.549680 0.896430 0.944180 -0.065849
N23   N     N_R   0.892140 0.602630 0.941800 -0.056014
N24   N     N_R   0.549680 0.103570 0.944180 -0.070509
N25   N     N_R   0.049680 0.396430 0.944180 -0.065849
N26   N     N_R   0.049680 0.603570 0.944180 -0.070509
N27   N     N_R   0.892140 0.397370 0.941800 -0.052786
N28   N     N_R   0.450890 0.896450 0.057150 -0.049083
N29   N     N_R   0.450890 0.103550 0.057150 -0.044499
N30   N     N_R   0.950890 0.396450 0.057150 -0.049083
N31   N     N_R   0.950890 0.603550 0.057150 -0.044499
N32   N     N_R   0.525160 0.027960 0.206160 -0.129260
Ni1   Ni    Ni4+2 0.433410 0.064680 0.868830 0.233726
Ni2   Ni    Ni4+2 0.433410 0.935320 0.868830 0.234244
Ni3   Ni    Ni4+2 0.933410 0.564680 0.868830 0.233726
Ni4   Ni    Ni4+2 0.933410 0.435320 0.868830 0.234244
Ni5   Ni    Ni4+2 0.565650 0.934380 0.131170 0.307497
Ni6   Ni    Ni4+2 0.565650 0.065620 0.131170 0.302515
Ni7   Ni    Ni4+2 0.065650 0.434380 0.131170 0.307497
Ni8   Ni    Ni4+2 0.065650 0.565620 0.131170 0.302515
O1    O     O_2   0.993025 0.865841 0.741374 -0.259453
O2    O     O_2   0.614746 0.544479 0.859304 -0.224423
O3    O     O_2   0.577773 0.637438 0.780597 -0.307951
O4    O     O_3   0.441788 0.580074 0.759599 -0.439511
O5    O     O_2   0.614739 0.150216 0.698299 -0.255933
O6    O     O_2   0.777330 0.137925 0.754546 -0.218216
O7    O     O_3   0.712414 0.067406 0.827468 -0.539653
O8    O     O_2   0.715509 0.925643 0.823753 -0.271439
O9    O     O_2   0.779521 0.861058 0.755791 -0.236346
O10   O     O_3   0.603909 0.849031 0.686131 -0.536998
O11   O     O_2   0.114739 0.650216 0.698299 -0.255933
O12   O     O_2   0.121873 0.931111 0.854972 -0.251692
O13   O     O_2   0.277330 0.637925 0.754546 -0.218216
O14   O     O_3   0.212414 0.567406 0.827468 -0.539653
O15   O     O_2   0.215509 0.425643 0.823753 -0.271439
O16   O     O_2   0.279521 0.361058 0.755791 -0.236346
O17   O     O_3   0.103909 0.349031 0.686131 -0.536998
O18   O     O_2   0.890973 0.077652 0.193841 -0.273351
O19   O     O_2   0.023604 0.141255 0.257585 -0.237706
O20   O     O_3   0.911911 0.161048 0.316692 -0.572272
O21   O     O_2   0.915013 0.851019 0.303339 -0.337077
O22   O     O_2   0.026779 0.854917 0.254043 -0.214804
O23   O     O_3   0.947914 0.965059 0.762415 -0.449956
O24   O     O_3   0.899851 0.932446 0.178314 -0.468743
O25   O     O_2   0.390973 0.577652 0.193841 -0.273351
O26   O     O_2   0.523604 0.641254 0.257585 -0.237706
O27   O     O_3   0.411911 0.661049 0.316692 -0.572272
O28   O     O_2   0.415013 0.351019 0.303339 -0.337077
O29   O     O_2   0.526779 0.354917 0.254043 -0.214804
O30   O     O_3   0.399852 0.432446 0.178314 -0.468742
O31   O     O_2   0.523413 0.145607 0.363733 -0.262298
O32   O     O_2   0.676459 0.098830 0.478836 -0.239617
O33   O     O_3   0.635081 0.143004 0.299347 -0.608534
O34   O     O_2   0.114746 0.044478 0.859304 -0.224423
O35   O     O_2   0.521971 0.854406 0.362227 -0.291368
O36   O     O_2   0.631327 0.860887 0.307494 -0.348762
O37   O     O_3   0.684319 0.902369 0.493398 -0.512488
O38   O     O_2   0.023413 0.645607 0.363733 -0.262298
O39   O     O_2   0.176459 0.598830 0.478836 -0.239617
O40   O     O_3   0.135081 0.643003 0.299347 -0.608534
O41   O     O_2   0.021971 0.354406 0.362227 -0.291368
O42   O     O_2   0.131327 0.360887 0.307494 -0.348762
O43   O     O_3   0.184319 0.402369 0.493398 -0.512488
O44   O     O_2   0.077773 0.137438 0.780597 -0.307951
O45   O     O_3   0.941788 0.080074 0.759599 -0.439510
O46   O     O_2   0.493025 0.365841 0.741374 -0.259453
O47   O     O_2   0.621873 0.431111 0.854972 -0.251692
O48   O     O_3   0.447914 0.465059 0.762415 -0.449956
S1    S     S_3+6 0.023337 0.925561 0.753216 0.016580
S2    S     S_3+6 0.925465 0.864949 0.213299 -0.016650
S3    S     S_3+6 0.421572 0.637496 0.218120 -0.045042
S4    S     S_3+6 0.425465 0.364949 0.213299 -0.016650
S5    S     S_3+6 0.594606 0.109806 0.363304 -0.038953
S6    S     S_3+6 0.593864 0.890323 0.363543 -0.055038
S7    S     S_3+6 0.094606 0.609806 0.363304 -0.038953
S8    S     S_3+6 0.093864 0.390323 0.363543 -0.055038
S9    S     S_3+6 0.041360 0.078855 0.763946 0.012865
S10   S     S_3+6 0.523337 0.425561 0.753216 0.016580
S11   S     S_3+6 0.541360 0.578855 0.763946 0.012865
S12   S     S_3+6 0.712814 0.133387 0.791092 -0.016860
S13   S     S_3+6 0.714096 0.866459 0.790973 -0.027363
S14   S     S_3+6 0.212814 0.633387 0.791092 -0.016860
S15   S     S_3+6 0.214096 0.366459 0.790973 -0.027363
S16   S     S_3+6 0.921572 0.137496 0.218120 -0.045042

loop_
_geom_bond_atom_site_label_1
_geom_bond_atom_site_label_2
_ccdc_geom_bond_type
C44   C49   A    
C58   C62   A    
C32   H69   S    
C24   N23   A    
C37   C43   A    
C19   H44   S    
C31   C85   A    
C66   H13   S    
C99   N15   A    
C25   H55   S    
C17   C21   S    
C33   N31   A    
C24   H23   S    
O11   S14   D    
C11   C47   S    
C16   H37   S    
N19   Ni5   S    
O30   S4    S    
C12   C48   S    
O36   S6    D    
C42   S13   S    
C57   H28   S    
O23   S1    S    
C66   C80   A    
C3    H26   S    
C40   C62   A    
C4    N25   A    
C39   C41   A    
N26   Ni3   S    
O21   S2    D    
C15   C19   S    
C7    C96   A    
C12   C68   A    
C29   C36   S    
O37   S6    S    
N3    Ni8   S    
C13   N12   A    
N32   Ni6   S    
C82   N6    A    
O24   S2    S    
N29   Ni6   S    
O22   S2    D    
C96   N11   A    
N23   Ni3   S    
C22   C29   S    
C8    C99   A    
H42   O48   S    
C13   H12   S    
C15   S1    S    
O34   S9    D    
C97   H79   S    
C52   S3    S    
O3    S11   D    
C26   C92   S    
C65   C70   A    
C83   C93   A    
N6    Ni1   S    
O48   S10   S    
C77   N4    A    
C82   C92   A    
N5    Ni2   S    
C98   N14   A    
C6    C78   S    
N1    N29   A    
C67   C72   A    
C23   C26   S    
C97   N13   A    
N21   N25   A    
H64   O27   S    
C8    C98   A    
C65   H11   S    
O14   S14   S    
C95   N10   A    
N11   Ni3   S    
H74   O43   S    
C81   C92   A    
N4    Ni7   S    
C77   C91   A    
N25   Ni4   S    
C79   N21   A    
O28   S4    D    
C13   C86   A    
C10   C46   A    
N19   N22   A    
C2    H32   S    
O39   S7    D    
C17   H38   S    
C19   H49   S    
C96   H77   S    
C30   C86   A    
C76   N3    A    
C50   C56   A    
O7    S12   S    
C58   H8    S    
C17   S10   S    
C23   H54   S    
C9    C29   S    
C94   H75   S    
C34   H45   S    
C53   S4    S    
C40   C42   A    
O13   S14   D    
C5    N26   A    
C28   C34   S    
C65   C80   A    
H60   O14   S    
C55   C60   A    
C57   N19   A    
C1    C85   A    
N12   N28   A    
O29   S4    D    
N23   N31   A    
O27   S3    S    
N18   Ni6   S    
O16   S15   D    
C18   H39   S    
C10   C45   S    
C33   H70   S    
C35   H34   S    
C81   N5    A    
N8    Ni3   S    
C52   C54   A    
H62   O20   S    
N14   Ni5   S    
C63   C67   A    
C54   C59   A    
C100  N16   A    
N2    Ni5   S    
C16   C26   S    
C39   C61   A    
O42   S8    D    
C22   H52   S    
C84   C93   A    
C46   N18   A    
C71   H17   S    
C55   H6    S    
H65   O30   S    
C17   C27   S    
H59   O10   S    
C74   N32   A    
C46   H27   S    
C36   H78   S    
C73   C91   S    
H73   O40   S    
O26   S3    D    
H43   O4    S    
O41   S8    D    
C5    H35   S    
C1    N1    A    
C15   C26   S    
C47   C51   A    
C15   H36   S    
O35   S6    D    
C6    C94   A    
C84   H21   S    
C64   C69   A    
C79   H30   S    
C21   C29   S    
C81   H18   S    
C36   H67   S    
O46   S10   D    
N30   Ni7   S    
C100  H25   S    
C76   S7    S    
C50   S16   S    
H41   O45   S    
C83   H20   S    
C63   H9    S    
C69   C72   A    
C95   H76   S    
N11   N13   A    
N3    N4    A    
C38   C44   A    
C16   S9    S    
C3    C9    A    
C61   C88   S    
C76   C91   A    
C40   H4    S    
C43   S14   S    
C32   N30   A    
C35   C88   A    
O2    S11   D    
C64   H10   S    
C66   C71   A    
C31   N29   A    
C27   C93   S    
O9    S13   D    
N31   Ni8   S    
C16   C20   S    
C23   C34   S    
C30   N28   A    
H71   O33   S    
C70   C73   A    
N2    N32   A    
O44   S9    D    
C2    N24   A    
H63   O24   S    
N12   Ni2   S    
C51   C58   A    
O6    S12   D    
C14   C79   A    
N22   Ni2   S    
C19   C28   S    
N10   Ni2   S    
C30   H66   S    
C37   C59   A    
N9    Ni1   S    
N27   N30   A    
C38   C60   A    
C90   H31   S    
N9    N10   A    
C35   N27   A    
C83   N7    A    
C22   H48   S    
C6    C95   A    
C9    C100  A    
C23   H53   S    
C75   S6    S    
C25   H57   S    
N20   Ni8   S    
C20   H46   S    
C84   N8    A    
C32   C88   A    
C53   C55   A    
N17   Ni8   S    
C21   H47   S    
N16   Ni7   S    
O1    S1    D    
C74   C89   A    
N13   Ni4   S    
C71   C73   A    
O32   S5    D    
N28   Ni5   S    
C98   H22   S    
C37   H80   S    
N7    Ni4   S    
C69   H15   S    
N20   N26   A    
C7    C97   A    
C54   H5    S    
O25   S3    D    
O38   S7    D    
C18   C22   S    
N21   Ni7   S    
C64   C78   A    
C67   H14   S    
C18   C27   S    
O31   S5    D    
N16   N17   A    
C60   C85   S    
C39   H3    S    
C56   H7    S    
C34   H56   S    
C25   C27   S    
C74   S5    S    
C20   C28   S    
C62   C87   S    
O47   S10   D    
O8    S13   D    
C68   N20   A    
H40   O23   S    
C43   C48   A    
C33   C87   A    
C59   C86   S    
N7    N8    A    
C38   H2    S    
C41   S12   S    
O33   S5    S    
O10   S13   S    
N18   N24   A    
C72   C89   S    
O4    S11   S    
C11   C90   A    
O45   S9    S    
N5    N6    A    
C1    H1    S    
C45   C50   A    
C49   C53   A    
C4    H33   S    
N24   Ni1   S    
N27   Ni4   S    
C3    N17   A    
O5    S12   D    
C20   H50   S    
N14   N15   A    
O19   S16   D    
C82   H19   S    
C42   C47   A    
C21   H51   S    
C4    C14   A    
C68   H29   S    
O17   S15   S    
C24   C87   A    
O15   S15   D    
C94   N9    A    
O18   S16   D    
C5    C12   A    
C75   C89   A    
C25   C36   S    
C18   S11   S    
C14   C49   S    
C48   C52   A    
H61   O17   S    
C31   H68   S    
C44   S15   S    
C8    C28   S    
C77   S8    S    
O43   S8    S    
O20   S16   S    
C51   S2    S    
C70   H16   S    
O40   S7    S    
C41   C45   A    
O12   S1    D    
C99   H24   S    
N1    Ni1   S    
H72   O37   S    
C11   C57   A    
C75   N2    A    
H58   O7    S    
C56   C61   A    
N15   Ni6   S    
C7    C80   S    
C90   N22   A    
C63   C78   A    
C2    C10   A    
