data_mof_unit_4273.cif
_audit_creation_date              2013-03-05T16:06:56-0500
_audit_creation_method            fapswitch 2.2
_symmetry_space_group_name_H-M    P1
_symmetry_Int_Tables_number       1
_space_group_crystal_system       triclinic
_cell_length_a                    14.523395
_cell_length_b                    16.148217
_cell_length_c                    6.93823
_cell_angle_alpha                 89.985695
_cell_angle_beta                  98.801281
_cell_angle_gamma                 89.993453
_cell_volume                      1608.04137518

loop_
_atom_site_label
_atom_site_type_symbol
_atom_site_description
_atom_site_fract_x
_atom_site_fract_y
_atom_site_fract_z
_atom_type_partial_charge
O1    O     O_R   0.584990 0.413650 0.534420 -0.595832
O2    O     O_R   0.584990 0.586350 0.534420 -0.595765
O3    O     O_R   0.596190 0.585230 0.208380 -0.595995
O4    O     O_R   0.596190 0.414770 0.208380 -0.595217
O5    O     O_R   0.415010 0.586420 0.976930 -0.603966
O6    O     O_R   0.415010 0.413580 0.976930 -0.603900
C1    C     C_R   0.618759 0.614305 0.384071 0.952348
C2    C     C_R   0.618777 0.385705 0.384117 0.949404
O7    O     O_3   0.440560 0.500000 0.319140 -0.265576
V1    V     V_3+5 0.511030 0.500000 0.068070 1.170553
O8    O     O_R   0.403810 0.414840 0.643540 -0.584700
O9    O     O_R   0.403810 0.585160 0.643540 -0.584491
C3    C     C_R   0.381504 0.386039 0.805783 1.023862
C4    C     C_R   0.381474 0.613946 0.805753 1.024429
V2    V     V_3+5 0.488970 0.500000 0.560620 1.188872
O10   O     O_3   0.559440 0.500000 0.859420 -0.283580
H1    H     H_    0.187654 0.805391 0.807014 0.160187
H2    H     H_    0.188027 0.194374 0.807040 0.164372
H3    H     H_    0.319176 0.692767 0.101595 0.196941
H4    H     H_    0.319320 0.307084 0.101656 0.197097
C5    C     C_2   0.312080 0.681613 0.796097 -0.486293
C6    C     C_2   0.312192 0.318327 0.796162 -0.481666
C7    C     C_2   0.287754 0.715360 0.959093 0.016699
C8    C     C_2   0.287929 0.284502 0.959155 0.005047
C9    C     C_2   0.194680 0.818063 0.112669 0.467821
C10   C     C_2   0.194686 0.181909 0.112661 0.473149
C11   C     C_2   0.218964 0.783412 0.950229 -0.256126
C12   C     C_2   0.219206 0.216415 0.950257 -0.226957
H5    H     H_    0.280917 0.704508 0.653700 0.229995
H6    H     H_    0.281043 0.295452 0.653770 0.230165
C13   C     C_R   0.756122 0.685763 0.583900 0.162439
C14   C     C_R   0.757002 0.314630 0.582427 0.130376
C15   C     C_R   0.690352 0.680953 0.414083 -0.207543
C16   C     C_R   0.690229 0.318926 0.414066 -0.198689
C17   C     C_R   0.697445 0.740748 0.268469 -0.161257
C18   C     C_R   0.696470 0.258584 0.269169 -0.129625
H7    H     H_    0.649555 0.739155 0.132878 0.118656
H8    H     H_    0.648152 0.259955 0.134096 0.111050
C19   C     C_R   0.761849 0.806935 0.302126 -0.073596
C20   C     C_R   0.760862 0.192321 0.302785 -0.085741
H9    H     H_    0.761797 0.853971 0.191042 0.115056
H10   H     H_    0.760394 0.145022 0.192201 0.107575
C21   C     C_R   0.821590 0.815084 0.481893 -0.252331
C22   C     C_R   0.821352 0.184676 0.481790 -0.252409
C23   C     C_R   0.820372 0.750310 0.615939 0.124280
C24   C     C_R   0.820875 0.249991 0.614562 0.160553
C25   C     C_3   0.815809 0.751175 0.829306 0.174431
C26   C     C_3   0.818958 0.250642 0.829341 0.179363
C27   C     C_3   0.745190 0.680594 0.793803 -0.584412
C28   C     C_3   0.748700 0.321622 0.793359 -0.578882
H11   H     H_    0.787114 0.809872 0.878974 0.061242
H12   H     H_    0.790837 0.192758 0.884204 0.048842
H13   H     H_    0.674034 0.698783 0.817615 0.173717
H14   H     H_    0.677998 0.304516 0.822216 0.177892
H15   H     H_    0.770076 0.620460 0.860430 0.240276
H16   H     H_    0.775122 0.382068 0.855697 0.237005
O11   O     O_R   0.921430 0.915960 0.371040 -0.562797
O12   O     O_R   0.921430 0.084040 0.371040 -0.583139
O13   O     O_R   0.910450 0.087500 0.697310 -0.605499
O14   O     O_R   0.910450 0.912500 0.697310 -0.607557
O15   O     O_R   0.091710 0.087460 0.928430 -0.618339
O16   O     O_R   0.091710 0.912540 0.928430 -0.625948
C29   C     C_R   0.887978 0.114326 0.519370 0.961242
C30   C     C_R   0.888073 0.885579 0.519428 0.952560
O17   O     O_3   0.065970 0.000000 0.586140 -0.271490
V3    V     V_3+5 0.995640 1.000000 0.837400 1.205203
O18   O     O_R   0.103020 0.915700 0.261710 -0.544212
O19   O     O_R   0.103020 0.084300 0.261710 -0.551596
C31   C     C_R   0.125419 0.885977 0.100418 0.899307
C32   C     C_R   0.125311 0.114100 0.100389 0.877669
V4    V     V_3+5 0.017940 0.000000 0.344880 1.255514
O20   O     O_3   0.947330 0.000000 0.046180 -0.277782
F1    F     F_    0.233466 0.790364 0.292131 -0.702723
F2    F     F_    0.233294 0.209697 0.292122 -0.703489
N1    N     N_R   0.904216 0.726178 0.945278 0.260573
O21   O     O_R   0.949094 0.661226 0.898358 -0.357517
O22   O     O_R   0.940213 0.770791 0.093782 -0.396772
N2    N     N_R   0.907612 0.276700 0.942653 0.263493
O23   O     O_R   0.984720 0.273018 0.868809 -0.391315
O24   O     O_R   0.910898 0.297436 0.124692 -0.364526

loop_
_geom_bond_atom_site_label_1
_geom_bond_atom_site_label_2
_geom_bond_distance
_ccdc_geom_bond_type
O15   C32   1.291821 A    
O1    C2    1.299504 A    
C17   C19   1.416085 A    
O2    C1    1.299560 A    
O4    C2    1.300717 A    
C19   H9    1.081875 S    
C28   H14   1.110723 S    
C4    C5    1.480962 S    
C17   H7    1.081313 S    
O3    C1    1.300715 A    
O13   V3    2.025565 S    
N2    O24   1.300548 A    
O12   V4    1.979096 S    
V2    O10   2.167048 S    
C26   N2    1.464059 S    
C15   C17   1.412474 A    
O8    V2    1.992378 S    
O15   V3    2.017805 S    
V3    O20   1.703418 S    
H4    C8    1.086570 S    
O17   V4    1.712094 S    
C13   C15   1.400833 A    
O1    V2    1.999846 S    
C7    C11   1.480011 S    
O7    V1    2.151176 S    
O18   V4    1.982713 S    
C20   H10   1.082038 S    
O14   V3    2.026101 S    
C1    C15   1.488924 S    
C13   C27   1.491261 S    
O5    V1    2.005333 S    
C22   C24   1.401259 A    
C21   C30   1.489785 S    
C23   C25   1.492038 S    
C22   C29   1.489055 S    
C24   C26   1.494739 S    
O16   V3    2.017362 S    
H1    C11   1.087023 S    
C18   C20   1.416636 A    
H2    C12   1.087029 S    
C25   C27   1.527989 S    
N2    O23   1.302203 A    
C19   C21   1.412350 A    
C27   H15   1.111695 S    
C5    H5    1.086548 S    
C28   H16   1.112028 S    
O16   C31   1.291721 A    
O18   C31   1.303910 A    
C14   C16   1.401104 A    
H3    C7    1.086571 S    
N1    O21   1.302259 A    
C21   C23   1.401403 A    
O9    V2    1.992380 S    
C20   C22   1.412634 A    
C2    C16   1.488814 S    
O11   V4    1.979254 S    
O2    V2    2.000004 S    
N1    O22   1.299834 A    
C14   C28   1.491035 S    
O5    C4    1.291520 A    
O9    C4    1.303820 A    
C5    C7    1.350286 D    
C10   C32   1.481718 S    
C6    C8    1.350216 D    
O13   C29   1.301837 A    
C9    C31   1.481663 S    
O4    V1    2.000535 S    
O11   C30   1.299152 A    
O12   C29   1.299061 A    
C6    H6    1.086554 S    
C14   C24   1.391449 A    
C8    C12   1.479967 S    
O6    V1    2.005775 S    
C25   H11   1.111248 S    
C9    C11   1.352641 D    
C10   C12   1.352593 D    
O14   C30   1.302068 A    
C18   H8    1.081645 S    
O7    V2    1.714922 S    
C25   N1    1.463741 S    
V4    O20   2.167099 S    
O3    V1    2.001062 S    
V1    O10   1.703382 S    
O6    C3    1.291561 A    
O8    C3    1.303751 A    
O19   V4    1.982708 S    
C27   H13   1.110730 S    
C26   C28   1.529354 S    
C10   F2    1.361184 S    
C16   C18   1.413057 A    
C3    C6    1.480917 S    
C9    F1    1.361178 S    
C26   H12   1.110348 S    
O19   C32   1.303770 A    
O17   V3    2.151122 S    
C13   C23   1.394060 A    
