data_mof_unit_1588.cif
_audit_creation_date              2012-12-10T17:07:50-0500
_audit_creation_method            fapswitch 2.2
_symmetry_space_group_name_H-M    P1
_symmetry_Int_Tables_number       1
_space_group_crystal_system       triclinic
_cell_length_a                    10.687545
_cell_length_b                    10.685379
_cell_length_c                    10.046058
_cell_angle_alpha                 90.577946
_cell_angle_beta                  90.354579
_cell_angle_gamma                 90.349221
_cell_volume                      1147.16244986

loop_
_atom_site_label
_atom_site_type_symbol
_atom_type_description
_atom_site_fract_x
_atom_site_fract_y
_atom_site_fract_z
_atom_type_partial_charge
C1    C     C_R   0.493572 0.262172 0.498975 0.969684
C2    C     C_3   0.877493 0.485575 0.503503 0.007183
C3    C     C_3   0.927295 0.622569 0.495774 -0.506018
C4    C     C_3   0.925365 0.408795 0.382415 -0.477771
C5    C     C_2   0.435413 0.927739 0.400509 0.389532
C6    C     C_2   0.498377 0.870030 0.497576 -0.487772
C7    C     C_2   0.463684 0.061272 0.385671 0.404895
C8    C     C_2   0.460934 0.131869 0.496939 -0.526496
C9    C     C_2   0.491222 0.600383 0.926139 -0.145076
C10   C     C_2   0.499790 0.601035 0.075772 -0.167830
C11   C     C_R   0.257605 0.494456 0.499519 0.884691
C12   C     C_R   0.498337 0.737400 0.500413 1.020004
C13   C     C_R   0.741513 0.491361 0.500704 0.891471
C14   C     C_3   0.070688 0.426861 0.630819 0.222720
C15   C     C_3   0.925769 0.422748 0.634185 0.280474
C16   C     C_3   0.071018 0.625313 0.499567 -0.432456
C17   C     C_3   0.068041 0.422614 0.370135 0.394289
C18   C     C_3   0.120522 0.489131 0.499040 -0.078354
H1    H     H_    0.095278 0.495787 0.710847 0.096120
H2    H     H_    0.880018 0.440148 0.288623 0.214365
H3    H     H_    0.107317 0.679029 0.413457 0.258406
H4    H     H_    0.894225 0.666655 0.402026 0.218815
H5    H     H_    0.562484 0.919009 0.564887 0.102399
H6    H     H_    0.430987 0.092062 0.590846 0.133906
H7    H     H_    0.476407 0.689547 0.878166 0.162794
H8    H     H_    0.523561 0.418355 0.896697 0.161381
H9    H     H_    0.499097 0.691459 0.125628 0.172108
H10   H     H_    0.499192 0.415508 0.101182 0.181246
H11   H     H_    0.895437 0.482565 0.720153 0.060235
H12   H     H_    0.103595 0.676387 0.590509 0.156791
H13   H     H_    0.890665 0.679518 0.580234 0.170110
H14   H     H_    0.112115 0.329172 0.359270 0.008671
H15   H     H_    0.900363 0.308707 0.393234 0.151751
N1    N     N_2   0.501360 0.501330 0.852150 -0.197325
N2    N     N_2   0.501390 0.501360 0.147810 -0.204907
O1    O     O_R   0.499980 0.319060 0.613040 -0.638523
O2    O     O_R   0.500020 0.319100 0.386900 -0.567932
O3    O     O_R   0.314770 0.499960 0.613070 -0.604078
O4    O     O_R   0.314820 0.500000 0.386930 -0.584495
O5    O     O_R   0.499980 0.680900 0.613100 -0.632493
O6    O     O_R   0.500020 0.680940 0.386960 -0.580129
O7    O     O_R   0.685180 0.500000 0.613070 -0.650373
O8    O     O_R   0.685230 0.500040 0.386930 -0.626249
Zn1   Zn    Zn3+2 0.499970 0.499970 0.650990 0.918746
Zn2   Zn    Zn3+2 0.500030 0.500030 0.349010 0.959081
O9    O     O_3   0.343398 0.860851 0.328982 -0.646792
C19   C     C_3   0.312403 0.910039 0.203269 0.116451
H16   H     H_    0.279435 0.829778 0.140886 0.162766
H17   H     H_    0.393810 0.948441 0.149195 0.144531
C20   C     C_3   0.204862 0.003593 0.213771 -0.347814
H18   H     H_    0.127294 0.961060 0.271218 0.233512
H19   H     H_    0.236519 0.090055 0.266472 0.217376
C21   C     C_3   0.155958 0.037858 0.076104 -0.991633
H20   H     H_    0.233572 0.073567 0.013831 0.274503
H21   H     H_    0.083605 0.111290 0.085792 0.263943
H22   H     H_    0.113163 0.954674 0.026196 0.265357
O10   O     O_3   0.508467 0.108780 0.266521 -0.634983
C22   C     C_3   0.620384 0.047287 0.229395 0.059055
H23   H     H_    0.635805 0.065296 0.122247 0.155026
H24   H     H_    0.614752 0.943591 0.237863 0.123467
C23   C     C_3   0.732241 0.099168 0.309040 -0.328730
H25   H     H_    0.737424 0.201748 0.294287 0.234486
H26   H     H_    0.719331 0.081681 0.416926 0.212457
C24   C     C_3   0.854357 0.038687 0.265305 -1.004554
H27   H     H_    0.853412 0.937376 0.289073 0.271000
H28   H     H_    0.933946 0.084042 0.318865 0.258024
H29   H     H_    0.867987 0.049873 0.156620 0.277698
O11   O     O_3   0.131443 0.316598 0.675911 -0.633944
C25   C     C_3   0.131119 0.213779 0.586819 0.170376
H30   H     H_    0.214033 0.220163 0.521308 0.096007
H31   H     H_    0.045624 0.206881 0.524668 0.167757
C26   C     C_3   0.140629 0.094567 0.669007 -0.321250
H32   H     H_    0.231472 0.094085 0.723477 0.214824
H33   H     H_    0.064482 0.092831 0.743544 0.235835
C27   C     C_3   0.129784 0.977213 0.582458 -1.000159
H34   H     H_    0.036690 0.972383 0.532810 0.270615
H35   H     H_    0.141405 0.893457 0.645585 0.266884
H36   H     H_    0.203833 0.977314 0.506209 0.289603
O12   O     O_3   0.881066 0.297054 0.644420 -0.653462
C28   C     C_3   0.803178 0.277738 0.756330 0.119900
H37   H     H_    0.752468 0.187671 0.740741 0.139157
H38   H     H_    0.729642 0.349313 0.765355 0.185968
C29   C     C_3   0.877132 0.269965 0.887213 -0.389660
H39   H     H_    0.919171 0.175673 0.896262 0.213633
H40   H     H_    0.953504 0.340504 0.889921 0.235143
C30   C     C_3   0.791282 0.293978 0.005573 -1.017533
H41   H     H_    0.841037 0.273274 0.099512 0.267874
H42   H     H_    0.706633 0.233701 0.998366 0.265580
H43   H     H_    0.762037 0.393573 0.008056 0.270141
O13   O     O_3   0.094358 0.496816 0.256967 -0.604397
C31   C     C_3   0.092982 0.424846 0.137843 0.051099
H44   H     H_    0.046743 0.481380 0.059677 0.167565
H45   H     H_    0.040364 0.335068 0.145034 0.123115
C32   C     C_3   0.226870 0.398507 0.097127 -0.358818
H46   H     H_    0.277215 0.488903 0.101120 0.261423
H47   H     H_    0.270150 0.332295 0.168322 0.236914
C33   C     C_3   0.235854 0.346114 0.956228 -0.894712
H48   H     H_    0.163652 0.273185 0.937439 0.277429
H49   H     H_    0.329316 0.303968 0.940792 0.253652
H50   H     H_    0.223849 0.423271 0.884540 0.294706

loop_
_geom_bond_atom_site_label_1
_geom_bond_atom_site_label_2
_ccdc_geom_bond_type
C10   H9    S    
C11   C18   S    
C16   H3    S    
C11   O3    A    
C1    C8    S    
C14   C18   S    
C2    C4    S    
C33   H48   S    
O13   C31   S    
C9    H7    S    
C7    C8    D    
C19   H17   S    
C21   H20   S    
C28   C29   S    
C6    C12   S    
C5    C6    D    
C11   O4    A    
C30   H42   S    
C22   H24   S    
C25   H31   S    
C23   H26   S    
C2    C13   S    
C4    H15   S    
H8    N1    S    
C15   O12   S    
C19   H16   S    
H10   N2    S    
O11   C25   S    
C20   H19   S    
C10   N2    D    
C9    C10   S    
C23   H25   S    
C1    O2    A    
O4    Zn2   S    
C22   C23   S    
C25   H30   S    
O7    Zn1   S    
C26   C27   S    
C13   O7    A    
C33   H49   S    
C15   H11   S    
C19   C20   S    
C21   H21   S    
C20   C21   S    
C24   H29   S    
N1    Zn1   S    
C26   H33   S    
C31   H44   S    
C5    C7    S    
C30   H41   S    
C28   H37   S    
C32   C33   S    
C20   H18   S    
C22   H23   S    
C24   H28   S    
C12   O5    A    
C23   C24   S    
C3    H13   S    
C27   H34   S    
O3    Zn1   S    
C12   O6    A    
C31   H45   S    
O8    Zn2   S    
C29   H39   S    
C17   C18   S    
C32   H47   S    
C2    C15   S    
C27   H35   S    
C4    C17   S    
C28   H38   S    
C29   H40   S    
C9    N1    D    
O1    Zn1   S    
O2    Zn2   S    
N2    Zn2   S    
C13   O8    A    
C33   H50   S    
C21   H22   S    
O9    C19   S    
O6    Zn2   S    
C14   H1    S    
C17   O13   S    
C25   C26   S    
C26   H32   S    
C30   H43   S    
C5    O9    S    
C24   H27   S    
C2    C3    S    
C31   C32   S    
O10   C22   S    
C6    H5    S    
C8    H6    S    
C32   H46   S    
C27   H36   S    
O12   C28   S    
C4    H2    S    
O5    Zn1   S    
C29   C30   S    
C16   C18   S    
C17   H14   S    
C14   O11   S    
C14   C15   S    
C3    H4    S    
C16   H12   S    
C7    O10   S    
C3    C16   S    
C1    O1    A    
