data_mof_unit_593.cif
_audit_creation_date              2012-12-10T18:25:14-0500
_audit_creation_method            fapswitch 2.2
_symmetry_space_group_name_H-M    P1
_symmetry_Int_Tables_number       1
_space_group_crystal_system       triclinic
_cell_length_a                    18.775201
_cell_length_b                    18.717858
_cell_length_c                    18.913799
_cell_angle_alpha                 109.574694
_cell_angle_beta                  109.558079
_cell_angle_gamma                 109.221953
_cell_volume                      5120.46233461

loop_
_atom_site_label
_atom_site_type_symbol
_atom_type_description
_atom_site_fract_x
_atom_site_fract_y
_atom_site_fract_z
_atom_type_partial_charge
C1    C     C_R   0.382396 0.501544 0.381364 0.794110
C2    C     C_R   0.780960 0.827830 0.830180 -0.190153
C3    C     C_R   0.330696 0.306361 0.789092 -0.111181
C4    C     C_R   0.076643 0.325801 0.817010 -0.252426
C5    C     C_R   0.996862 0.313642 0.811323 -0.079216
C6    C     C_R   0.918465 0.236888 0.742500 -0.003346
C7    C     C_R   0.921664 0.175130 0.679205 -0.244282
C8    C     C_R   0.001444 0.187581 0.685031 -0.066506
C9    C     C_R   0.079956 0.262718 0.755222 -0.006313
C10   C     C_R   0.784179 0.149981 0.741379 -0.137322
C11   C     C_R   0.703183 0.134251 0.734103 -0.146805
C12   C     C_R   0.670006 0.187770 0.719146 -0.114488
C13   C     C_R   0.821188 0.824672 0.576765 -0.118678
C14   C     C_R   0.717220 0.256470 0.710539 -0.109599
C15   C     C_R   0.798155 0.272314 0.717752 -0.124385
C16   C     C_R   0.832502 0.219743 0.734055 0.129125
C17   C     C_R   0.813389 0.812484 0.497007 -0.072853
C18   C     C_R   0.739448 0.739548 0.418763 0.000163
C19   C     C_R   0.678925 0.676414 0.423243 -0.250893
C20   C     C_R   0.687439 0.687662 0.503022 -0.095916
C21   C     C_R   0.757870 0.764172 0.580809 0.028949
C22   C     C_R   0.641316 0.711041 0.272642 -0.152031
C23   C     C_R   0.623095 0.695977 0.189375 -0.134403
C24   C     C_R   0.684910 0.695941 0.163970 -0.121533
C25   C     C_R   0.620656 0.619366 0.502147 0.780722
C26   C     C_R   0.765091 0.711245 0.221900 -0.124788
C27   C     C_R   0.783672 0.726905 0.305404 -0.103516
C28   C     C_R   0.722042 0.726853 0.331578 0.119810
C29   C     C_R   0.445626 0.810879 0.513659 -0.142715
C30   C     C_R   0.377453 0.727132 0.447356 -0.145630
C31   C     C_R   0.393591 0.668771 0.394438 0.130697
C32   C     C_R   0.478599 0.695703 0.408202 -0.114005
C33   C     C_R   0.546419 0.779829 0.474072 -0.136064
C34   C     C_R   0.530022 0.837255 0.526952 -0.128127
C35   C     C_R   0.254956 0.578267 0.255456 -0.246694
C36   C     C_R   0.621239 0.502037 0.618454 0.780538
C37   C     C_R   0.185922 0.498040 0.183516 -0.065452
C38   C     C_R   0.181858 0.419180 0.176361 -0.005972
C39   C     C_R   0.247790 0.422576 0.241971 -0.254961
C40   C     C_R   0.316614 0.502843 0.314439 -0.074246
C41   C     C_R   0.320620 0.581781 0.321480 -0.009383
C42   C     C_R   0.053684 0.272662 0.111790 -0.150093
C43   C     C_R   0.987483 0.190400 0.040800 -0.132018
C44   C     C_R   0.978789 0.167150 0.958794 -0.101271
C45   C     C_R   0.036301 0.226125 0.947662 -0.123275
C46   C     C_R   0.101966 0.308925 0.018261 -0.131169
C47   C     C_R   0.380184 0.381023 0.499060 0.798063
C48   C     C_R   0.110996 0.332705 0.100841 0.126233
C49   C     C_R   0.248668 0.537980 0.602221 -0.178060
C50   C     C_R   0.257907 0.464987 0.593853 -0.127122
C51   C     C_R   0.233658 0.400151 0.512432 0.103306
C52   C     C_R   0.198896 0.408203 0.439251 -0.175156
C53   C     C_R   0.187720 0.480612 0.447109 0.163453
C54   C     C_R   0.213852 0.545969 0.529272 -0.130313
C55   C     C_R   0.178335 0.255597 0.500887 -0.254470
C56   C     C_R   0.185278 0.182348 0.496570 -0.070106
C57   C     C_R   0.256175 0.174248 0.492958 0.006253
C58   C     C_R   0.719952 0.834410 0.769936 -0.141094
C59   C     C_R   0.318666 0.239865 0.492725 -0.241649
C60   C     C_R   0.312402 0.313819 0.498216 -0.079087
C61   C     C_R   0.242319 0.322533 0.503781 0.000949
C62   C     C_R   0.332459 0.105459 0.556013 -0.161623
C63   C     C_R   0.344185 0.033455 0.548889 0.158141
C64   C     C_R   0.288873 0.953368 0.470754 -0.142685
C65   C     C_R   0.222170 0.945080 0.401420 -0.168791
C66   C     C_R   0.209951 0.016477 0.409176 -0.149722
C67   C     C_R   0.265359 0.097152 0.486370 0.100253
C68   C     C_R   0.774639 0.506219 0.606241 -0.138458
C69   C     C_R   0.713750 0.813756 0.689330 -0.147020
C70   C     C_R   0.843773 0.501291 0.597129 -0.084170
C71   C     C_R   0.902317 0.491457 0.655816 -0.104878
C72   C     C_R   0.893175 0.488389 0.725014 -0.168485
C73   C     C_R   0.824664 0.495291 0.736950 0.096842
C74   C     C_R   0.762629 0.501282 0.674809 0.113316
C75   C     C_R   0.691328 0.503638 0.683977 -0.098987
C76   C     C_R   0.683790 0.502713 0.754727 -0.211005
C77   C     C_R   0.744950 0.497989 0.815995 -0.235311
C78   C     C_R   0.815504 0.495030 0.808364 -0.118068
C79   C     C_R   0.998925 0.879574 0.381603 0.792186
C80   C     C_R   0.766979 0.784015 0.666980 -0.035463
C81   C     C_R   0.880992 0.879837 0.498340 0.778922
C82   C     C_R   0.000924 0.119831 0.618576 0.790936
C83   C     C_R   0.118755 0.116911 0.498224 0.799157
C84   C     C_R   0.998296 0.380858 0.879654 0.781535
C85   C     C_R   0.118808 0.498843 0.117672 0.788305
C86   C     C_R   0.998723 0.619003 0.117342 0.787827
C87   C     C_R   0.881363 0.497541 0.878735 0.775733
C88   C     C_R   0.082090 0.752000 0.539172 0.125577
C89   C     C_R   0.078510 0.770686 0.472413 -0.120856
C90   C     C_R   0.001303 0.722631 0.392033 0.074943
C91   C     C_R   0.831065 0.780165 0.729337 0.408055
C92   C     C_R   0.929104 0.652372 0.377292 -0.205745
C93   C     C_R   0.932304 0.633624 0.443419 -0.139023
C94   C     C_R   0.008347 0.683216 0.524091 -0.071942
C95   C     C_R   0.995273 0.674673 0.251653 -0.246006
C96   C     C_R   0.997534 0.686013 0.183051 -0.077070
C97   C     C_R   0.001121 0.761408 0.180194 -0.006403
C98   C     C_R   0.999862 0.822850 0.245690 -0.266157
C99   C     C_R   0.999745 0.812446 0.315599 -0.077540
C100  C     C_R   0.999264 0.738209 0.319747 0.003093
C101  C     C_R   0.080357 0.853353 0.132647 -0.144917
C102  C     C_R   0.836638 0.801843 0.810316 -0.178125
C103  C     C_R   0.089793 0.867497 0.067525 -0.149501
C104  C     C_R   0.026902 0.807222 0.980604 -0.106267
C105  C     C_R   0.953637 0.733439 0.958682 -0.103369
C106  C     C_R   0.943683 0.719245 0.023612 -0.123866
C107  C     C_R   0.007801 0.778464 0.111056 0.122137
C108  C     C_R   0.304975 0.288293 0.845266 -0.135740
C109  C     C_R   0.223157 0.274238 0.834233 -0.131811
C110  C     C_R   0.166130 0.277138 0.766102 0.123021
C111  C     C_R   0.192334 0.295482 0.709960 -0.139337
C112  C     C_R   0.274692 0.310511 0.721894 -0.128779
Cu1   Cu    Cu3+1 0.499980 0.561800 0.561790 0.965922
Cu2   Cu    Cu3+1 0.500020 0.438200 0.438210 0.934928
Cu3   Cu    Cu3+1 0.061810 0.999960 0.561770 0.967582
Cu4   Cu    Cu3+1 0.938190 0.999990 0.438190 0.951036
Cu5   Cu    Cu3+1 0.061790 0.561750 0.999970 0.958773
Cu6   Cu    Cu3+1 0.938180 0.438170 0.000010 0.951885
H1    H     H_    0.786302 0.844473 0.893028 0.145898
H2    H     H_    0.670651 0.683960 0.099402 0.123134
H3    H     H_    0.812705 0.710804 0.201958 0.142272
H4    H     H_    0.845925 0.739230 0.349813 0.110135
H5    H     H_    0.582647 0.902287 0.578008 0.118224
H6    H     H_    0.432913 0.855525 0.554316 0.129100
H7    H     H_    0.312169 0.707835 0.437135 0.108399
H8    H     H_    0.491953 0.652119 0.367101 0.097627
H9    H     H_    0.611661 0.800736 0.483943 0.133273
H10   H     H_    0.257550 0.638568 0.260209 0.149842
H11   H     H_    0.244901 0.362113 0.236953 0.155093
H12   H     H_    0.677788 0.856094 0.785866 0.129607
H13   H     H_    0.060027 0.289690 0.175083 0.113814
H14   H     H_    0.943162 0.144513 0.049443 0.125749
H15   H     H_    0.927809 0.103279 0.903976 0.124412
H16   H     H_    0.030124 0.207354 0.884341 0.140504
H17   H     H_    0.146240 0.354042 0.008858 0.104289
H18   H     H_    0.206714 0.602740 0.536688 0.117206
H19   H     H_    0.268079 0.588226 0.665277 0.133229
H20   H     H_    0.284299 0.459097 0.650732 0.122958
H21   H     H_    0.179448 0.357503 0.376308 0.108594
H22   H     H_    0.666795 0.820405 0.643798 0.148582
H23   H     H_    0.123997 0.261760 0.504466 0.148366
H24   H     H_    0.372968 0.233645 0.489126 0.154090
H25   H     H_    0.375459 0.168026 0.615459 0.114430
H26   H     H_    0.297788 0.897514 0.463275 0.119799
H27   H     H_    0.180591 0.883324 0.341325 0.152890
H28   H     H_    0.158544 0.009515 0.354668 0.112786
H29   H     H_    0.629266 0.504166 0.761832 0.153544
H30   H     H_    0.732241 0.515656 0.559843 0.129882
H31   H     H_    0.851937 0.505183 0.544271 0.118113
H32   H     H_    0.955298 0.486484 0.647900 0.126322
H33   H     H_    0.939509 0.478872 0.767576 0.144981
H34   H     H_    0.738059 0.498333 0.870740 0.153511
H35   H     H_    0.010138 0.667364 0.574506 0.159414
H36   H     H_    0.135786 0.822130 0.482645 0.132765
H37   H     H_    0.870275 0.612139 0.314449 0.139651
H38   H     H_    0.876010 0.580044 0.431890 0.138730
H39   H     H_    0.993326 0.617044 0.253695 0.154507
H40   H     H_    0.001048 0.880278 0.243211 0.151631
H41   H     H_    0.885559 0.800443 0.859116 0.159090
H42   H     H_    0.130402 0.899781 0.199712 0.122000
H43   H     H_    0.146260 0.924802 0.084416 0.137877
H44   H     H_    0.034880 0.817979 0.930338 0.187727
H45   H     H_    0.904695 0.687069 0.891348 0.168541
H46   H     H_    0.886878 0.661631 0.005822 0.099897
H47   H     H_    0.394177 0.317572 0.797877 0.116799
H48   H     H_    0.348544 0.285460 0.897528 0.126492
H49   H     H_    0.203956 0.260574 0.878313 0.122216
H50   H     H_    0.149399 0.298898 0.657753 0.106422
H51   H     H_    0.295439 0.325684 0.679377 0.136782
H52   H     H_    0.876021 0.882853 0.636320 0.157726
H53   H     H_    0.136885 0.383916 0.870954 0.154089
H54   H     H_    0.861706 0.116366 0.625680 0.147211
H55   H     H_    0.809620 0.108504 0.753512 0.115823
H56   H     H_    0.666254 0.080774 0.740278 0.120751
H57   H     H_    0.607761 0.176053 0.714169 0.116599
H58   H     H_    0.691113 0.297413 0.698287 0.135700
H59   H     H_    0.833982 0.325100 0.710369 0.100393
H60   H     H_    0.623344 0.618819 0.363771 0.152299
H61   H     H_    0.592612 0.710632 0.291293 0.122465
H62   H     H_    0.560920 0.684036 0.144454 0.129693
O1    O     O_R   0.409800 0.552180 0.462000 -0.570519
O2    O     O_R   0.947810 0.909820 0.357620 -0.585488
O3    O     O_R   0.962020 0.909790 0.552160 -0.568020
O4    O     O_R   0.857630 0.909810 0.447800 -0.582488
O5    O     O_R   0.052190 0.090140 0.642340 -0.576064
O6    O     O_R   0.947800 0.090160 0.537980 -0.588683
O7    O     O_R   0.142370 0.090150 0.552150 -0.570379
O8    O     O_R   0.037980 0.090170 0.447800 -0.592199
O9    O     O_R   0.052180 0.461950 0.909820 -0.597705
O10   O     O_R   0.947800 0.357590 0.909850 -0.563556
O11   O     O_R   0.142360 0.552150 0.090150 -0.586754
O12   O     O_R   0.409830 0.447810 0.357640 -0.588389
O13   O     O_R   0.037980 0.447790 0.090180 -0.581950
O14   O     O_R   0.052170 0.642340 0.090130 -0.570164
O15   O     O_R   0.947790 0.537980 0.090160 -0.592885
O16   O     O_R   0.962000 0.552140 0.909800 -0.579014
O17   O     O_R   0.857610 0.447780 0.909830 -0.579964
O18   O     O_R   0.590160 0.642370 0.552180 -0.573908
O19   O     O_R   0.590190 0.537990 0.447820 -0.596631
O20   O     O_R   0.590170 0.552190 0.642360 -0.578083
O21   O     O_R   0.590200 0.447820 0.538000 -0.597667
O22   O     O_R   0.409810 0.462010 0.552180 -0.578155
O23   O     O_R   0.409840 0.357630 0.447820 -0.586048
O24   O     O_R   0.052200 0.909800 0.461980 -0.584139
C113  C     C_3   0.147717 0.487847 0.368147 -0.424556
C114  C     C_3   0.058550 0.480016 0.348576 -0.384029
C115  C     C_3   0.012012 0.471432 0.260379 -0.786195
H63   H     H_    0.054227 0.526421 0.256992 0.249459
H64   H     H_    0.995976 0.408833 0.208064 0.259778
H65   H     H_    0.950542 0.472221 0.250087 0.231371
H66   H     H_    0.017317 0.421461 0.348363 0.224972
H67   H     H_    0.066859 0.538902 0.399246 0.221030
H68   H     H_    0.192143 0.551542 0.378581 0.200917
H69   H     H_    0.139490 0.435328 0.311167 0.208533
C116  C     C_3   0.416964 0.042641 0.623274 -0.438126
C117  C     C_3   0.381455 0.985720 0.658899 -0.346978
C118  C     C_3   0.455197 0.997609 0.736191 -0.867921
H70   H     H_    0.499179 0.979375 0.716948 0.246658
H71   H     H_    0.493341 0.066595 0.789640 0.255123
H72   H     H_    0.427534 0.954971 0.759975 0.243981
H73   H     H_    0.338025 0.003719 0.679520 0.223714
H74   H     H_    0.343168 0.915744 0.607721 0.201106
H75   H     H_    0.458856 0.023563 0.600669 0.194640
H76   H     H_    0.458146 0.111881 0.676503 0.188666
S1    S     S_3+6 0.910454 0.756735 0.713525 -0.054199
O25   O     O_2   0.993416 0.842048 0.759700 -0.305135
O26   O     O_2   0.926964 0.702319 0.753099 -0.328413
O27   O     O_3   0.882324 0.704590 0.608671 -0.530586
H77   H     H_    0.826267 0.650701 0.580827 0.326528
C119  C     C_3   0.164550 0.804138 0.625759 -0.494816
C120  C     C_3   0.153364 0.861640 0.696079 -0.248948
C121  C     C_3   0.237711 0.917477 0.783292 -0.852588
H78   H     H_    0.258382 0.875230 0.803838 0.254905
H79   H     H_    0.290192 0.962070 0.778946 0.246762
H80   H     H_    0.227200 0.957468 0.832995 0.257077
H81   H     H_    0.133695 0.905317 0.677254 0.230352
H82   H     H_    0.101598 0.819773 0.703187 0.277524
H83   H     H_    0.181909 0.758632 0.643046 0.195153
H84   H     H_    0.219193 0.846361 0.622132 0.192555

loop_
_geom_bond_atom_site_label_1
_geom_bond_atom_site_label_2
_ccdc_geom_bond_type
C78   C87   S    
C101  C107  A    
C88   C119  S    
C55   C56   A    
C4    C9    A    
C75   C76   A    
C93   C94   A    
C55   H23   S    
C4    H53   S    
C49   H19   S    
C95   C96   A    
C73   C74   A    
C19   C20   A    
C51   C61   S    
C62   H25   S    
C43   C44   A    
C116  H76   S    
S1    O27   S    
C97   C98   A    
C7    C8    A    
C45   C46   A    
C52   C53   A    
C118  H72   S    
Cu4   O8    S    
C45   H16   S    
C37   C38   A    
C62   C67   A    
C82   O6    A    
C8    C82   S    
C37   C85   S    
C43   H14   S    
C35   C37   A    
C24   C26   A    
C87   O16   A    
C104  H44   S    
C5    C6    A    
Cu3   O5    S    
C57   C59   A    
C71   H32   S    
C20   C25   S    
C2    C102  A    
C68   C74   A    
C15   C16   A    
C59   H24   S    
C29   H6    S    
C55   C61   A    
C33   H9    S    
C52   H21   S    
C108  C109  A    
C18   C19   A    
C32   H8    S    
C49   C50   A    
Cu6   O13   S    
C117  H73   S    
C104  C105  A    
C14   H58   S    
Cu5   O14   S    
C109  H49   S    
C1    C40   S    
C46   H17   S    
C110  C111  A    
C114  H66   S    
Cu1   O1    S    
C112  H51   S    
C101  H42   S    
C8    C9    A    
Cu4   O2    S    
C115  H65   S    
C53   C113  S    
C23   C24   A    
C105  H45   S    
C84   O10   A    
C120  H81   S    
C25   O18   A    
C26   H3    S    
C106  H46   S    
Cu5   O11   S    
C38   C48   S    
C68   H30   S    
C88   C89   A    
C69   H22   S    
C66   C67   A    
C47   C60   S    
C30   H7    S    
C113  H68   S    
C59   C60   A    
C101  C103  A    
C22   C28   A    
C7    H54   S    
C91   S1    S    
C44   H15   S    
C83   O7    A    
C119  H84   S    
C35   H10   S    
C70   H31   S    
C57   C67   S    
C77   H34   S    
C90   C100  S    
O27   H77   S    
C27   H4    S    
C33   C34   A    
C88   C94   A    
C93   H38   S    
C38   C39   A    
C46   C48   A    
C103  H43   S    
Cu2   O12   S    
C74   C75   A    
C82   O5    A    
C13   C21   A    
C51   C52   A    
C98   H40   S    
C18   C28   S    
C76   C77   A    
C76   H29   S    
C39   C40   A    
C5    C84   S    
C1    O1    A    
C114  C115  S    
C22   H61   S    
C39   H11   S    
C50   C51   A    
C118  H70   S    
C77   C78   A    
Cu4   O6    S    
C29   C34   A    
C121  H80   S    
C115  H63   S    
C47   O22   A    
C60   C61   A    
C116  C117  S    
C29   C30   A    
C25   O19   A    
C36   C75   S    
C86   O15   A    
Cu3   O7    S    
C90   C92   A    
C99   C100  A    
C14   C15   A    
C86   C96   S    
C3    C112  A    
C73   C78   A    
C72   H33   S    
C54   H18   S    
C96   C97   A    
C62   C63   A    
C121  H79   S    
C17   C18   A    
C26   C27   A    
Cu2   O21   S    
C47   O23   A    
C84   O9    A    
C42   C48   A    
Cu1   O22   S    
C117  C118  S    
Cu6   O15   S    
C19   H60   S    
C23   H62   S    
C42   H13   S    
Cu5   O9    S    
C12   H57   S    
C113  C114  S    
C40   C41   A    
C12   C14   A    
C113  H69   S    
C79   O24   A    
Cu2   O19   S    
C15   H59   S    
C83   O8    A    
C119  H83   S    
C118  H71   S    
C36   O21   A    
C87   O17   A    
C91   C102  A    
C65   H27   S    
C120  C121  S    
C70   C71   A    
C44   C45   A    
C3    H47   S    
C56   C83   S    
Cu3   Cu4   S    
Cu1   Cu2   S    
Cu1   O18   S    
C79   C99   S    
C9    C110  S    
C56   C57   A    
C108  H48   S    
C13   H52   S    
C11   H56   S    
C31   C41   S    
C111  C112  A    
S1    O25   D    
C95   C100  A    
C31   C32   A    
C36   O20   A    
C72   C73   A    
C116  H75   S    
C102  H41   S    
Cu3   O3    S    
C2    H1    S    
C2    C58   A    
C58   C69   A    
C53   C54   A    
C6    C7    A    
C3    C108  A    
C85   O11   A    
C64   H26   S    
C105  C106  A    
C79   O2    A    
C13   C17   A    
C120  H82   S    
C50   H20   S    
C64   C65   A    
C80   C91   A    
C106  C107  A    
C24   H2    S    
C71   C72   A    
Cu5   O16   S    
C10   C16   A    
Cu5   Cu6   S    
C32   C33   A    
Cu6   O10   S    
C85   O13   A    
C89   H36   S    
C30   C31   A    
C58   H12   S    
C94   H35   S    
Cu4   O4    S    
C21   C80   S    
C92   C93   A    
S1    O26   D    
Cu1   O20   S    
C92   H37   S    
C17   C81   S    
C65   C66   A    
C10   H55   S    
C119  C120  S    
C35   C41   A    
C117  H74   S    
C66   H28   S    
C95   H39   S    
C10   C11   A    
C6    C16   S    
C63   C64   A    
C97   C107  S    
C1    O12   A    
C114  H67   S    
C4    C5    A    
C20   C21   A    
Cu3   O24   S    
C68   C70   A    
C98   C99   A    
C42   C43   A    
C103  C104  A    
C115  H64   S    
C34   H5    S    
C81   O3    A    
C22   C23   A    
C69   C80   A    
C111  H50   S    
C81   O4    A    
C63   C116  S    
C89   C90   A    
C109  C110  A    
Cu6   O17   S    
Cu2   O23   S    
C86   O14   A    
C49   C54   A    
C11   C12   A    
C121  H78   S    
C27   C28   A    
