data_mof_unit_2667.cif
_audit_creation_date              2012-12-11T20:00:22-0500
_audit_creation_method            fapswitch 2.2
_symmetry_space_group_name_H-M    P1
_symmetry_Int_Tables_number       1
_space_group_crystal_system       triclinic
_cell_length_a                    8.232631
_cell_length_b                    16.29194
_cell_length_c                    27.023559
_cell_angle_alpha                 72.470346
_cell_angle_beta                  96.718722
_cell_angle_gamma                 96.044231
_cell_volume                      3423.08843378

loop_
_atom_site_label
_atom_site_type_symbol
_atom_type_description
_atom_site_fract_x
_atom_site_fract_y
_atom_site_fract_z
_atom_type_partial_charge
Ba1   Ba    Ba6+2 0.337820 0.939830 0.518500 1.643955
Ba2   Ba    Ba6+2 0.851970 0.060110 0.481480 1.655977
C1    C     C_3   0.067775 0.526601 0.610809 -0.369584
C2    C     C_R   0.494777 0.396652 0.194448 0.590365
C3    C     C_2   0.299935 0.284722 0.281487 -0.091721
C4    C     C_3   0.535829 0.640734 0.630461 0.333839
C5    C     C_3   0.286094 0.252268 0.339668 -0.089478
C6    C     C_1   0.478897 0.144791 0.342415 0.038360
C7    C     C_2   0.515515 0.185585 0.293832 -0.082872
C8    C     C_2   0.420381 0.259647 0.260355 0.220653
C9    C     C_R   0.533458 0.403149 0.105019 -0.079909
C10   C     C_R   0.505839 0.312464 0.119036 -0.035099
C11   C     C_R   0.513284 0.270695 0.081109 -0.059110
C12   C     C_3   0.056275 0.621938 0.604238 0.347688
C13   C     C_R   0.527482 0.445249 0.143141 -0.028277
C14   C     C_2   0.371120 0.170822 0.366049 -0.260603
C15   C     C_2   0.838835 0.838418 0.637927 -0.278767
C16   C     C_3   0.511023 0.566682 0.679666 -0.307723
C17   C     C_R   0.619835 0.456533 0.964016 0.019881
C18   C     C_R   0.616516 0.592159 0.986484 0.019782
C19   C     C_R   0.635068 0.548394 0.949502 0.049978
C20   C     C_R   0.647431 0.416194 0.926447 -0.101638
C21   C     C_R   0.684457 0.463983 0.876435 -0.060330
C22   C     C_R   0.695302 0.554434 0.861152 -0.024460
C23   C     C_3   0.080309 0.015080 0.647011 0.291524
C24   C     C_R   0.669895 0.596970 0.897472 -0.079643
C25   C     C_R   0.680366 0.687976 0.881843 -0.036391
C26   C     C_R   0.715253 0.735063 0.830173 0.597602
C27   C     C_R   0.732311 0.602743 0.810230 0.574170
C28   C     C_3   0.596083 0.885596 0.388650 0.313718
C29   C     C_2   0.904549 0.720596 0.720248 -0.086388
C30   C     C_3   0.913727 0.753669 0.662147 -0.045845
C31   C     C_1   0.717443 0.857934 0.659394 0.032323
C32   C     C_2   0.677016 0.813079 0.707262 -0.101850
C33   C     C_2   0.778924 0.741305 0.741390 0.197916
C34   C     C_3   0.083134 0.976325 0.705791 -0.354111
C35   C     C_R   0.579293 0.408152 0.015352 0.020094
C36   C     C_R   0.567427 0.451774 0.052932 0.050193
C37   C     C_R   0.589310 0.543500 0.039025 0.019737
C38   C     C_R   0.549219 0.317115 0.030629 -0.099164
C39   C     C_R   0.555050 0.535319 0.129374 -0.062938
C40   C     C_3   0.558243 0.813037 0.363463 -0.380900
C41   C     C_R   0.625241 0.683610 0.969268 -0.099431
C42   C     C_R   0.656169 0.730103 0.918295 -0.059808
C43   C     C_R   0.584699 0.583320 0.078663 -0.100845
C44   C     C_2   0.399758 0.245549 0.512629 -0.270871
C45   C     C_3   0.598589 0.399654 0.377310 0.321463
C46   C     C_R   0.799569 0.759447 0.488844 -0.339514
C47   C     C_2   0.256337 0.311082 0.564338 -0.130448
C48   C     C_2   0.268986 0.244677 0.545695 0.055160
C49   C     C_2   0.506533 0.314115 0.498687 -0.017506
C50   C     C_3   0.464650 0.398579 0.504648 -0.049666
C51   C     C_3   0.380940 0.387067 0.554335 0.020712
C52   C     C_3   0.598994 0.115345 0.609659 0.314307
C53   C     C_2   0.603259 0.465991 0.500161 -0.084221
C54   C     C_2   0.568672 0.548339 0.486161 -0.072879
C55   C     C_R   0.833685 0.617245 0.455184 -0.015888
C56   C     C_3   0.635073 0.481943 0.333955 -0.322106
C57   C     C_R   0.697696 0.618639 0.481293 -0.066251
C58   C     C_R   0.950158 0.687792 0.443559 0.136781
C59   C     C_R   0.929412 0.760428 0.459736 0.044295
C60   C     C_R   0.679958 0.690626 0.497950 0.005754
C61   C     C_3   0.638456 0.188803 0.634043 -0.375976
C62   C     C_3   0.118708 0.992022 0.358549 0.295797
C63   C     C_3   0.120444 0.028934 0.299770 -0.352153
C64   C     C_3   0.113748 0.607679 0.404953 -0.215483
C65   C     C_3   0.096275 0.395549 0.368323 0.327449
C66   C     C_3   0.164631 0.469190 0.324547 -0.436285
C67   C     C_R   0.469182 0.265466 0.170488 0.593273
H1    H     H_    0.093565 0.659255 0.565018 0.071739
H2    H     H_    0.246009 0.992836 0.376695 0.007069
H3    H     H_    0.047145 0.033057 0.372647 0.090460
H4    H     H_    0.193163 0.514609 0.604845 0.148090
H5    H     H_    0.198147 0.991360 0.284975 0.131429
H6    H     H_    0.170394 0.097234 0.289536 0.075606
H7    H     H_    0.993710 0.026089 0.280747 0.134655
H8    H     H_    0.925867 0.631452 0.606555 -0.053320
H9    H     H_    0.979776 0.506271 0.581518 0.069519
H10   H     H_    0.951361 0.014024 0.629928 0.013488
H11   H     H_    0.151007 0.974920 0.631823 0.071311
H12   H     H_    0.627596 0.826735 0.328645 0.125668
H13   H     H_    0.007434 0.012922 0.721955 0.136370
H14   H     H_    0.033158 0.907992 0.715497 0.072678
H15   H     H_    0.211116 0.978741 0.723916 0.132240
H16   H     H_    0.037343 0.487507 0.650431 0.122284
H17   H     H_    0.520197 0.592618 0.713431 0.124208
H18   H     H_    0.569969 0.345175 0.360267 0.044176
H19   H     H_    0.491154 0.409253 0.395757 -0.053003
H20   H     H_    0.736081 0.473383 0.312489 0.152772
H21   H     H_    0.524375 0.498016 0.306396 0.121851
H22   H     H_    0.671830 0.536390 0.350653 0.095080
H23   H     H_    0.593451 0.750933 0.391210 0.054744
H24   H     H_    0.199070 0.363736 0.395504 -0.059683
H25   H     H_    0.028410 0.423811 0.391500 0.094604
H26   H     H_    0.251498 0.512875 0.341150 0.072107
H27   H     H_    0.063360 0.506432 0.300233 0.131065
H28   H     H_    0.470945 0.695846 0.632611 0.098759
H29   H     H_    0.231220 0.443732 0.299714 0.132203
H30   H     H_    0.617205 0.166855 0.278447 0.116897
H31   H     H_    0.491080 0.201214 0.090319 0.121830
H32   H     H_    0.984774 0.671440 0.743165 0.116129
H33   H     H_    0.704715 0.429199 0.849525 0.121494
H34   H     H_    0.424803 0.806964 0.351514 0.124442
H35   H     H_    0.644670 0.347218 0.934622 0.069830
H36   H     H_    0.549339 0.279264 0.004150 0.069532
H37   H     H_    0.226307 0.336511 0.258024 0.091631
H38   H     H_    0.553112 0.569610 0.157971 0.116717
H39   H     H_    0.605903 0.721801 0.994072 0.069322
H40   H     H_    0.668777 0.659587 0.628812 -0.047580
H41   H     H_    0.661498 0.799933 0.907561 0.121890
H42   H     H_    0.570002 0.828069 0.721903 0.126657
H43   H     H_    0.606655 0.651912 0.072137 0.068838
H44   H     H_    0.361689 0.143073 0.407586 0.078572
H45   H     H_    0.466983 0.111015 0.597229 -0.011390
H46   H     H_    0.868857 0.875615 0.599051 0.077249
H47   H     H_    0.164660 0.307139 0.590913 0.076386
H48   H     H_    0.418157 0.186273 0.504245 0.055101
H49   H     H_    0.785525 0.815292 0.501324 0.080607
H50   H     H_    0.728952 0.448497 0.511197 0.101328
H51   H     H_    0.387617 0.532845 0.677119 0.140235
H52   H     H_    0.441416 0.563897 0.478690 0.106423
H53   H     H_    0.605076 0.519653 0.685682 0.123881
H54   H     H_    0.729075 0.891483 0.399875 0.001229
H55   H     H_    0.526984 0.869631 0.423660 0.063946
H56   H     H_    0.671216 0.128998 0.575546 0.072776
H57   H     H_    0.102601 0.741789 0.383504 0.203037
H58   H     H_    0.013351 0.590163 0.377881 0.098193
H59   H     H_    0.123503 0.554811 0.442209 0.119254
H60   H     H_    0.231635 0.616331 0.387189 0.095476
H61   H     H_    0.560870 0.179472 0.666556 0.125517
H62   H     H_    0.615281 0.251485 0.604672 0.061018
H63   H     H_    0.769753 0.190625 0.649208 0.128848
N1    N     N_R   0.462571 0.307659 0.207639 -0.422378
N2    N     N_R   0.740773 0.692565 0.794625 -0.421745
N3    N     N_2   0.083912 0.687394 0.414396 -0.390536
O1    O     O_2   0.431310 0.922990 0.623550 -0.460154
O2    O     O_2   0.842041 0.303233 0.507022 -0.479574
O3    O     O_3   0.737915 0.384436 0.412964 -0.583099
O4    O     O_3   0.663280 0.983100 0.563360 -0.499900
O5    O     O_3   0.016420 0.932050 0.462720 -0.492733
O6    O     O_2   0.959730 0.164640 0.549160 -0.452587
O7    O     O_3   0.150120 0.100206 0.635741 -0.641148
O8    O     O_2   0.955478 0.190736 0.327289 -0.486363
O9    O     O_3   0.985782 0.339768 0.347150 -0.556687
O10   O     O_2   0.441107 0.187174 0.181899 -0.596666
O11   O     O_2   0.756598 0.564233 0.779694 -0.623264
O12   O     O_3   0.047142 0.907319 0.370121 -0.643385
O13   O     O_2   0.496135 0.433812 0.227585 -0.627590
O14   O     O_2   0.725775 0.813904 0.817287 -0.596265
O15   O     O_3   0.126250 0.812630 0.574830 -0.482403
O16   O     O_2   0.262129 0.785911 0.672400 -0.495848
O17   O     O_3   0.637722 0.038312 0.647149 -0.626117
O18   O     O_3   0.160220 0.647069 0.643282 -0.598834
O19   O     O_2   0.229950 0.835370 0.450810 -0.451882
O20   O     O_3   0.517580 0.797570 0.545130 -0.498040
O21   O     O_2   0.341323 0.694893 0.495522 -0.466345
O22   O     O_3   0.472407 0.613893 0.586945 -0.605149
O23   O     O_2   0.758370 0.077020 0.376420 -0.452491
O24   O     O_3   0.526390 0.016840 0.436620 -0.504041
O25   O     O_3   0.063420 0.187310 0.425160 -0.458260
O26   O     O_3   0.550269 0.962458 0.352178 -0.629322
O27   O     O_3   0.173250 0.067890 0.537260 -0.483924
O28   O     O_3   0.672100 0.202370 0.454860 -0.470758
P1    P     P_3+3 0.610630 0.953360 0.619150 0.988746
P2    P     P_3+3 0.057260 0.861390 0.437850 0.983337
P3    P     P_3+3 0.501844 0.699551 0.530618 0.947534
P4    P     P_3+3 0.579040 0.046590 0.380840 0.988426
P5    P     P_3+3 0.688451 0.301567 0.468493 0.962780
P6    P     P_3+3 0.118499 0.751873 0.639761 0.943065
P7    P     P_3+3 0.142208 0.144811 0.568034 0.952678
P8    P     P_3+3 0.072219 0.241313 0.358737 0.980825

loop_
_geom_bond_atom_site_label_1
_geom_bond_atom_site_label_2
_ccdc_geom_bond_type
C53   C54   D    
C5    P8    S    
C4    O22   S    
C1    H16   S    
C23   H11   S    
C67   O10   D    
C23   O7    S    
C8    N1    S    
C30   P6    S    
C14   H44   S    
Ba2   O27   S    
C43   H43   S    
C2    C13   A    
C53   H50   S    
O9    P8    S    
C24   C25   A    
C66   H27   S    
C63   H7    S    
C26   N2    Am   
Ba2   O4    S    
C29   H32   S    
O4    P1    S    
C17   C19   A    
C22   C24   A    
C32   C33   S    
C35   C38   A    
C36   C37   A    
C55   C57   A    
O15   P6    S    
C52   C61   S    
O20   P3    S    
C2    O13   D    
C20   H35   S    
C64   H58   S    
O3    P5    S    
Ba1   Ba2   S    
C62   H2    S    
Ba1   O20   S    
C22   C27   A    
C11   C38   A    
O12   P2    S    
C9    C13   A    
C25   C42   A    
Ba1   P1    S    
C34   H13   S    
Ba2   O24   S    
C65   H25   S    
C21   C22   A    
O19   P2    D    
C45   H19   S    
C61   H62   S    
Ba1   O1    S    
C17   C35   A    
C7    C8    S    
C40   H23   S    
Ba1   O4    S    
C50   C53   S    
O7    P7    S    
C64   H60   S    
C27   N2    Am   
C26   O14   D    
C6    C14   D    
C40   H34   S    
C56   H22   S    
C32   H42   S    
C12   H1    S    
C49   P5    S    
C40   H12   S    
C15   C31   D    
O24   P4    S    
C65   O9    S    
C33   N2    S    
C19   C24   A    
O23   P4    D    
C3    H37   S    
C4    C16   S    
C52   H56   S    
C66   H26   S    
C65   C66   S    
C61   H61   S    
C4    H28   S    
Ba1   O24   S    
C17   C20   A    
C13   C39   A    
C27   O11   D    
C3    C5    S    
C18   C37   A    
C7    H30   S    
C6    C7    D    
C55   C58   A    
C52   O17   S    
C44   C49   D    
C63   H5    S    
C49   C50   S    
C44   H48   S    
C58   C59   A    
C45   H18   S    
O22   P3    S    
C9    C36   A    
C41   C42   A    
C35   C36   A    
C6    P4    S    
C46   C60   A    
C29   C30   S    
O27   P7    S    
O21   P3    D    
Ba2   O23   S    
C31   P1    S    
C31   C32   D    
Ba1   O15   S    
C48   P7    S    
C16   H17   S    
C61   H63   S    
C18   C19   A    
C28   H54   S    
C56   H21   S    
C58   N3    S    
O26   P4    S    
C1    C12   S    
C16   H53   S    
C5    C14   S    
C60   P3    S    
C10   C67   A    
C28   H55   S    
H57   N3    S    
C62   O12   S    
C4    H40   S    
C29   C33   D    
C2    N1    Am   
C16   H51   S    
C18   C41   A    
C50   C51   S    
C15   H46   S    
C65   H24   S    
O1    P1    D    
O5    P2    S    
C15   C30   S    
C57   C60   A    
C67   N1    Am   
C39   H38   S    
Ba1   P2    S    
C23   H10   S    
O17   P1    S    
C63   H6    S    
Ba2   O28   S    
Ba1   O27   S    
C46   H49   S    
C9    C10   A    
C44   C48   S    
O16   P6    D    
C54   C57   S    
C37   C43   A    
Ba2   O5    S    
C54   H52   S    
C11   H31   S    
O28   P5    S    
O8    P8    D    
C3    C8    D    
C12   O18   S    
C62   C63   S    
C45   C56   S    
C46   C59   A    
C34   H15   S    
C47   C51   S    
C52   H45   S    
C45   O3    S    
O6    P7    D    
O25   P8    S    
C64   H59   S    
C59   P2    S    
C41   H39   S    
C62   H3    S    
Ba1   O19   S    
C1    H4    S    
C56   H20   S    
C66   H29   S    
C23   C34   S    
C64   N3    S    
C21   H33   S    
C47   H47   S    
C10   C11   A    
Ba2   O25   S    
C47   C48   D    
O18   P6    S    
C25   C26   A    
C12   H8    S    
Ba2   O6    S    
C39   C43   A    
C20   C21   A    
C28   C40   S    
Ba1   O5    S    
C34   H14   S    
C28   O26   S    
C1    H9    S    
Ba2   P4    S    
O2    P5    D    
C38   H36   S    
C42   H41   S    
