data_mof_unit_4040.cif
_audit_creation_date              2012-12-10T17:19:22-0500
_audit_creation_method            fapswitch 2.2
_symmetry_space_group_name_H-M    P1
_symmetry_Int_Tables_number       1
_space_group_crystal_system       triclinic
_cell_length_a                    15.057556
_cell_length_b                    10.883523
_cell_length_c                    9.662847
_cell_angle_alpha                 92.581025
_cell_angle_beta                  86.640732
_cell_angle_gamma                 92.918155
_cell_volume                      1577.36456195

loop_
_atom_site_label
_atom_site_type_symbol
_atom_type_description
_atom_site_fract_x
_atom_site_fract_y
_atom_site_fract_z
_atom_type_partial_charge
C1    C     C_R   0.497264 0.262029 0.496041 0.790293
C2    C     C_R   0.912124 0.626756 0.501977 0.122389
C3    C     C_R   0.940635 0.294842 0.571997 0.383328
C4    C     C_R   0.032765 0.291715 0.572147 0.391230
C5    C     C_R   0.086861 0.396381 0.534872 -0.091755
C6    C     C_R   0.046474 0.509973 0.524917 -0.079864
C7    C     C_R   0.099877 0.619578 0.517425 0.070087
C8    C     C_R   0.060357 0.730600 0.500426 -0.129061
C9    C     C_R   0.968874 0.735873 0.485395 0.131077
C10   C     C_R   0.179668 0.391139 0.506201 0.070194
C11   C     C_R   0.232643 0.501874 0.512320 -0.133557
C12   C     C_R   0.329238 0.498045 0.503398 0.792893
C13   C     C_R   0.192705 0.616979 0.523267 0.335756
C14   C     C_R   0.365645 0.115828 0.656519 -0.228579
C15   C     C_R   0.316983 0.059143 0.764645 0.335425
C16   C     C_R   0.345939 0.947573 0.811265 0.261550
C17   C     C_R   0.422531 0.895813 0.745147 0.388421
C18   C     C_R   0.458734 0.941823 0.616343 -0.050430
C19   C     C_R   0.439657 0.062493 0.588054 -0.078973
C20   C     C_R   0.490777 0.126157 0.485730 -0.104656
C21   C     C_R   0.539246 0.059498 0.380139 0.159403
C22   C     C_R   0.553643 0.934585 0.398237 0.163317
C23   C     C_R   0.503011 0.738025 0.503854 0.785624
C24   C     C_R   0.510129 0.873715 0.512583 -0.102631
C25   C     C_R   0.657571 0.572327 0.116060 0.257996
C26   C     C_R   0.711302 0.669334 0.061399 -0.204339
C27   C     C_R   0.692986 0.713019 0.933514 -0.247842
C28   C     C_R   0.623965 0.655796 0.860345 -0.046842
C29   C     C_R   0.564342 0.568362 0.923645 0.145854
C30   C     C_R   0.571239 0.552488 0.067926 0.071489
C31   C     C_R   0.436290 0.436562 0.079450 0.508599
C32   C     C_R   0.433475 0.440957 0.931696 0.110392
C33   C     C_R   0.670947 0.503946 0.497144 0.812644
C34   C     C_R   0.817011 0.624951 0.505308 0.083184
C35   C     C_R   0.768441 0.510104 0.493526 -0.064255
C36   C     C_R   0.811241 0.398741 0.495561 0.078356
C37   C     C_R   0.900987 0.401100 0.528458 -0.080015
C38   C     C_R   0.952951 0.513099 0.519278 -0.070537
Cu1   Cu    Cu3+1 0.499990 0.499990 0.640660 0.953858
Cu2   Cu    Cu3+1 0.500010 0.500010 0.359340 0.980452
H1    H     H_    0.343639 0.200896 0.621479 0.155352
H2    H     H_    0.774831 0.695339 0.104136 0.160413
H3    H     H_    0.737389 0.781951 0.885238 0.167469
H4    H     H_    0.617489 0.684152 0.757622 0.205886
H5    H     H_    0.102127 0.814253 0.491065 0.212261
N1    N     N_R   0.500860 0.501210 0.147910 -0.224993
N2    N     N_R   0.500890 0.501290 0.852040 -0.200274
O1    O     O_R   0.499990 0.319640 0.618810 -0.579106
O2    O     O_R   0.500000 0.319660 0.381240 -0.562079
O3    O     O_R   0.370250 0.499960 0.618800 -0.599388
O4    O     O_R   0.370260 0.499980 0.381230 -0.498730
O5    O     O_R   0.500000 0.680340 0.618760 -0.545961
O6    O     O_R   0.500010 0.680360 0.381190 -0.566534
O7    O     O_R   0.629740 0.500020 0.618770 -0.592537
O8    O     O_R   0.629750 0.500040 0.381200 -0.586787
C39   C     C_3   0.766760 0.741514 0.534388 -0.875106
H6    H     H_    0.694743 0.725068 0.557580 0.202853
H7    H     H_    0.792089 0.792239 0.627292 0.244141
H8    H     H_    0.771605 0.799383 0.443333 0.237561
O9    O     O_3   0.245749 0.119605 0.826565 -0.751356
H9    H     H_    0.237730 0.097603 0.924911 0.332218
O10   O     O_3   0.301805 0.886852 0.919465 -0.743966
H10   H     H_    0.237547 0.902144 0.919514 0.344783
O11   O     O_3   0.470083 0.815774 0.815262 -0.716746
H11   H     H_    0.441710 0.801773 0.908642 0.365710
C40   C     C_3   0.618977 0.869215 0.297974 -0.826256
H12   H     H_    0.640706 0.782326 0.336566 0.230037
H13   H     H_    0.588314 0.848196 0.197336 0.254822
H14   H     H_    0.681057 0.927646 0.281770 0.223439
O12   O     O_3   0.376410 0.363370 0.155621 -0.701673
H15   H     H_    0.372943 0.281230 0.107006 0.294914
C41   C     C_3   0.708696 0.458558 0.131250 -0.812011
H16   H     H_    0.664100 0.381028 0.167481 0.233846
H17   H     H_    0.738986 0.428246 0.028466 0.219498
H18   H     H_    0.763265 0.477694 0.202733 0.232926
C42   C     C_3   0.761539 0.279994 0.451888 -0.847323
H19   H     H_    0.805620 0.202459 0.428023 0.268800
H20   H     H_    0.708877 0.253972 0.532006 0.231379
H21   H     H_    0.730884 0.294316 0.353561 0.218172
C43   C     C_3   0.348274 0.396829 0.869450 -0.696345
H22   H     H_    0.363646 0.339260 0.777106 0.258653
H23   H     H_    0.310528 0.477618 0.846478 0.246119
H24   H     H_    0.302292 0.341321 0.937905 0.222654
O13   O     O_3   0.891625 0.197077 0.629234 -0.696946
H25   H     H_    0.836798 0.229053 0.676545 0.329846
O14   O     O_3   0.066821 0.190282 0.626345 -0.670868
H26   H     H_    0.114177 0.221082 0.688029 0.353355
C44   C     C_3   0.217942 0.272818 0.444233 -0.763575
H27   H     H_    0.287730 0.285158 0.402587 0.235765
H28   H     H_    0.216327 0.199794 0.519695 0.251217
H29   H     H_    0.178324 0.238573 0.355813 0.246401
O15   O     O_3   0.241966 0.728125 0.530297 -0.741049
H30   H     H_    0.304244 0.715113 0.550626 0.321936
C45   C     C_3   0.939353 0.856617 0.435990 -0.793397
H31   H     H_    0.900554 0.907166 0.519019 0.267255
H32   H     H_    0.996661 0.920195 0.406061 0.240298
H33   H     H_    0.902259 0.839938 0.340528 0.219631
C46   C     C_3   0.568806 0.118807 0.244478 -0.803777
H34   H     H_    0.597950 0.055805 0.163200 0.230151
H35   H     H_    0.510265 0.155284 0.198188 0.245453
H36   H     H_    0.618893 0.193877 0.262770 0.221097

loop_
_geom_bond_atom_site_label_1
_geom_bond_atom_site_label_2
_ccdc_geom_bond_type
C33   O8    A    
C40   H13   S    
C34   C39   S    
C15   O9    S    
C35   C36   A    
C42   H21   S    
C7    C8    A    
Cu2   N1    S    
C10   C44   S    
C26   C27   A    
C29   C30   A    
C29   N2    A    
C18   C24   A    
C28   C29   A    
C37   C38   A    
C42   H20   S    
C18   C19   A    
C41   H18   S    
C17   O11   S    
C5    C6    A    
Cu1   O7    S    
C4    O14   S    
C15   C16   A    
C25   C30   A    
C39   H6    S    
C34   C35   A    
C8    H5    S    
C22   C40   S    
C36   C42   S    
C31   O12   S    
C19   C20   A    
C8    C9    A    
C31   N1    A    
C23   C24   S    
C6    C38   A    
O12   H15   S    
C2    C34   A    
Cu1   O5    S    
C21   C22   A    
C16   O10   S    
C43   H24   S    
C23   O6    A    
O13   H25   S    
C43   H23   S    
Cu1   Cu2   S    
O14   H26   S    
C43   H22   S    
C45   H33   S    
C25   C26   A    
C28   H4    S    
O9    H9    S    
O10   H10   S    
C32   C43   S    
C2    C38   A    
C31   C32   A    
C44   H29   S    
C7    C13   A    
Cu2   O8    S    
C20   C21   A    
C17   C18   A    
C25   C41   S    
C42   H19   S    
C45   H32   S    
C14   H1    S    
C41   H17   S    
C44   H28   S    
C46   H34   S    
C46   H35   S    
C13   O15   S    
C32   N2    A    
C22   C24   A    
C3    C4    A    
Cu2   O4    S    
C3    O13   S    
C12   O4    A    
C26   H2    S    
Cu1   N2    S    
C33   O7    A    
C36   C37   A    
C1    C20   S    
C14   C19   A    
C30   N1    A    
C41   H16   S    
C12   O3    A    
C11   C12   S    
C1    O1    A    
C6    C7    A    
C46   H36   S    
C39   H8    S    
O11   H11   S    
C5    C10   A    
C21   C46   S    
C11   C13   A    
C23   O5    A    
C16   C17   A    
O15   H30   S    
C33   C35   S    
C39   H7    S    
C40   H12   S    
C45   H31   S    
C10   C11   A    
C40   H14   S    
C27   H3    S    
C4    C5    A    
Cu1   O3    S    
C44   H27   S    
C3    C37   A    
Cu2   O6    S    
C27   C28   A    
C14   C15   A    
C2    C9    A    
C1    O2    A    
C9    C45   S    
Cu2   O2    S    
Cu1   O1    S    
