data_mof_unit_61.cif
_audit_creation_date              2013-03-05T15:54:26-0500
_audit_creation_method            fapswitch 2.2
_symmetry_space_group_name_H-M    P1
_symmetry_Int_Tables_number       1
_space_group_crystal_system       triclinic
_cell_length_a                    15.715219
_cell_length_b                    10.622029
_cell_length_c                    10.037851
_cell_angle_alpha                 87.712196
_cell_angle_beta                  87.998035
_cell_angle_gamma                 91.299806
_cell_volume                      1672.74949781

loop_
_atom_site_label
_atom_site_type_symbol
_atom_site_description
_atom_site_fract_x
_atom_site_fract_y
_atom_site_fract_z
_atom_type_partial_charge
O1    O     O_R   0.500000 0.316780 0.614690 -0.618305
O2    O     O_R   0.499990 0.316750 0.385360 -0.589463
C1    C     C_R   0.513905 0.262564 0.502786 0.920715
O3    O     O_R   0.376780 0.500000 0.614650 -0.600110
O4    O     O_R   0.376770 0.499980 0.385310 -0.613261
C2    C     C_R   0.337909 0.500697 0.502238 0.919232
Zn1   Zn    Zn3+2 0.500010 0.500020 0.653130 1.006052
Zn2   Zn    Zn3+2 0.499990 0.499980 0.346870 1.080212
O5    O     O_R   0.500010 0.683250 0.614640 -0.613486
O6    O     O_R   0.500000 0.683220 0.385310 -0.536539
O7    O     O_R   0.623230 0.500020 0.614690 -0.632773
O8    O     O_R   0.623220 0.500000 0.385350 -0.585906
C3    C     C_R   0.499131 0.740737 0.497350 0.942673
C4    C     C_R   0.661574 0.501533 0.497944 0.895181
C5    C     C_3   0.967811 0.444359 0.587684 0.187601
C6    C     C_3   0.030203 0.431393 0.470143 0.238102
H1    H     H_    0.960777 0.502446 0.275809 0.233576
C7    C     C_1   0.248863 0.515392 0.508564 -0.043173
C8    C     C_1   0.750264 0.511766 0.493400 -0.046276
C9    C     C_3   0.019525 0.557087 0.636090 0.056437
C10   C     C_3   0.082880 0.543767 0.516628 -0.140506
C11   C     C_3   0.966148 0.646255 0.547292 0.086333
C12   C     C_3   0.915733 0.531850 0.500019 -0.138047
C13   C     C_3   0.030713 0.633690 0.428403 0.206738
C14   C     C_3   0.978242 0.519272 0.379945 -0.230112
C15   C     C_1   0.174077 0.531455 0.514930 0.176700
C16   C     C_1   0.825305 0.521982 0.493640 0.144979
C17   C     C_R   0.510325 0.095728 0.759094 -0.178824
H2    H     H_    0.549128 0.176093 0.784643 0.201046
C18   C     C_R   0.460367 0.031958 0.859717 0.140006
C19   C     C_R   0.402794 0.936203 0.824781 0.256041
C20   C     C_R   0.407798 0.892177 0.694126 0.105133
C21   C     C_R   0.472130 0.940489 0.603341 -0.054637
C22   C     C_R   0.508027 0.057079 0.626528 0.017614
C23   C     C_R   0.536834 0.130655 0.513574 -0.192806
C24   C     C_R   0.571527 0.071043 0.402813 0.095500
C25   C     C_R   0.559839 0.940617 0.396528 0.285110
C26   C     C_R   0.504302 0.876755 0.492464 -0.201879
C27   C     C_R   0.352713 0.562062 0.125204 0.228559
C28   C     C_R   0.274030 0.520760 0.079159 0.195678
C29   C     C_R   0.272095 0.434258 0.977682 0.058448
C30   C     C_R   0.346883 0.417487 0.897536 0.107651
C31   C     C_R   0.425519 0.474325 0.937106 0.059158
C32   C     C_R   0.426051 0.506800 0.073262 -0.045659
N1    N     N_R   0.499210 0.498800 0.142780 -0.117137
C33   C     C_R   0.573928 0.509668 0.062853 0.261988
H3    H     H_    0.631058 0.532667 0.862925 0.180583
C34   C     C_R   0.572519 0.516391 0.921429 -0.101064
N2    N     N_R   0.499180 0.498720 0.857170 -0.112089
N3    N     N_R   0.064890 0.311753 0.430441 0.258420
O9    O     O_R   0.048821 0.268687 0.314243 -0.280977
O10   O     O_R   0.110870 0.246498 0.511980 -0.304557
N4    N     N_R   0.337347 0.888366 0.917706 0.260938
O11   O     O_R   0.316302 0.769269 0.921807 -0.357504
O12   O     O_R   0.291257 0.965021 0.985856 -0.260262
I1    I     I_    0.298352 0.806513 0.614921 -0.120020
N5    N     N_R   0.609722 0.872739 0.302303 0.240487
O13   O     O_R   0.669125 0.799112 0.343949 -0.376945
O14   O     O_R   0.599211 0.889126 0.174940 -0.296329
I2    I     I_    0.699977 0.541379 0.124706 -0.131029
N6    N     N_R   0.360324 0.677485 0.195195 0.266085
O15   O     O_R   0.298642 0.714956 0.272644 -0.334075
O16   O     O_R   0.423438 0.755720 0.163828 -0.310885
N7    N     N_R   0.196598 0.570357 0.129682 0.251781
O17   O     O_R   0.167324 0.672095 0.073416 -0.251532
O18   O     O_R   0.148829 0.503612 0.215234 -0.385033
I3    I     I_    0.156296 0.325983 0.959675 0.066660
I4    I     I_    0.335858 0.266399 0.765458 -0.188283
N8    N     N_R   0.935273 0.338655 0.673447 0.252396
O19   O     O_R   0.987666 0.271410 0.742065 -0.268468
O20   O     O_R   0.854144 0.311605 0.683305 -0.354166
I5    I     I_    0.077355 0.799450 0.319239 0.081447
I6    I     I_    0.906107 0.816307 0.605370 -0.068091
I7    I     I_    0.042640 0.606816 0.834794 -0.031470
I8    I     I_    0.659117 0.171761 0.268006 -0.127696
I9    I     I_    0.462804 0.101092 0.054890 -0.125887

loop_
_geom_bond_atom_site_label_1
_geom_bond_atom_site_label_2
_geom_bond_distance
_ccdc_geom_bond_type
C10   C15   1.441657 S    
C6    C10   1.534417 S    
C29   C30   1.419571 A    
C23   C24   1.401358 A    
C7    C15   1.191309 T    
C29   I3    2.147487 S    
N4    O11   1.298969 A    
Zn1   O7    1.961234 S    
C17   H2    1.082179 S    
C24   C25   1.397600 A    
C6    N3    1.458636 S    
O4    C2    1.304402 A    
O7    C4    1.298219 A    
N5    O14   1.300118 A    
C5    C6    1.520101 S    
N8    O20   1.300057 A    
C22   C23   1.406631 A    
N6    O16   1.301296 A    
O5    C3    1.305108 A    
Zn2   N1    2.049626 S    
H3    C34   1.080741 S    
N3    O10   1.300478 A    
C12   C16   1.426446 S    
C8    C16   1.181907 T    
C5    C12   1.525553 S    
C17   C22   1.409557 A    
C30   I4    2.129932 S    
N8    O19   1.299836 A    
O3    Zn1   1.987918 S    
C5    N8    1.459200 S    
C21   C22   1.380793 A    
N4    O12   1.300834 A    
C5    C9    1.536302 S    
C2    C7    1.411072 S    
C33   C34   1.419515 A    
C13   C14   1.556714 S    
Zn1   N2    2.047203 S    
O3    C2    1.301588 A    
C27   C28   1.402343 A    
C31   N2    1.398537 A    
N1    C33   1.398714 A    
O1    C1    1.296666 A    
N7    O18   1.298403 A    
C31   C32   1.423124 A    
C25   C26   1.418277 A    
C24   I8    2.134903 S    
C18   I9    2.120772 S    
C19   C20   1.410071 A    
C1    C23   1.455442 S    
Zn2   O8    1.987918 S    
N3    O9    1.300537 A    
C9    I7    2.124913 S    
C19   N4    1.434405 S    
C3    C26   1.444004 S    
C28   C29   1.399410 A    
C9    C11   1.554373 S    
C11   C13   1.551055 S    
C30   C31   1.438400 A    
C27   N6    1.441886 S    
C32   N1    1.368111 A    
C13   I5    2.137614 S    
C6    C14   1.541637 S    
Zn1   O5    1.969065 S    
C34   N2    1.353299 A    
C33   I2    2.120194 S    
O1    Zn1   1.999308 S    
C4    C8    1.394573 S    
O2    Zn2   1.969066 S    
O8    C4    1.299820 A    
O6    C3    1.300933 A    
O4    Zn2   1.961233 S    
C27   C32   1.399235 A    
C21   C26   1.410317 A    
C28   N7    1.422248 S    
H1    C14   1.110257 S    
C20   C21   1.410909 A    
C17   C18   1.400434 A    
O2    C1    1.318327 A    
N7    O17   1.300180 A    
N5    O13   1.300824 A    
C18   C19   1.408906 A    
C12   C14   1.540019 S    
N6    O15   1.300766 A    
C9    C10   1.544601 S    
Zn2   O6    1.999307 S    
C10   C13   1.545132 S    
C11   C12   1.535660 S    
C11   I6    2.148448 S    
C20   I1    2.121470 S    
C25   N5    1.434305 S    
