data_mof_unit_4570.cif
_audit_creation_date              2012-12-10T19:01:22-0500
_audit_creation_method            fapswitch 2.2
_symmetry_space_group_name_H-M    P1
_symmetry_Int_Tables_number       1
_space_group_crystal_system       triclinic
_cell_length_a                    9.537958
_cell_length_b                    10.85152
_cell_length_c                    15.557118
_cell_angle_alpha                 89.268029
_cell_angle_beta                  74.079607
_cell_angle_gamma                 89.920751
_cell_volume                      1548.29188529

loop_
_atom_site_label
_atom_site_type_symbol
_atom_type_description
_atom_site_fract_x
_atom_site_fract_y
_atom_site_fract_z
_atom_type_partial_charge
C1    C     C_R   0.000208 0.262530 0.499392 0.820322
C2    C     C_R   0.668050 0.520444 0.904499 0.090516
C3    C     C_R   0.765262 0.566131 0.951193 0.170340
C4    C     C_R   0.517537 0.505621 0.949704 0.056798
C5    C     C_R   0.471066 0.519766 0.043819 0.071140
C6    C     C_R   0.570004 0.568677 0.087571 -0.166151
C7    C     C_R   0.714269 0.591949 0.041835 -0.277957
C8    C     C_R   0.410920 0.483243 0.903792 -0.224827
C9    C     C_R   0.263819 0.474510 0.949389 -0.216171
C10   C     C_R   0.218800 0.480919 0.042308 0.109687
C11   C     C_R   0.323635 0.494150 0.090546 -0.013391
C12   C     C_R   0.917798 0.501947 0.671842 0.786340
C13   C     C_R   0.070197 0.473682 0.087915 -0.218995
C14   C     C_R   0.024906 0.482892 0.180703 -0.268124
C15   C     C_R   0.277523 0.477459 0.184083 0.352205
C16   C     C_R   0.130273 0.063606 0.478642 0.124997
C17   C     C_R   0.000556 0.129736 0.494432 -0.159896
C18   C     C_R   0.869242 0.066053 0.503833 -0.319498
C19   C     C_R   0.865613 0.937492 0.508979 0.423749
C20   C     C_R   0.997524 0.871452 0.498136 -0.205242
C21   C     C_R   0.128963 0.936517 0.479946 0.062026
C22   C     C_3   0.245948 0.930620 0.527233 -0.444346
C23   C     C_R   0.998928 0.737751 0.501206 0.826488
C24   C     C_3   0.247529 0.070264 0.525211 -0.458470
C25   C     C_R   0.588272 0.599243 0.467289 0.318817
C26   C     C_R   0.556149 0.408346 0.541206 -0.097226
C27   C     C_R   0.407207 0.408386 0.541265 -0.104737
C28   C     C_R   0.440921 0.599519 0.467486 0.251298
C29   C     C_3   0.477620 0.652337 0.374951 -0.521708
C30   C     C_3   0.636633 0.652241 0.375189 -0.494936
C31   C     C_R   0.082283 0.494991 0.327960 0.822383
C32   C     C_R   0.870857 0.515480 0.769001 -0.043661
C33   C     C_R   0.128231 0.485949 0.229713 -0.145645
C34   C     C_R   0.912155 0.588078 0.906152 -0.222584
C35   C     C_R   0.964770 0.562993 0.815459 -0.210041
C36   C     C_R   0.725004 0.491654 0.813981 -0.253871
Cu1   Cu    Cu3+1 0.140670 0.499980 0.500000 0.944263
Cu2   Cu    Cu3+1 0.859330 0.500020 0.500000 0.943915
H1    H     H_    0.786236 0.630537 0.077732 0.149859
H2    H     H_    0.988901 0.463457 0.051800 0.156443
H3    H     H_    0.767452 0.115308 0.512821 0.171395
H4    H     H_    0.206889 0.890654 0.595868 0.192844
H5    H     H_    0.348667 0.890382 0.485372 0.200804
H6    H     H_    0.209572 0.111498 0.592710 0.188607
H7    H     H_    0.350296 0.109847 0.481460 0.196084
H8    H     H_    0.597586 0.333006 0.573211 0.137524
H9    H     H_    0.337315 0.333167 0.573327 0.139930
H10   H     H_    0.455085 0.587741 0.326145 0.269516
H11   H     H_    0.432781 0.746276 0.372280 0.191460
H12   H     H_    0.704458 0.587432 0.326287 0.204971
H13   H     H_    0.682941 0.746357 0.374125 0.225597
H14   H     H_    0.909279 0.483392 0.214081 0.171193
H15   H     H_    0.185127 0.461483 0.911610 0.148056
H16   H     H_    0.985786 0.626736 0.940788 0.140295
H17   H     H_    0.077529 0.583670 0.781319 0.153195
H18   H     H_    0.658126 0.449285 0.776873 0.143994
H19   H     H_    0.535856 0.596771 0.156465 0.191304
H20   H     H_    0.436502 0.479319 0.831965 0.140104
N1    N     N_R   0.648210 0.500930 0.499430 -0.193661
N2    N     N_R   0.352300 0.500890 0.499430 -0.182225
O1    O     O_R   0.118810 0.319640 0.500000 -0.587848
O2    O     O_R   0.881230 0.319680 0.499990 -0.592568
O3    O     O_R   0.055580 0.499970 0.629840 -0.587795
O4    O     O_R   0.818000 0.500010 0.629830 -0.591700
O5    O     O_R   0.118770 0.680320 0.500010 -0.588009
O6    O     O_R   0.881190 0.680360 0.500000 -0.530356
O7    O     O_R   0.182000 0.499990 0.370170 -0.530894
O8    O     O_R   0.944420 0.500030 0.370160 -0.594522
O9    O     O_3   0.732656 0.877104 0.527396 -0.572287
C37   C     C_3   0.659674 0.890164 0.619133 0.082821
H21   H     H_    0.609150 0.983082 0.631091 0.135153
H22   H     H_    0.734389 0.876610 0.662574 0.128548
C38   C     C_3   0.539594 0.793723 0.646828 -0.784622
H23   H     H_    0.587907 0.699987 0.640360 0.256206
H24   H     H_    0.477069 0.807415 0.717577 0.195427
H25   H     H_    0.464087 0.801668 0.604036 0.234814
O10   O     O_3   0.376975 0.444606 0.230336 -0.607567
C39   C     C_3   0.390359 0.315082 0.230470 0.091544
H26   H     H_    0.440350 0.281557 0.161474 0.143548
H27   H     H_    0.282423 0.269549 0.258505 0.134941
C40   C     C_3   0.488574 0.278398 0.288743 -0.777022
H28   H     H_    0.439485 0.308655 0.358432 0.261026
H29   H     H_    0.501695 0.176705 0.288748 0.193596
H30   H     H_    0.597495 0.322149 0.262727 0.242466

loop_
_geom_bond_atom_site_label_1
_geom_bond_atom_site_label_2
_ccdc_geom_bond_type
C30   H13   S    
C16   C21   A    
C38   H23   S    
C19   C20   A    
C4    C8    A    
C1    O2    A    
C14   C33   A    
C40   H28   S    
C15   O10   S    
O10   C39   S    
C25   C28   A    
C31   O7    A    
C26   C27   A    
C29   C30   S    
C24   H7    S    
C32   C36   A    
C23   O6    A    
C28   C29   S    
C5    C11   A    
C3    C7    A    
C27   N2    A    
C5    C6    A    
C12   O4    A    
C39   H27   S    
C16   C17   A    
C27   H9    S    
C34   C35   A    
C13   H2    S    
C40   H29   S    
C11   C15   A    
C14   H14   S    
Cu2   O6    S    
C8    C9    A    
Cu1   O5    S    
C31   C33   S    
C37   H21   S    
C26   N1    A    
C8    H20   S    
C30   H12   S    
C16   C24   S    
C13   C14   A    
C12   C32   S    
C38   H24   S    
C6    H19   S    
Cu1   O3    S    
Cu2   O4    S    
C28   N2    A    
C31   O8    A    
C29   H10   S    
C35   H17   S    
C32   C35   A    
C18   H3    S    
C12   O3    A    
C39   H26   S    
C18   C19   A    
C29   H11   S    
C3    C34   A    
C2    C4    A    
Cu1   Cu2   S    
C36   H18   S    
C22   H5    S    
C20   C23   S    
C37   C38   S    
C17   C18   A    
Cu2   O8    S    
C34   H16   S    
C24   H6    S    
C38   H25   S    
C22   C24   S    
C19   O9    S    
C9    H15   S    
C40   H30   S    
C9    C10   A    
C2    C36   A    
C25   C30   S    
C4    C5    A    
C10   C13   A    
C1    O1    A    
Cu1   O1    S    
C6    C7    A    
C1    C17   S    
C23   O5    A    
C2    C3    A    
C39   C40   S    
C22   H4    S    
Cu1   O7    S    
O9    C37   S    
Cu1   N2    S    
C10   C11   A    
C26   H8    S    
Cu2   N1    S    
C20   C21   A    
C7    H1    S    
C37   H22   S    
C25   N1    A    
C21   C22   S    
C15   C33   A    
Cu2   O2    S    
