data_mof_unit_3317.cif
_audit_creation_date              2012-12-10T17:47:01-0500
_audit_creation_method            fapswitch 2.2
_symmetry_space_group_name_H-M    P1
_symmetry_Int_Tables_number       1
_space_group_crystal_system       triclinic
_cell_length_a                    9.938896
_cell_length_b                    10.634054
_cell_length_c                    13.628363
_cell_angle_alpha                 91.591014
_cell_angle_beta                  82.91156
_cell_angle_gamma                 89.937518
_cell_volume                      1428.81701014

loop_
_atom_site_label
_atom_site_type_symbol
_atom_type_description
_atom_site_fract_x
_atom_site_fract_y
_atom_site_fract_z
_atom_type_partial_charge
C1    C     C_R   0.500344 0.739237 0.497269 0.843063
C2    C     C_1   0.457194 0.500110 0.789223 -0.177602
C3    C     C_R   0.401204 0.863326 0.332607 -0.199248
C4    C     C_R   0.352774 0.926236 0.255593 -0.189544
C5    C     C_R   0.353184 0.057603 0.255192 0.157774
C6    C     C_R   0.402209 0.125523 0.332326 -0.177961
C7    C     C_R   0.449973 0.062952 0.411682 0.046352
C8    C     C_R   0.449562 0.931114 0.411807 0.097977
C9    C     C_R   0.501646 0.871364 0.490375 -0.072966
C10   C     C_R   0.557769 0.938019 0.564437 -0.220960
C11   C     C_R   0.558090 0.066479 0.564369 -0.198203
C12   C     C_R   0.475595 0.500181 0.685501 0.876101
C13   C     C_R   0.502232 0.128031 0.490198 -0.085762
C14   C     C_R   0.839181 0.665339 0.629848 -0.184086
C15   C     C_R   0.898608 0.745413 0.695394 0.128073
C16   C     C_R   0.038262 0.743505 0.695017 -0.199465
C17   C     C_R   0.118418 0.662709 0.630460 -0.195424
C18   C     C_R   0.061597 0.580620 0.564136 0.165704
C19   C     C_R   0.917301 0.581217 0.563923 0.146351
C20   C     C_R   0.939054 0.422490 0.438785 -0.109168
C21   C     C_R   0.081996 0.422610 0.438739 -0.103840
C22   C     C_R   0.500595 0.260607 0.497128 0.863000
C23   C     C_R   0.524439 0.500135 0.314485 0.873967
C24   C     C_1   0.543340 0.504457 0.210887 -0.184692
C25   C     C_2   0.561738 0.512951 0.019124 0.128228
C26   C     C_2   0.445478 0.500013 0.980749 -0.172851
C27   C     C_1   0.446564 0.500007 0.876954 0.040105
C28   C     C_1   0.556276 0.508791 0.123257 -0.056705
H1    H     H_    0.349621 0.487409 0.027236 0.135791
H2    H     H_    0.732213 0.672059 0.632407 0.196771
H3    H     H_    0.085385 0.804975 0.745421 0.156221
H4    H     H_    0.224467 0.666785 0.634966 0.211392
H5    H     H_    0.144059 0.359190 0.388665 0.150375
H6    H     H_    0.598594 0.890303 0.623569 0.132367
H7    H     H_    0.402159 0.761725 0.328424 0.161645
H8    H     H_    0.316199 0.872719 0.195580 0.140724
H9    H     H_    0.404374 0.226933 0.328315 0.151145
H10   H     H_    0.599186 0.118285 0.623501 0.151636
H11   H     H_    0.894094 0.359036 0.388753 0.146491
N1    N     N_R   0.857120 0.501200 0.500900 -0.113742
N2    N     N_R   0.142720 0.501280 0.500940 -0.115379
O1    O     O_R   0.385310 0.683220 0.500000 -0.637667
O2    O     O_R   0.614640 0.683250 0.500010 -0.629754
O3    O     O_R   0.368830 0.499960 0.640340 -0.625596
O4    O     O_R   0.598160 0.499980 0.640350 -0.620202
O5    O     O_R   0.385360 0.316750 0.499990 -0.614058
O6    O     O_R   0.614690 0.316780 0.500000 -0.610224
O7    O     O_R   0.401840 0.500020 0.359650 -0.620003
O8    O     O_R   0.631170 0.500040 0.359660 -0.603596
Zn1   Zn    Zn3+2 0.346870 0.499980 0.499990 0.933973
Zn2   Zn    Zn3+2 0.653130 0.500020 0.500010 0.942342
N3    N     N_3   0.818092 0.828625 0.763762 -0.456584
H12   H     H_    0.714807 0.811839 0.761884 0.167658
H13   H     H_    0.836756 0.920382 0.740159 0.184881
N4    N     N_3   0.688839 0.529605 0.958386 -0.428930
H14   H     H_    0.753923 0.456971 0.972914 0.187119
H15   H     H_    0.730782 0.614308 0.980572 0.192168
N5    N     N_3   0.305380 0.123247 0.176005 -0.472592
H16   H     H_    0.362685 0.093200 0.109983 0.184847
H17   H     H_    0.204810 0.096812 0.172254 0.182563

loop_
_geom_bond_atom_site_label_1
_geom_bond_atom_site_label_2
_ccdc_geom_bond_type
C11   H10   S    
C23   C24   S    
C4    H8    S    
C6    C7    A    
C12   O4    A    
N1    Zn2   S    
C9    C10   A    
N2    Zn1   S    
C3    H7    S    
N4    H14   S    
C2    C12   S    
O7    Zn1   S    
C22   O6    A    
N5    H16   S    
C6    H9    S    
C7    C8    A    
C10   H6    S    
C15   N3    S    
N3    H12   S    
C16   H3    S    
C11   C13   A    
O2    Zn2   S    
C26   C27   S    
C2    C27   T    
C5    N5    S    
O1    Zn1   S    
C21   N2    A    
C4    C5    A    
C22   O5    A    
N3    H13   S    
C13   C22   S    
C17   C18   A    
N4    H15   S    
C3    C8    A    
C5    C6    A    
C20   N1    A    
C23   O8    A    
C21   H5    S    
C19   N1    A    
O4    Zn2   S    
N5    H17   S    
C15   C16   A    
C24   C28   T    
C1    O1    A    
C7    C13   A    
C1    C9    S    
C20   C21   A    
C26   H1    S    
C12   O3    A    
C18   C19   A    
C10   C11   A    
C18   N2    A    
O3    Zn1   S    
C20   H11   S    
C17   H4    S    
O5    Zn1   S    
C14   C15   A    
C16   C17   A    
O6    Zn2   S    
C23   O7    A    
O8    Zn2   S    
C25   C26   D    
C14   H2    S    
C14   C19   A    
C1    O2    A    
C3    C4    A    
C25   N4    S    
C8    C9    A    
C25   C28   S    
