data_mof_unit_1084.cif
_audit_creation_date              2012-12-10T17:30:19-0500
_audit_creation_method            fapswitch 2.2
_symmetry_space_group_name_H-M    P1
_symmetry_Int_Tables_number       1
_space_group_crystal_system       triclinic
_cell_length_a                    12.046989
_cell_length_b                    12.861723
_cell_length_c                    14.934357
_cell_angle_alpha                 90.377455
_cell_angle_beta                  86.292748
_cell_angle_gamma                 93.677319
_cell_volume                      2304.40099925

loop_
_atom_site_label
_atom_site_type_symbol
_atom_type_description
_atom_site_fract_x
_atom_site_fract_y
_atom_site_fract_z
_atom_type_partial_charge
C1    C     C_R   0.522165 0.700420 0.498416 0.849691
C2    C     C_R   0.361937 0.136721 0.526975 -0.238790
C3    C     C_R   0.441878 0.867603 0.518117 -0.275238
C4    C     C_R   0.555686 0.132678 0.470204 -0.285958
C5    C     C_R   0.447677 0.973982 0.508972 0.186835
C6    C     C_R   0.549002 0.025867 0.476624 0.182970
C7    C     C_R   0.956265 0.428078 0.399521 -0.390770
C8    C     C_R   0.043736 0.573080 0.599905 -0.388620
C9    C     C_R   0.838839 0.426694 0.413000 0.586309
C10   C     C_R   0.161090 0.573480 0.586874 0.586429
C11   C     C_R   0.857063 0.531942 0.543917 0.572077
C12   C     C_R   0.477685 0.299658 0.499611 0.858953
C13   C     C_R   0.142892 0.469063 0.455571 0.573862
C14   C     C_R   0.974991 0.526793 0.536411 -0.144430
C15   C     C_R   0.024983 0.474573 0.462930 -0.143807
C16   C     C_R   0.500063 0.497839 0.672740 0.878242
C17   C     C_R   0.500198 0.503395 0.327202 0.878195
C18   C     C_R   0.427981 0.440029 0.190593 -0.262542
C19   C     C_R   0.559578 0.575732 0.808966 -0.262275
C20   C     C_R   0.499690 0.511314 0.231807 -0.084623
C21   C     C_R   0.500353 0.494352 0.768096 -0.073313
C22   C     C_R   0.567825 0.587638 0.182869 0.022693
C23   C     C_R   0.625034 0.658212 0.941813 -0.207124
C24   C     C_R   0.441812 0.413059 0.817709 0.037940
C25   C     C_R   0.563973 0.587909 0.088569 0.100570
C26   C     C_R   0.431184 0.423892 0.911712 0.103450
C27   C     C_R   0.494319 0.511018 0.046926 0.039362
C28   C     C_R   0.494374 0.505530 0.953249 0.035434
C29   C     C_R   0.426003 0.438037 0.098642 0.114517
C30   C     C_R   0.560070 0.580024 0.901215 0.115223
C31   C     C_R   0.628126 0.661627 0.034374 -0.229163
C32   C     C_R   0.360610 0.354891 0.965437 -0.230642
C33   C     C_3   0.643479 0.666269 0.231314 -0.416606
C34   C     C_R   0.357843 0.362335 0.057990 -0.210488
C35   C     C_3   0.764029 0.632993 0.226071 -0.284092
C36   C     C_3   0.835434 0.696426 0.290057 -0.903376
C37   C     C_3   0.403979 0.311319 0.771914 -0.418828
C38   C     C_3   0.475150 0.222626 0.798805 -0.354444
C39   C     C_3   0.448123 0.122159 0.747768 -0.876258
C40   C     C_3   0.183477 0.306806 0.405724 -0.282249
C41   C     C_3   0.815697 0.693891 0.594395 -0.277100
C42   C     C_3   0.199919 0.721371 0.671504 -0.351099
C43   C     C_3   0.803119 0.280667 0.324599 -0.372922
C44   C     C_R   0.463511 0.188165 0.497448 -0.053511
C45   C     C_R   0.535028 0.811990 0.494075 -0.049060
C46   C     C_R   0.642601 0.970370 0.452900 -0.222680
C47   C     C_R   0.353916 0.029200 0.532520 -0.230197
C48   C     C_R   0.635492 0.862990 0.461467 -0.232871
H1    H     H_    0.376243 0.383147 0.230667 0.169417
H2    H     H_    0.364073 0.828192 0.543391 0.164434
H3    H     H_    0.290965 0.179344 0.549908 0.153841
H4    H     H_    0.707178 0.820158 0.440972 0.151690
H5    H     H_    0.720487 0.009788 0.427659 0.130377
H6    H     H_    0.275962 0.989640 0.557438 0.132734
H7    H     H_    0.833755 0.781002 0.276039 0.255473
H8    H     H_    0.804185 0.680543 0.360465 0.259338
H9    H     H_    0.922889 0.673724 0.281540 0.254089
H10   H     H_    0.765139 0.549321 0.243721 0.267995
H11   H     H_    0.801897 0.643018 0.156660 0.207957
H12   H     H_    0.606175 0.635440 0.768310 0.157697
H13   H     H_    0.639746 0.745762 0.203751 0.182724
H14   H     H_    0.613579 0.675261 0.302560 0.205225
H15   H     H_    0.356815 0.102460 0.751174 0.261802
H16   H     H_    0.480299 0.130809 0.676951 0.278320
H17   H     H_    0.489743 0.057189 0.777410 0.247943
H18   H     H_    0.564991 0.246305 0.784793 0.230855
H19   H     H_    0.461472 0.206092 0.871612 0.228442
H20   H     H_    0.314090 0.291566 0.788895 0.193858
H21   H     H_    0.412298 0.317501 0.697788 0.203746
H22   H     H_    0.257282 0.269992 0.374396 0.187710
H23   H     H_    0.993358 0.393836 0.339493 0.198978
H24   H     H_    0.108964 0.269474 0.375839 0.140513
H25   H     H_    0.178893 0.289166 0.478882 0.140920
H26   H     H_    0.742665 0.730509 0.627251 0.185060
H27   H     H_    0.817915 0.711924 0.521463 0.137366
H28   H     H_    0.891171 0.731163 0.622887 0.139639
H29   H     H_    0.133386 0.717634 0.726631 0.165919
H30   H     H_    0.173688 0.765327 0.613198 0.136211
H31   H     H_    0.273267 0.765756 0.697244 0.192260
H32   H     H_    0.832810 0.235213 0.380648 0.144282
H33   H     H_    0.867952 0.289181 0.268358 0.167092
H34   H     H_    0.006891 0.607638 0.659904 0.200013
H35   H     H_    0.730660 0.235128 0.298651 0.194199
H36   H     H_    0.681858 0.722455 0.061789 0.149330
H37   H     H_    0.307045 0.294450 0.937087 0.153070
H38   H     H_    0.675295 0.715851 0.901745 0.144676
H39   H     H_    0.304021 0.307179 0.097915 0.146641
H40   H     H_    0.633875 0.172599 0.446474 0.169455
N1    N     N_R   0.207800 0.519350 0.516680 -0.183897
N2    N     N_R   0.792200 0.480650 0.483320 -0.182359
O1    O     O_R   0.421700 0.658830 0.504450 -0.597690
O2    O     O_3   0.805582 0.586051 0.613525 -0.584605
O3    O     O_3   0.231008 0.620312 0.647763 -0.555980
O4    O     O_3   0.768420 0.379144 0.352729 -0.568632
O5    O     O_R   0.578300 0.341170 0.495550 -0.595457
O6    O     O_R   0.609310 0.646410 0.493750 -0.635675
O7    O     O_R   0.390690 0.353590 0.506250 -0.634601
O8    O     O_R   0.406180 0.506230 0.637500 -0.570602
O9    O     O_R   0.593820 0.493770 0.362500 -0.571039
O10   O     O_R   0.593800 0.493820 0.626800 -0.572464
O11   O     O_R   0.406200 0.506180 0.373200 -0.575103
O12   O     O_3   0.194186 0.414529 0.386172 -0.587956
Zn1   Zn    Zn3+2 0.374730 0.508290 0.507150 1.009428
Zn2   Zn    Zn3+2 0.625270 0.491710 0.492850 1.005666

loop_
_geom_bond_atom_site_label_1
_geom_bond_atom_site_label_2
_ccdc_geom_bond_type
C25   C31   A    
C26   C32   A    
C16   C21   S    
C37   H21   S    
C27   C29   A    
C42   O3    S    
C43   H35   S    
C35   C36   S    
C23   H38   S    
C1    C45   S    
C17   C20   S    
C39   H16   S    
C5    C47   A    
C40   H22   S    
C35   H10   S    
C8    H34   S    
C19   C21   A    
C24   C26   A    
C7    H23   S    
C38   C39   S    
C11   C14   A    
O8    Zn1   S    
C37   H20   S    
O10   Zn2   S    
C43   O4    S    
C40   H25   S    
C35   H11   S    
C17   O11   A    
C41   H26   S    
C11   O2    S    
C38   H18   S    
C10   N1    A    
C2    C44   A    
C33   H14   S    
C22   C25   A    
C12   O5    A    
C6    C46   A    
C7    C15   A    
O9    Zn2   S    
C42   H31   S    
C1    O1    A    
N1    Zn1   S    
C39   H17   S    
C3    H2    S    
C46   C48   A    
C23   C30   A    
C4    C6    A    
C36   H9    S    
C16   O10   A    
C4    C44   A    
C10   O3    S    
C43   H32   S    
C29   C34   A    
C3    C45   A    
C31   H36   S    
C32   C34   A    
C37   C38   S    
C36   H8    S    
C41   H27   S    
C24   C37   S    
C33   H13   S    
C18   C29   A    
C17   O9    A    
N2    Zn2   S    
C12   O7    A    
O7    Zn1   S    
C47   H6    S    
C8    C10   A    
C20   C22   A    
C42   H30   S    
C13   C15   A    
C43   H33   S    
O5    Zn2   S    
C45   C48   A    
C7    C9    A    
C22   C33   S    
C8    C14   A    
C40   H24   S    
C13   N1    A    
O1    Zn1   S    
C3    C5    A    
C9    N2    A    
C4    H40   S    
C2    C47   A    
C25   C27   A    
C39   H15   S    
C26   C28   A    
O6    Zn2   S    
C12   C44   S    
C36   H7    S    
C41   H28   S    
C11   N2    A    
C16   O8    A    
C5    C6    A    
C1    O6    A    
C32   H37   S    
C46   H5    S    
C28   C30   A    
C33   C35   S    
C18   C20   A    
C34   H39   S    
C2    H3    S    
C40   O12   S    
C48   H4    S    
C41   O2    S    
C38   H19   S    
C42   H29   S    
O11   Zn1   S    
C21   C24   A    
C27   C28   A    
C14   C15   A    
C19   H12   S    
C13   O12   S    
C19   C30   A    
C9    O4    S    
C18   H1    S    
C23   C31   A    
