data_mof_unit_2445.cif
_audit_creation_date              2012-12-10T17:59:49-0500
_audit_creation_method            fapswitch 2.2
_symmetry_space_group_name_H-M    P1
_symmetry_Int_Tables_number       1
_space_group_crystal_system       triclinic
_cell_length_a                    10.886378
_cell_length_b                    9.60996
_cell_length_c                    15.894478
_cell_angle_alpha                 89.983168
_cell_angle_beta                  93.960467
_cell_angle_gamma                 89.999475
_cell_volume                      1658.87201403

loop_
_atom_site_label
_atom_site_type_symbol
_atom_type_description
_atom_site_fract_x
_atom_site_fract_y
_atom_site_fract_z
_atom_type_partial_charge
C1    C     C_R   0.264211 0.500004 0.509769 0.812014
C2    C     C_3   0.568588 0.349848 0.953893 0.166893
C3    C     C_3   0.567542 0.352805 0.055421 0.532029
C4    C     C_1   0.503394 0.495792 0.824642 -0.005452
C5    C     C_1   0.502015 0.497081 0.175668 0.185398
C6    C     C_1   0.500537 0.499461 0.251021 -0.032010
C7    C     C_R   0.066146 0.373053 0.524769 0.046052
C8    C     C_R   0.066104 0.627019 0.524515 0.046925
C9    C     C_R   0.939572 0.372606 0.503366 0.374193
C10   C     C_R   0.939537 0.627363 0.503099 0.372310
C11   C     C_R   0.873743 0.499975 0.497315 -0.293033
C12   C     C_R   0.131449 0.500033 0.523334 -0.161966
C13   C     C_R   0.423672 0.074498 0.442721 0.180970
C14   C     C_R   0.423691 0.925552 0.442711 0.171169
C15   C     C_R   0.499577 0.499983 0.340443 0.786631
C16   C     C_R   0.575091 0.926018 0.556743 0.435289
C17   C     C_R   0.575040 0.073937 0.556781 0.433446
C18   C     C_R   0.737993 0.499994 0.496390 0.909094
C19   C     C_R   0.500593 0.499923 0.659598 0.835581
C20   C     C_3   0.581052 0.617360 0.051344 0.224221
C21   C     C_3   0.370006 0.495285 0.041150 0.221007
C22   C     C_3   0.372148 0.502512 0.944069 -0.445935
C23   C     C_3   0.575754 0.619242 0.953869 -0.434255
C24   C     C_1   0.501747 0.499074 0.749148 -0.128840
C25   C     C_3   0.504558 0.491989 0.083343 -0.082614
C26   C     C_3   0.506096 0.489415 0.917114 0.094661
Cu1   Cu    Cu3+1 0.500020 0.640660 0.500000 1.033644
Cu2   Cu    Cu3+1 0.500020 0.359340 0.500000 1.032871
H1    H     H_    0.528200 0.715136 0.929407 0.239957
H2    H     H_    0.332101 0.602933 0.920384 0.238973
H3    H     H_    0.321204 0.398384 0.057144 0.171259
H4    H     H_    0.678951 0.605804 0.074820 0.175622
H5    H     H_    0.311483 0.420824 0.914299 0.170237
H6    H     H_    0.670223 0.625946 0.931920 0.181846
N1    N     N_R   0.500030 0.852070 0.500020 -0.231240
N2    N     N_R   0.500030 0.147930 0.500020 -0.229672
O1    O     O_R   0.319660 0.618740 0.500000 -0.605930
O2    O     O_R   0.319660 0.381260 0.500000 -0.605630
O3    O     O_R   0.500020 0.618840 0.379440 -0.570495
O4    O     O_R   0.500020 0.381160 0.379440 -0.567949
O5    O     O_R   0.680370 0.618830 0.500010 -0.494517
O6    O     O_R   0.680370 0.381170 0.500010 -0.492549
O7    O     O_R   0.500010 0.618730 0.620560 -0.546823
O8    O     O_R   0.500010 0.381270 0.620560 -0.552719
Cl1   Cl    Cl    0.674484 0.838296 0.631273 -0.481725
Cl2   Cl    Cl    0.674082 0.161591 0.631550 -0.496830
Cl3   Cl    Cl    0.537358 0.783767 0.091300 -0.441452
Cl4   Cl    Cl    0.275717 0.631822 0.079214 -0.494967
Cl5   Cl    Cl    0.719690 0.338424 0.108682 -0.537755
Cl6   Cl    Cl    0.489294 0.204849 0.098146 -0.526689
C27   C     C_3   0.701876 0.336768 0.924490 -0.675007
H7    H     H_    0.762939 0.421631 0.949383 0.235265
H8    H     H_    0.744227 0.236586 0.946116 0.277038
H9    H     H_    0.702278 0.338268 0.854632 0.235833
C28   C     C_3   0.498612 0.220718 0.915190 -0.680320
H10   H     H_    0.545144 0.122760 0.936729 0.282890
H11   H     H_    0.402192 0.215329 0.933164 0.235372
H12   H     H_    0.496528 0.221330 0.845225 0.226173
C29   C     C_3   0.126708 0.239237 0.556819 -0.675187
H13   H     H_    0.207040 0.260167 0.601897 0.214530
H14   H     H_    0.062520 0.177603 0.593428 0.259211
H15   H     H_    0.154380 0.175216 0.503423 0.243753
C30   C     C_3   0.126607 0.760988 0.556306 -0.672035
H16   H     H_    0.206795 0.740249 0.601551 0.215669
H17   H     H_    0.154481 0.824652 0.502795 0.242826
H18   H     H_    0.062331 0.822914 0.592655 0.260057
Cl7   Cl    Cl    0.871323 0.209889 0.474353 -0.465079
Cl8   Cl    Cl    0.871245 0.789919 0.473694 -0.471761
C31   C     C_3   0.338575 0.146895 0.376303 -0.664161
H19   H     H_    0.328611 0.258473 0.381416 0.263693
H20   H     H_    0.369607 0.125035 0.312545 0.250023
H21   H     H_    0.242499 0.110985 0.379434 0.191560
C32   C     C_3   0.338833 0.853193 0.376158 -0.649616
H22   H     H_    0.328626 0.741657 0.381426 0.264542
H23   H     H_    0.242760 0.889306 0.378922 0.190785
H24   H     H_    0.370306 0.874809 0.312482 0.252701

loop_
_geom_bond_atom_site_label_1
_geom_bond_atom_site_label_2
_ccdc_geom_bond_type
C28   H10   S    
C30   H17   S    
C11   C18   S    
C32   H22   S    
C3    Cl5   S    
C21   H3    S    
C23   H1    S    
C2    C28   S    
C18   O6    A    
C16   N1    A    
C5    C6    T    
C4    C24   T    
C20   C25   S    
Cu2   O4    S    
C23   C26   S    
C31   H20   S    
C6    C15   S    
Cu1   O3    S    
C16   C17   A    
C17   N2    A    
C1    O1    A    
C21   Cl4   S    
C30   H18   S    
C29   H13   S    
C21   C22   S    
C32   H23   S    
C1    C12   S    
C7    C29   S    
C3    Cl6   S    
C19   O7    A    
C7    C12   A    
C29   H14   S    
C27   H7    S    
C14   C32   S    
C3    C25   S    
C17   Cl2   S    
C13   N2    A    
C10   C11   A    
C18   O5    A    
C14   N1    A    
Cu1   N1    S    
Cu2   O8    S    
C27   H8    S    
C31   H21   S    
C9    Cl7   S    
Cu1   O5    S    
C20   C23   S    
Cu2   O2    S    
C8    C12   A    
C23   H6    S    
C2    C26   S    
C9    C11   A    
C15   O3    A    
C1    O2    A    
C5    C25   S    
C28   H11   S    
C32   H24   S    
C19   O8    A    
C20   H4    S    
C7    C9    A    
C22   H5    S    
C21   C25   S    
C29   H15   S    
C22   H2    S    
C16   Cl1   S    
C4    C26   S    
C10   Cl8   S    
C27   H9    S    
C2    C3    S    
C13   C31   S    
Cu1   O1    S    
Cu2   O6    S    
C19   C24   S    
C31   H19   S    
C15   O4    A    
C20   Cl3   S    
C2    C27   S    
C8    C30   S    
C30   H16   S    
Cu1   O7    S    
Cu2   N2    S    
C8    C10   A    
C22   C26   S    
C28   H12   S    
Cu1   Cu2   S    
C13   C14   A    
