data_mof_unit_3115.cif
_audit_creation_date              2012-12-10T19:36:45-0500
_audit_creation_method            fapswitch 2.2
_symmetry_space_group_name_H-M    P1
_symmetry_Int_Tables_number       1
_space_group_crystal_system       triclinic
_cell_length_a                    11.679687
_cell_length_b                    15.828856
_cell_length_c                    16.998659
_cell_angle_alpha                 96.358384
_cell_angle_beta                  90.037596
_cell_angle_gamma                 92.723574
_cell_volume                      3119.73038458

loop_
_atom_site_label
_atom_site_type_symbol
_atom_type_description
_atom_site_fract_x
_atom_site_fract_y
_atom_site_fract_z
_atom_type_partial_charge
C1    C     C_R   0.499056 0.489607 0.348504 0.869042
C2    C     C_R   0.473671 0.109846 0.498302 0.236437
C3    C     C_R   0.613555 0.842996 0.481309 0.083000
C4    C     C_R   0.403111 0.147818 0.445723 0.068719
C5    C     C_R   0.600376 0.752978 0.472001 0.398643
C6    C     C_R   0.411382 0.237177 0.442097 0.380379
C7    C     C_R   0.283864 0.500030 0.500546 0.849795
C8    C     C_R   0.716148 0.500000 0.499970 0.810530
C9    C     C_1   0.162306 0.500005 0.500752 -0.207357
C10   C     C_1   0.837709 0.500024 0.500186 -0.193850
C11   C     C_1   0.059846 0.499982 0.500679 -0.015619
C12   C     C_R   0.501148 0.510320 0.651198 0.879405
C13   C     C_1   0.940174 0.500005 0.500436 -0.013507
C14   C     C_R   0.491690 0.484413 0.261976 -0.186894
C15   C     C_R   0.503702 0.516147 0.737318 -0.168654
C16   C     C_R   0.416982 0.537687 0.227626 0.113428
C17   C     C_R   0.404428 0.492432 0.777995 0.106286
C18   C     C_R   0.414941 0.538232 0.144867 0.202548
C19   C     C_R   0.404166 0.503876 0.861401 0.205534
C20   C     C_R   0.478021 0.478941 0.096900 0.208943
C21   C     C_R   0.506847 0.531082 0.902995 0.200756
C22   C     C_R   0.548316 0.422713 0.130895 -0.111488
C23   C     C_R   0.557491 0.426745 0.213856 0.127224
C24   C     C_R   0.606154 0.553309 0.861747 -0.107722
C25   C     C_3   0.292358 0.369689 0.717332 -0.669735
C26   C     C_3   0.236884 0.542499 0.297215 -0.683510
C27   C     C_3   0.237475 0.565309 0.924016 -0.659384
C28   C     C_3   0.398521 0.679164 0.104903 -0.700456
C29   C     C_R   0.617100 0.362828 0.079051 0.193979
C30   C     C_R   0.562554 0.301125 0.023914 -0.147874
C31   C     C_R   0.627414 0.246072 0.973933 -0.149099
C32   C     C_R   0.747010 0.251890 0.978811 -0.113637
C33   C     C_R   0.801957 0.312694 0.033805 -0.181128
C34   C     C_R   0.604709 0.546497 0.778734 0.125071
C35   C     C_R   0.737429 0.368055 0.083748 -0.124141
C36   C     C_R   0.713533 0.581106 0.905633 0.190126
C37   C     C_R   0.760559 0.664240 0.904456 -0.110927
C38   C     C_R   0.862932 0.689573 0.944946 -0.147399
C39   C     C_R   0.918946 0.632099 0.986575 -0.119802
C40   C     C_R   0.872762 0.549147 0.987696 -0.155843
C41   C     C_R   0.770413 0.523645 0.947321 -0.139712
C42   C     C_3   0.600918 0.285097 0.247055 -0.624799
C43   C     C_3   0.779485 0.495739 0.718721 -0.671067
C44   C     C_R   0.622412 0.135027 0.609434 0.183150
C45   C     C_R   0.432005 0.758327 0.549603 -0.086020
C46   C     C_R   0.576967 0.125556 0.684469 -0.145373
C47   C     C_R   0.646517 0.100330 0.743803 -0.159354
C48   C     C_R   0.761922 0.085472 0.728737 -0.108954
C49   C     C_R   0.808021 0.096070 0.654380 -0.166912
C50   C     C_R   0.738586 0.120989 0.594806 -0.136099
C51   C     C_R   0.343047 0.894735 0.597106 0.164059
C52   C     C_R   0.368460 0.955512 0.662081 -0.106701
C53   C     C_R   0.280905 0.000817 0.700602 -0.159521
C54   C     C_R   0.167354 0.985208 0.674961 -0.109995
C55   C     C_R   0.141121 0.923835 0.611110 -0.153754
C56   C     C_R   0.554179 0.252974 0.542206 -0.092891
C57   C     C_R   0.228508 0.878438 0.572429 -0.173176
C58   C     C_3   0.809300 0.896291 0.499868 -0.720612
C59   C     C_3   0.221339 0.067863 0.432244 -0.673371
C60   C     C_3   0.655415 0.708232 0.337317 -0.655622
C61   C     C_3   0.225365 0.280183 0.399858 -0.618413
C62   C     C_R   0.435614 0.848304 0.554709 -0.147676
C63   C     C_R   0.550183 0.164757 0.547927 -0.155359
C64   C     C_R   0.528770 0.891799 0.520579 0.230452
Cu1   Cu    Cu3+1 0.494550 0.415220 0.496180 0.946639
Cu2   Cu    Cu3+1 0.505450 0.584780 0.503820 0.959924
H1    H     H_    0.611011 0.294667 0.581002 0.165130
H2    H     H_    0.256801 0.484400 0.324680 0.223655
H3    H     H_    0.250034 0.438114 0.881749 0.249053
H4    H     H_    0.198459 0.585613 0.869990 0.201332
H5    H     H_    0.294216 0.618218 0.952383 0.255730
H6    H     H_    0.168139 0.551391 0.966001 0.223181
H7    H     H_    0.262870 0.596971 0.130049 0.246437
H8    H     H_    0.415319 0.712512 0.164975 0.204271
H9    H     H_    0.340624 0.717613 0.073064 0.212611
H10   H     H_    0.480952 0.675397 0.072684 0.255296
H11   H     H_    0.469909 0.295737 0.019675 0.127806
H12   H     H_    0.363243 0.725155 0.578044 0.163005
H13   H     H_    0.584919 0.198911 0.931398 0.121675
H14   H     H_    0.797063 0.209315 0.939947 0.123342
H15   H     H_    0.894603 0.317365 0.037362 0.128650
H16   H     H_    0.781185 0.415709 0.125254 0.133353
H17   H     H_    0.717923 0.709220 0.872303 0.123105
H18   H     H_    0.898920 0.753728 0.943977 0.124773
H19   H     H_    0.998234 0.651789 0.017790 0.120524
H20   H     H_    0.916508 0.504547 0.019560 0.124813
H21   H     H_    0.735958 0.458994 0.947532 0.151090
H22   H     H_    0.678190 0.400623 0.298928 0.246344
H23   H     H_    0.229198 0.487605 0.755114 0.255401
H24   H     H_    0.584570 0.269575 0.308303 0.218054
H25   H     H_    0.671047 0.246017 0.221531 0.224255
H26   H     H_    0.522057 0.267971 0.210934 0.215680
H27   H     H_    0.695503 0.600954 0.690173 0.260815
H28   H     H_    0.802130 0.467409 0.773266 0.239852
H29   H     H_    0.735234 0.446300 0.676324 0.213227
H30   H     H_    0.859985 0.518205 0.691327 0.226055
H31   H     H_    0.488011 0.137919 0.696933 0.119853
H32   H     H_    0.611050 0.092560 0.801501 0.116575
H33   H     H_    0.815708 0.066082 0.774749 0.115488
H34   H     H_    0.275208 0.339667 0.772393 0.199124
H35   H     H_    0.897472 0.084820 0.642849 0.122459
H36   H     H_    0.775062 0.129208 0.537425 0.123828
H37   H     H_    0.455879 0.967298 0.682999 0.137339
H38   H     H_    0.301085 0.047921 0.750407 0.117284
H39   H     H_    0.099664 0.020415 0.704735 0.114636
H40   H     H_    0.053142 0.911677 0.591400 0.130324
H41   H     H_    0.207191 0.831633 0.522531 0.129078
H42   H     H_    0.692291 0.938290 0.423110 0.270801
H43   H     H_    0.881983 0.925582 0.468746 0.222958
H44   H     H_    0.835801 0.834603 0.517493 0.222031
H45   H     H_    0.371279 0.343757 0.689817 0.253892
H46   H     H_    0.789532 0.939044 0.553880 0.245741
H47   H     H_    0.363447 0.046919 0.361290 0.259817
H48   H     H_    0.240087 0.019443 0.472320 0.251265
H49   H     H_    0.159415 0.038812 0.386323 0.215779
H50   H     H_    0.180967 0.122046 0.466977 0.226158
H51   H     H_    0.760361 0.714330 0.436279 0.246557
H52   H     H_    0.702158 0.657295 0.302640 0.213589
H53   H     H_    0.687101 0.770681 0.319835 0.221040
H54   H     H_    0.562695 0.698555 0.322510 0.239233
H55   H     H_    0.364130 0.250698 0.327329 0.233222
H56   H     H_    0.219808 0.352349 0.675504 0.222897
H57   H     H_    0.176924 0.224318 0.368609 0.217408
H58   H     H_    0.195413 0.338156 0.376623 0.212818
H59   H     H_    0.206443 0.284438 0.464257 0.223521
H60   H     H_    0.326296 0.646920 0.260047 0.254341
H61   H     H_    0.183244 0.524081 0.243494 0.207013
H62   H     H_    0.187458 0.583994 0.340376 0.227438
N1    N     N_2   0.468675 0.473185 0.013652 -0.182938
N2    N     N_2   0.345524 0.595038 0.108933 -0.395796
N3    N     N_2   0.635495 0.374371 0.248271 -0.419371
N4    N     N_2   0.707010 0.566732 0.737477 -0.423571
N5    N     N_2   0.710320 0.883825 0.447962 -0.428833
N6    N     N_2   0.325127 0.096271 0.394420 -0.429522
N7    N     N_2   0.675008 0.704446 0.420978 -0.366233
N8    N     N_2   0.346924 0.274182 0.384905 -0.372032
N9    N     N_2   0.512650 0.536990 0.986673 -0.203707
N10   N     N_R   0.513630 0.712130 0.509560 -0.200870
N11   N     N_R   0.486370 0.287870 0.490440 -0.203281
N12   N     N_2   0.542822 0.983034 0.526896 -0.219476
N13   N     N_2   0.461392 0.018489 0.498421 -0.220841
N14   N     N_2   0.303915 0.461424 0.734242 -0.431000
N15   N     N_2   0.341182 0.587958 0.276904 -0.409675
N16   N     N_2   0.301349 0.489877 0.904199 -0.392794
O1    O     O_R   0.494910 0.420530 0.382500 -0.560948
O2    O     O_R   0.505090 0.579470 0.617500 -0.597333
O3    O     O_R   0.504100 0.563720 0.388950 -0.532735
O4    O     O_R   0.495900 0.436280 0.611050 -0.582955
O5    O     O_R   0.332600 0.428410 0.496780 -0.549951
O6    O     O_R   0.667400 0.571590 0.503220 -0.562937
O7    O     O_R   0.341800 0.571600 0.503230 -0.575696
O8    O     O_R   0.658200 0.428400 0.496770 -0.590197

loop_
_geom_bond_atom_site_label_1
_geom_bond_atom_site_label_2
_ccdc_geom_bond_type
C52   H37   S    
C19   N16   S    
C22   C29   S    
C58   H43   S    
H60   N15   S    
C1    O1    A    
C25   N14   S    
C21   N9    S    
C20   N1    S    
C28   H8    S    
C5    N10   A    
C3    C64   A    
C2    C63   A    
H3    N16   S    
C29   C30   A    
C47   H32   S    
C61   H58   S    
C58   H46   S    
C36   C37   A    
C8    O8    A    
Cu2   O6    S    
C49   H35   S    
C30   C31   A    
C53   H38   S    
C40   H20   S    
H23   N14   S    
C45   C62   A    
C43   H28   S    
C60   H53   S    
C5    N7    S    
C42   H25   S    
C46   C47   A    
C12   O2    A    
C6    N11   A    
C62   C64   A    
C17   C19   A    
C7    O5    A    
C30   H11   S    
C31   C32   A    
C59   H50   S    
C43   H29   S    
C60   H52   S    
C42   N3    S    
C51   C57   A    
H27   N4    S    
C25   H56   S    
C15   C34   A    
C18   C20   A    
C34   N4    S    
C44   C63   S    
C36   C41   A    
C51   C62   S    
C35   H16   S    
C44   C46   A    
C27   N16   S    
C6    N8    S    
C58   N5    S    
C41   H21   S    
C55   H40   S    
C51   C52   A    
C16   N15   S    
N12   N13   D    
C4    C6    A    
C39   C40   A    
C56   N11   A    
C53   C54   A    
C24   C34   A    
C17   N14   S    
C3    N5    S    
C14   C23   A    
C8    O6    A    
C37   C38   A    
C32   H14   S    
C25   H34   S    
C47   C48   A    
Cu2   N10   S    
C12   C15   S    
C43   H30   S    
C56   C63   A    
C23   N3    S    
C16   C18   A    
C26   H62   S    
Cu1   O4    S    
C31   H13   S    
C9    C11   T    
C60   N7    S    
Cu2   O3    S    
C45   H12   S    
C27   H4    S    
C7    O7    A    
C8    C10   S    
C40   C41   A    
C57   H41   S    
C46   H31   S    
C20   C22   A    
C50   H36   S    
H47   N6    S    
C55   C57   A    
C14   C16   A    
C18   N2    S    
C39   H19   S    
Cu1   O1    S    
C26   N15   S    
H51   N7    S    
C27   H5    S    
C52   C53   A    
C4    N6    S    
C64   N12   S    
C44   C50   A    
C54   C55   A    
C7    C9    S    
C48   H33   S    
H7    N2    S    
C48   C49   A    
C54   H39   S    
C38   H18   S    
C58   H44   S    
C3    C5    A    
C10   C13   T    
C15   C17   A    
C56   H1    S    
C29   C35   A    
C59   N6    S    
C24   C36   S    
C61   H57   S    
C26   H2    S    
C32   C33   A    
C12   O4    A    
Cu1   O8    S    
H42   N5    S    
C11   C13   S    
C28   N2    S    
C38   C39   A    
C59   H48   S    
C2    C4    A    
C45   N10   A    
C33   C35   A    
C43   N4    S    
C60   H54   S    
C42   H26   S    
C26   H61   S    
Cu1   Cu2   S    
H55   N8    S    
Cu1   O5    S    
Cu2   O2    S    
C1    O3    A    
C25   H45   S    
Cu1   N11   S    
Cu2   O7    S    
N1    N9    D    
C59   H49   S    
C49   C50   A    
C21   C24   A    
C2    N13   S    
C22   C23   A    
C37   H17   S    
C61   H59   S    
C1    C14   S    
H22   N3    S    
C42   H24   S    
C28   H9    S    
C33   H15   S    
C27   H6    S    
C61   N8    S    
C19   C21   A    
C28   H10   S    
