data_mof_unit_286.cif
_audit_creation_date              2012-12-11T17:06:46-0500
_audit_creation_method            fapswitch 2.2
_symmetry_space_group_name_H-M    P1
_symmetry_Int_Tables_number       1
_space_group_crystal_system       triclinic
_cell_length_a                    8.235491
_cell_length_b                    15.10328
_cell_length_c                    16.357855
_cell_angle_alpha                 97.436303
_cell_angle_beta                  93.338175
_cell_angle_gamma                 97.956308
_cell_volume                      1992.08919833

loop_
_atom_site_label
_atom_site_type_symbol
_atom_type_description
_atom_site_fract_x
_atom_site_fract_y
_atom_site_fract_z
_atom_type_partial_charge
Ba1   Ba    Ba6+2 0.163640 0.544330 0.462610 1.369221
Ba2   Ba    Ba6+2 0.646540 0.455660 0.537320 1.492719
C1    C     C_3   0.433197 0.890835 0.197703 -0.384488
C2    C     C_3   0.477000 0.822025 0.252841 0.292587
C3    C     C_3   0.550001 0.730692 0.656886 0.275683
C4    C     C_3   0.565596 0.832820 0.674568 -0.303843
C5    C     C_3   0.866522 0.209764 0.727466 0.100139
C6    C     C_3   0.833356 0.121610 0.763782 -0.349131
C7    C     C_3   0.390990 0.265216 0.753715 0.323053
C8    C     C_3   0.417514 0.244919 0.842292 -0.447462
C9    C     C_R   0.167535 0.167432 0.544814 -0.093606
C10   C     C_R   0.099685 0.074995 0.538289 -0.053911
C11   C     C_R   0.961924 0.888295 0.527146 0.011072
C12   C     C_3   0.949268 0.787786 0.288990 0.362178
C13   C     C_R   0.114776 0.922399 0.570457 -0.051410
C14   C     C_R   0.184152 0.012710 0.573737 -0.102972
C15   C     C_R   0.893145 0.794540 0.519067 0.023862
C16   C     C_R   0.739661 0.766287 0.476041 -0.280985
C17   C     C_R   0.920934 0.200413 0.470418 0.002316
C18   C     C_R   0.851896 0.106131 0.459610 -0.031962
C19   C     C_R   0.941309 0.044246 0.496819 0.042299
C20   C     C_R   0.697693 0.069187 0.415111 -0.069149
C21   C     C_R   0.628120 0.980686 0.418299 -0.180893
C22   C     C_R   0.715017 0.919636 0.452089 -0.016115
C23   C     C_3   0.985305 0.884334 0.268936 -0.338720
C24   C     C_R   0.873606 0.950544 0.491323 0.004743
C25   C     C_R   0.648202 0.827458 0.444727 -0.068551
C26   C     C_R   0.075838 0.227951 0.512665 -0.247620
C27   C     C_R   0.628313 0.536380 0.268836 -0.268699
C28   C     C_R   0.475067 0.486592 0.240886 -0.000876
C29   C     C_R   0.422756 0.475747 0.156573 -0.105078
C30   C     C_R   0.525544 0.513335 0.099667 0.250121
C31   C     C_R   0.684249 0.557140 0.128254 -0.170177
C32   C     C_R   0.735867 0.567934 0.212478 -0.072488
C33   C     C_R   0.384393 0.517571 0.853775 -0.129385
C34   C     C_3   0.760378 0.348916 0.288093 0.262489
C35   C     C_R   0.333074 0.512611 0.770274 0.004189
C36   C     C_R   0.281086 0.474574 0.907683 0.172467
C37   C     C_R   0.181874 0.463216 0.739126 -0.319334
C38   C     C_R   0.073153 0.426115 0.792160 -0.042387
C39   C     C_R   0.123184 0.430846 0.876331 -0.196533
C40   C     C_3   0.699555 0.321337 0.197334 -0.323178
C41   C     C_3   0.090743 0.689192 0.723154 0.189600
C42   C     C_3   0.184896 0.750430 0.797847 -0.255591
C43   C     C_3   0.168855 0.267435 0.275842 0.226071
C44   C     C_3   0.128688 0.261555 0.182578 -0.367619
H1    H     H_    0.571045 0.286128 0.191963 0.102405
H2    H     H_    0.705278 0.381095 0.164597 0.021578
H3    H     H_    0.777398 0.275245 0.166112 0.093868
H4    H     H_    0.180504 0.658411 0.685324 -0.024548
H5    H     H_    0.270158 0.804749 0.776814 0.093276
H6    H     H_    0.257154 0.710845 0.835158 0.064004
H7    H     H_    0.098665 0.782857 0.837639 0.124518
H8    H     H_    0.081479 0.302373 0.311166 0.040861
H9    H     H_    0.311431 0.867050 0.163188 0.125052
H10   H     H_    0.018713 0.210606 0.161398 0.065889
H11   H     H_    0.233874 0.242165 0.148286 0.108414
H12   H     H_    0.101624 0.327604 0.167190 0.075767
H13   H     H_    0.600242 0.848413 0.284074 -0.141819
H14   H     H_    0.526544 0.901433 0.152281 0.028812
H15   H     H_    0.672015 0.711726 0.643749 0.009530
H16   H     H_    0.462556 0.708495 0.601411 0.033709
H17   H     H_    0.642011 0.857670 0.733339 0.145171
H18   H     H_    0.623006 0.863391 0.623224 0.084837
H19   H     H_    0.442455 0.853879 0.679564 0.060091
H20   H     H_    0.427978 0.956470 0.235992 0.093723
H21   H     H_    0.817163 0.198760 0.661571 0.076625
H22   H     H_    0.001411 0.231423 0.731417 -0.036517
H23   H     H_    0.700157 0.094189 0.753393 0.136778
H24   H     H_    0.866736 0.134723 0.831490 0.104553
H25   H     H_    0.268200 0.286061 0.744634 -0.091957
H26   H     H_    0.485673 0.322649 0.746173 0.090837
H27   H     H_    0.423158 0.308565 0.885582 0.121667
H28   H     H_    0.014379 0.786756 0.350261 0.039581
H29   H     H_    0.536452 0.219388 0.851007 0.115578
H30   H     H_    0.183556 0.880127 0.602810 0.097870
H31   H     H_    0.303865 0.033375 0.606514 0.069083
H32   H     H_    0.505707 0.958609 0.389002 0.076923
H33   H     H_    0.686189 0.696052 0.471121 0.043634
H34   H     H_    0.128154 0.298523 0.519264 0.055158
H35   H     H_    0.503102 0.555866 0.876252 0.095133
H36   H     H_    0.766953 0.583231 0.085026 0.079622
H37   H     H_    0.302917 0.438367 0.135754 0.079433
H38   H     H_    0.814974 0.769783 0.293307 2.065781
H39   H     H_    0.039407 0.401326 0.917408 0.151389
H40   H     H_    0.668431 0.544953 0.333913 0.070620
H41   H     H_    0.143355 0.459728 0.674243 0.084285
H42   H     H_    0.945195 0.930808 0.319491 0.034381
H43   H     H_    0.119363 0.903954 0.266267 0.159321
H44   H     H_    0.664197 0.378341 0.321965 0.046953
H45   H     H_    0.872585 0.399720 0.292641 0.048941
N1    N     N_2   0.475920 0.508642 0.013984 -0.214143
N2    N     N_2   0.328707 0.476698 0.993423 -0.178249
O1    O     O_2   0.162600 0.722340 0.548210 -0.474997
O2    O     O_3   0.330695 0.309547 0.298324 -0.616196
O3    O     O_3   0.006677 0.727186 0.228464 -0.532987
O4    O     O_2   0.647690 0.277600 0.451760 -0.441400
O5    O     O_3   0.919560 0.391080 0.454480 -0.507430
O6    O     O_3   0.416160 0.333430 0.599820 -0.481729
O7    O     O_3   0.796078 0.271932 0.320004 -0.642233
O8    O     O_3   0.378690 0.546410 0.598120 -0.490808
O9    O     O_3   0.838760 0.379260 0.642200 -0.491942
O10   O     O_2   0.740210 0.440682 0.788390 -0.457333
O11   O     O_3   0.787557 0.273906 0.773205 -0.530651
O12   O     O_3   0.890740 0.608910 0.545450 -0.511845
O13   O     O_3   0.431610 0.453580 0.401810 -0.471308
O14   O     O_2   0.628260 0.544210 0.698310 -0.444755
O15   O     O_3   0.494512 0.693265 0.726312 -0.630503
O16   O     O_2   0.511696 0.175856 0.549195 -0.473374
O17   O     O_3   0.406760 0.189329 0.696672 -0.591057
O18   O     O_3   0.394140 0.666560 0.400120 -0.460530
O19   O     O_2   0.320173 0.822175 0.464949 -0.492087
O20   O     O_3   0.999612 0.741402 0.679288 -0.624713
O21   O     O_3   0.354396 0.810735 0.308868 -0.556291
O22   O     O_2   0.182040 0.455730 0.301660 -0.485254
O23   O     O_3   0.971540 0.620730 0.357730 -0.514751
O24   O     O_2   0.073099 0.561432 0.212000 -0.429822
P1    P     P_3+3 0.987090 0.708160 0.571840 0.977983
P2    P     P_3+3 0.349530 0.428340 0.313070 1.023123
P3    P     P_3+3 0.946757 0.617685 0.250857 1.005444
P4    P     P_3+3 0.823210 0.291830 0.428100 0.982135
P5    P     P_3+3 0.861391 0.380809 0.749669 1.046579
P6    P     P_3+3 0.434075 0.783135 0.402801 0.967596
P7    P     P_3+3 0.455554 0.575746 0.701176 0.979568
P8    P     P_3+3 0.374811 0.215826 0.596079 1.016646
C45   C     C_2   0.484696 0.734781 0.199174 0.504380
H46   H     H_    0.586473 0.729181 0.160564 -0.075655
O25   O     O_2   0.375701 0.670876 0.196876 -0.536972
C46   C     C_2   0.973600 0.615928 0.749742 0.517342
H47   H     H_    0.923733 0.559465 0.703681 0.016054
O26   O     O_2   0.933009 0.618788 0.820621 -0.589658
C47   C     C_1   0.153560 0.175983 0.298571 0.260589
N3    N     N_1   0.141473 0.103890 0.316572 -0.356243
C48   C     C_2   0.897661 0.896242 0.189098 0.512506
H48   H     H_    0.812390 0.944855 0.189034 -0.039879
O27   O     O_2   0.924425 0.853611 0.123881 -0.574348
C49   C     C_2   0.934449 0.054451 0.726225 0.561213
H49   H     H_    0.066210 0.072574 0.725732 -0.017613
O28   O     O_2   0.869816 0.978875 0.696399 -0.620297
C50   C     C_2   0.282620 0.176082 0.862761 0.598147
H50   H     H_    0.273087 0.106427 0.834320 -0.032258
O29   O     O_2   0.185188 0.197433 0.912515 -0.608394
C51   C     C_1   0.606753 0.112051 0.357541 0.347669
N4    N     N_1   0.529491 0.142882 0.310181 -0.272730

loop_
_geom_bond_atom_site_label_1
_geom_bond_atom_site_label_2
_ccdc_geom_bond_type
O5    P4    S    
C19   C24   A    
C45   H46   S    
O13   P2    S    
C34   C40   S    
C17   C18   A    
C22   C25   A    
C12   H38   S    
C33   H35   S    
C5    C6    S    
O6    P8    S    
C30   N1    S    
C43   C44   S    
C49   O28   D    
C6    H23   S    
C12   H28   S    
C2    O21   S    
C33   C35   A    
C22   C24   A    
C14   H31   S    
C3    C4    S    
C8    H27   S    
O11   P5    S    
C28   P2    S    
Ba2   O9    S    
C51   N4    T    
Ba2   O14   S    
C29   H37   S    
C36   N2    S    
Ba1   Ba2   S    
Ba1   P2    S    
C4    H18   S    
O4    P4    D    
C5    H22   S    
C1    H9    S    
C42   H7    S    
C4    H19   S    
C10   C14   A    
Ba2   O4    S    
Ba1   O1    S    
C20   C51   S    
C21   C22   A    
C7    H26   S    
Ba1   O23   S    
C37   H41   S    
C7    C8    S    
Ba1   O13   S    
C40   H1    S    
C1    H14   S    
C42   H6    S    
C13   H30   S    
C12   C23   S    
C44   H12   S    
C8    C50   S    
O14   P7    D    
O15   P7    S    
C26   H34   S    
C12   O3    S    
C31   C32   A    
C32   P3    S    
O8    P7    S    
O18   P6    S    
C41   C46   S    
C33   C36   A    
C50   H50   S    
C36   C39   A    
O24   P3    D    
C37   C38   A    
C25   P6    S    
C16   H33   S    
C48   O27   D    
C40   H3    S    
Ba2   O8    S    
O2    P2    S    
C27   C32   A    
Ba2   O13   S    
C23   H42   S    
O23   P3    S    
C6    C49   S    
C4    H17   S    
C41   C42   S    
C27   C28   A    
C23   C48   S    
C35   P7    S    
C8    H29   S    
C29   C30   A    
C15   C16   A    
C3    H15   S    
C34   O7    S    
C40   H2    S    
C17   C26   A    
C27   H40   S    
C15   P1    S    
O19   P6    D    
O21   P6    S    
C42   H5    S    
O16   P8    D    
C38   C39   A    
C18   C20   A    
C43   H8    S    
O22   P2    D    
C5    O11   S    
C11   C13   A    
C44   H11   S    
C11   C24   A    
C1    H20   S    
C1    C2    S    
C43   O2    S    
Ba1   O8    S    
C39   H39   S    
C34   H45   S    
C46   H47   S    
C31   H36   S    
Ba2   P4    S    
C34   H44   S    
C7    O17   S    
C17   P4    S    
C45   O25   D    
C9    P8    S    
C6    H24   S    
O3    P3    S    
C16   C25   A    
C7    H25   S    
C50   O29   D    
Ba1   O5    S    
Ba2   O6    S    
C9    C10   A    
C41   H4    S    
C48   H48   S    
C2    C45   S    
C38   P5    S    
C49   H49   S    
Ba2   O12   S    
C23   H43   S    
C11   C15   A    
C30   C31   A    
C35   C37   A    
C41   O20   S    
O1    P1    D    
C28   C29   A    
C9    C26   A    
C10   C19   A    
C2    H13   S    
N1    N2    D    
C3    H16   S    
C47   N3    T    
Ba1   P1    S    
C21   H32   S    
O12   P1    S    
O17   P8    S    
C5    H21   S    
O20   P1    S    
C18   C19   A    
Ba2   O5    S    
C43   C47   S    
C44   H10   S    
C20   C21   A    
Ba1   O22   S    
O9    P5    S    
O10   P5    D    
Ba1   O18   S    
C13   C14   A    
Ba1   O12   S    
C46   O26   D    
C3    O15   S    
O7    P4    S    
