data_mof_unit_1032.cif
_audit_creation_date              2013-03-05T16:41:35-0500
_audit_creation_method            fapswitch 2.2
_symmetry_space_group_name_H-M    P1
_symmetry_Int_Tables_number       1
_space_group_crystal_system       triclinic
_cell_length_a                    12.817623
_cell_length_b                    10.697109
_cell_length_c                    9.900121
_cell_angle_alpha                 89.786557
_cell_angle_beta                  97.502005
_cell_angle_gamma                 90.289121
_cell_volume                      1345.77784965

loop_
_atom_site_label
_atom_site_type_symbol
_atom_site_description
_atom_site_fract_x
_atom_site_fract_y
_atom_site_fract_z
_atom_type_partial_charge
O1    O     O_R   0.500010 0.316790 0.614690 -0.619334
O2    O     O_R   0.500000 0.316760 0.385350 -0.619933
C1    C     C_R   0.501653 0.260217 0.500453 0.937540
O3    O     O_R   0.346360 0.499990 0.595720 -0.609537
O4    O     O_R   0.346350 0.499960 0.366370 -0.553978
C2    C     C_R   0.298362 0.500729 0.472952 0.964588
Zn1   Zn    Zn3+2 0.500010 0.500020 0.653130 0.975754
Zn2   Zn    Zn3+2 0.499990 0.499980 0.346870 0.991865
O5    O     O_R   0.500000 0.683240 0.614650 -0.612990
O6    O     O_R   0.499990 0.683210 0.385310 -0.620042
O7    O     O_R   0.653650 0.500040 0.633630 -0.628818
O8    O     O_R   0.653640 0.500010 0.404280 -0.638159
C3    C     C_R   0.502675 0.739710 0.500304 0.866057
C4    C     C_R   0.701663 0.499979 0.527200 0.893904
C5    C     C_R   0.813817 0.495844 0.544585 -0.113744
C6    C     C_R   0.186326 0.507396 0.456371 -0.129195
C7    C     C_R   0.025392 0.603571 0.353427 0.465663
C8    C     C_R   0.133727 0.587427 0.359268 -0.274716
C9    C     C_R   0.133786 0.443632 0.549536 -0.169018
C10   C     C_R   0.027558 0.462577 0.550974 0.026828
C11   C     C_R   0.972627 0.541684 0.450516 0.053803
C12   C     C_R   0.865634 0.556926 0.448696 -0.212799
C13   C     C_R   0.867722 0.422995 0.647953 -0.316530
C14   C     C_R   0.975735 0.404849 0.651692 0.479749
H1    H     H_    0.821388 0.614639 0.371228 0.210021
H2    H     H_    0.825120 0.376377 0.721500 0.148994
H3    H     H_    0.177500 0.640987 0.292522 0.204002
H4    H     H_    0.177002 0.381391 0.622833 0.272955
C15   C     C_R   0.495991 0.062228 0.619684 -0.003536
C16   C     C_R   0.512237 0.128451 0.503039 -0.040518
C17   C     C_R   0.544934 0.065506 0.391778 -0.193783
H5    H     H_    0.564366 0.115373 0.302857 0.163858
C18   C     C_R   0.545928 0.936004 0.391729 -0.191924
H6    H     H_    0.565091 0.887416 0.302411 0.172858
C19   C     C_R   0.515602 0.871212 0.503782 -0.054822
C20   C     C_R   0.500864 0.935308 0.621575 0.059163
C21   C     C_3   0.417969 0.921712 0.713788 -0.498533
C22   C     C_3   0.410910 0.063620 0.711199 0.162518
H7    H     H_    0.346400 0.872632 0.664004 0.221876
H8    H     H_    0.450394 0.883859 0.815274 0.191789
H9    H     H_    0.436814 0.107739 0.811395 0.094635
C23   C     C_R   0.411230 0.529542 0.056224 0.078955
N1    N     N_R   0.499290 0.499140 0.142710 -0.126732
C24   C     C_R   0.590050 0.478845 0.086892 -0.134147
H10   H     H_    0.662499 0.459766 0.152331 0.167746
C25   C     C_R   0.590082 0.479173 0.943376 -0.115662
H11   H     H_    0.662420 0.460639 0.901940 0.152791
N2    N     N_R   0.499290 0.499180 0.857070 -0.094563
C26   C     C_R   0.411158 0.528451 0.913679 -0.026769
C27   C     C_3   0.307092 0.461747 0.890245 0.153442
C28   C     C_3   0.306247 0.464547 0.044304 0.716977
H12   H     H_    0.244694 0.519328 0.831745 0.147954
N3    N     N_R   0.307064 0.105782 0.647774 0.250520
O9    O     O_R   0.227751 0.098291 0.717090 -0.306175
O10   O     O_R   0.290782 0.144201 0.521920 -0.385247
O11   O     O_3   0.312176 0.340577 0.836444 -0.670933
H13   H     H_    0.379929 0.301945 0.874298 0.326612
O12   O     O_3   0.227974 0.542985 0.081871 -0.787092
H14   H     H_    0.160182 0.498296 0.056854 0.358281
O13   O     O_3   0.306005 0.346600 0.108882 -0.679811
H15   H     H_    0.374506 0.305134 0.104236 0.314195
O14   O     O_3   0.970689 0.681217 0.257327 -0.772662
H16   H     H_    0.019955 0.715858 0.197242 0.351207
O15   O     O_3   0.031402 0.331020 0.750819 -0.718552
H17   H     H_    0.982810 0.298911 0.813172 0.343156

loop_
_geom_bond_atom_site_label_1
_geom_bond_atom_site_label_2
_geom_bond_distance
_ccdc_geom_bond_type
C15   C22   1.506181 S    
C1    C16   1.416522 S    
C27   H12   1.111684 S    
N1    C24   1.370086 A    
C17   C18   1.385421 A    
C3    C19   1.415610 S    
C15   C16   1.390672 A    
C7    O14   1.382913 S    
O4    Zn2   2.003667 S    
C9    C10   1.379525 A    
Zn2   N1    2.020111 S    
C23   C28   1.502582 S    
Zn2   O8    1.977218 S    
Zn1   N2    2.020242 S    
C10   C11   1.420495 A    
O14   H16   0.991961 S    
C5    C13   1.395273 A    
C7    C8    1.393831 A    
C5    C12   1.387400 A    
C14   O15   1.383100 S    
C28   O12   1.398979 S    
O1    Zn1   1.998027 S    
N3    O9    1.300677 A    
O15   H17   0.991775 S    
Zn1   O7    2.003666 S    
C9    H4    1.082522 S    
C15   C20   1.359377 A    
C21   C22   1.521078 S    
C22   N3    1.468036 S    
O3    Zn1   1.977219 S    
Zn2   O6    1.998024 S    
C20   C21   1.494736 S    
C18   C19   1.402227 A    
C24   C25   1.420873 A    
O2    C1    1.285889 A    
C21   H8    1.111664 S    
N3    O10   1.301553 A    
C6    C9    1.386480 A    
O4    C2    1.288948 A    
C21   H7    1.113143 S    
O7    C4    1.287743 A    
C25   N2    1.368088 A    
O3    C2    1.288612 A    
C23   N1    1.364608 A    
C8    H3    1.081867 S    
C23   C26   1.411187 A    
C2    C6    1.426056 S    
C10   C14   1.407492 A    
C16   C17   1.404005 A    
C18   H6    1.083419 S    
O11   H13   0.991403 S    
C22   H9    1.110336 S    
C6    C8    1.393577 A    
C26   C27   1.501011 S    
C25   H11   1.081237 S    
C13   H2    1.084153 S    
O2    Zn2   1.995209 S    
Zn1   O5    1.995209 S    
O5    C3    1.285465 A    
C4    C5    1.426230 S    
N2    C26   1.363236 A    
C28   O13   1.412475 S    
C13   C14   1.394668 A    
C27   C28   1.527062 S    
O12   H14   0.992682 S    
C11   C12   1.379638 A    
O6    C3    1.287333 A    
C17   H5    1.083504 S    
C27   O11   1.408211 S    
C24   H10   1.080530 S    
C19   C20   1.389426 A    
O8    C4    1.290033 A    
O13   H15   0.992176 S    
O1    C1    1.287323 A    
C12   H1    1.085078 S    
C7    C11   1.407149 A    
