data_mof_unit_4771.cif
_audit_creation_date              2012-10-26T18:27:08-0400
_audit_creation_method            fapswitch 2.2
_symmetry_space_group_name_H-M    P1
_symmetry_Int_Tables_number       1
_space_group_crystal_system       triclinic
_cell_length_a                    15.034535
_cell_length_b                    10.925319
_cell_length_c                    9.776177
_cell_angle_alpha                 90.32465
_cell_angle_beta                  90.353864
_cell_angle_gamma                 90.828634
_cell_volume                      1605.58123812

loop_
_atom_site_label
_atom_site_type_symbol
_atom_type_description
_atom_site_fract_x
_atom_site_fract_y
_atom_site_fract_z
_atom_type_partial_charge
C1    C     C_R   0.498735 0.265618 0.499806 0.554242
C2    C     C_R   0.186359 0.446791 0.608928 -0.133458
C3    C     C_R   0.232046 0.499384 0.499520 -0.009569
C4    C     C_R   0.328911 0.499605 0.499634 0.545525
C5    C     C_R   0.185460 0.554207 0.392836 -0.138041
C6    C     C_2   0.497997 0.932337 0.388080 -0.158806
C7    C     C_2   0.505335 0.866665 0.502974 -0.118888
C8    C     C_2   0.501801 0.066465 0.387628 -0.160828
C9    C     C_2   0.493985 0.133487 0.501913 -0.119799
C10   C     C_2   0.440818 0.445450 0.927874 0.145739
C11   C     C_2   0.430766 0.479013 0.076159 -0.010265
C12   C     C_R   0.906845 0.560742 0.398439 0.021334
C13   C     C_R   0.501113 0.734421 0.500384 0.557913
C14   C     C_R   0.670986 0.500007 0.500409 0.550450
C15   C     C_R   0.814137 0.560416 0.399012 -0.126605
C16   C     C_R   0.767667 0.499592 0.501446 -0.029193
C17   C     C_R   0.813047 0.438837 0.605176 -0.147542
C18   C     C_R   0.906432 0.437368 0.608677 0.009952
C19   C     C_R   0.953251 0.499908 0.504333 -0.005691
C20   C     C_3   0.378969 0.344481 0.877604 -0.248606
C21   C     C_3   0.403863 0.221802 0.940126 -0.458541
C22   C     C_3   0.547961 0.609335 0.891989 -0.089398
C23   C     C_R   0.953677 0.378316 0.715732 0.022837
C24   C     C_3   0.486767 0.717601 0.921475 -0.399570
C25   C     C_3   0.906495 0.283797 0.806031 -0.281607
C26   C     C_3   0.874053 0.172567 0.722571 -0.431383
C27   C     C_3   0.094181 0.388719 0.868059 -0.281129
C28   C     C_3   0.135793 0.509905 0.918953 -0.448898
C29   C     C_3   0.890742 0.630019 0.081742 -0.003453
C30   C     C_3   0.829278 0.706960 0.992901 -0.259124
C31   C     C_3   0.808393 0.643875 0.856973 -0.482228
C32   C     C_R   0.046560 0.402369 0.729904 0.025332
C33   C     C_R   0.093325 0.449520 0.615449 0.027401
C34   C     C_R   0.046387 0.500606 0.504394 0.023265
C35   C     C_R   0.092861 0.556313 0.395030 -0.030340
C36   C     C_R   0.046457 0.616989 0.291755 -0.115566
C37   C     C_R   0.953796 0.621103 0.293785 0.256452
Cu1   Cu    Cu3+1 0.500020 0.500020 0.638630 0.895236
Cu2   Cu    Cu3+1 0.499980 0.499980 0.361370 0.914468
H1    H     H_    0.777438 0.607910 0.320202 0.159945
H2    H     H_    0.082107 0.664360 0.211305 0.114287
H3    H     H_    0.490321 0.886905 0.289471 0.146469
H4    H     H_    0.473121 0.198279 0.912308 0.157572
H5    H     H_    0.398029 0.225046 0.053318 0.153015
H6    H     H_    0.358282 0.148890 0.900284 0.129473
H7    H     H_    0.309741 0.366505 0.906674 0.099334
H8    H     H_    0.379344 0.333355 0.766108 0.208259
H9    H     H_    0.524477 0.804958 0.908987 0.103509
H10   H     H_    0.428860 0.717192 0.850467 0.174798
H11   H     H_    0.462047 0.714937 0.028004 0.143719
H12   H     H_    0.516522 0.908414 0.602316 0.093845
H13   H     H_    0.595202 0.594207 0.976482 0.083333
H14   H     H_    0.593593 0.637408 0.809394 0.183177
H15   H     H_    0.824169 0.197267 0.643963 0.155718
H16   H     H_    0.931229 0.128921 0.671048 0.159669
H17   H     H_    0.842771 0.104463 0.791905 0.133866
H18   H     H_    0.950141 0.244369 0.884848 0.137798
H19   H     H_    0.850606 0.326181 0.861815 0.125969
H20   H     H_    0.196110 0.535910 0.860940 0.153925
H21   H     H_    0.087201 0.584968 0.910500 0.149332
H22   H     H_    0.155833 0.500981 0.027997 0.127049
H23   H     H_    0.510036 0.110673 0.289143 0.145964
H24   H     H_    0.048441 0.362162 0.950931 0.136145
H25   H     H_    0.145402 0.316789 0.861729 0.131349
H26   H     H_    0.856508 0.541019 0.103663 0.121353
H27   H     H_    0.953122 0.612322 0.025063 0.135195
H28   H     H_    0.766071 0.722831 0.048302 0.163530
H29   H     H_    0.861557 0.797205 0.972710 0.176935
H30   H     H_    0.870687 0.630589 0.798716 0.166564
H31   H     H_    0.763181 0.701550 0.795428 0.146144
H32   H     H_    0.775227 0.553929 0.874740 0.142967
H33   H     H_    0.482163 0.092806 0.600906 0.096420
H34   H     H_    0.364920 0.478748 0.120780 0.133836
H35   H     H_    0.557592 0.464377 0.116158 0.218347
H36   H     H_    0.774137 0.394946 0.683956 0.130121
H37   H     H_    0.224263 0.400780 0.686926 0.111574
H38   H     H_    0.221370 0.597056 0.309484 0.114231
N1    N     N_2   0.499020 0.498660 0.846910 -0.230804
N2    N     N_2   0.499000 0.498630 0.153040 -0.367959
O1    O     O_R   0.500020 0.321960 0.617040 -0.512000
O2    O     O_R   0.499980 0.321920 0.382900 -0.491059
O3    O     O_R   0.370270 0.499990 0.617090 -0.520258
O4    O     O_R   0.370240 0.499950 0.382940 -0.502678
O5    O     O_R   0.500020 0.678080 0.617100 -0.518524
O6    O     O_R   0.499980 0.678040 0.382960 -0.485215
O7    O     O_R   0.629760 0.500050 0.617060 -0.516371
O8    O     O_R   0.629730 0.500010 0.382910 -0.504652
O9    O     O_3   0.910026 0.696081 0.202888 -0.576837

loop_
_geom_bond_atom_site_label_1
_geom_bond_atom_site_label_2
_ccdc_geom_bond_type
C37   O9    S    
C35   C36   A    
C9    H33   S    
Cu2   O8    S    
C26   H16   S    
C10   N1    D    
C13   O5    A    
Cu1   O7    S    
C36   C37   A    
C14   O8    A    
C34   C35   A    
C30   C31   S    
C1    O2    A    
C15   C16   A    
C18   C19   A    
C12   C37   A    
C29   O9    S    
C21   H4    S    
C31   H31   S    
C10   C20   S    
C8    C9    D    
C30   H28   S    
C28   H22   S    
C31   H32   S    
Cu1   O3    S    
C36   H2    S    
C25   H18   S    
C26   H15   S    
C17   C18   A    
C22   H14   S    
C21   H6    S    
C28   H21   S    
C24   H11   S    
C18   C23   A    
C24   H9    S    
C1    C9    S    
C14   O7    A    
C27   H25   S    
Cu2   O2    S    
C16   C17   A    
C6    C8    S    
Cu1   N1    S    
C25   C26   S    
Cu2   N2    S    
C29   C30   S    
C21   H5    S    
C12   C15   A    
C7    C13   S    
C33   C34   A    
C22   N1    S    
C11   N2    D    
C29   H26   S    
C2    C33   A    
H35   N2    S    
C11   H34   S    
C14   C16   S    
C25   H19   S    
Cu2   O6    S    
C5    H38   S    
C3    C4    S    
C2    H37   S    
C22   H13   S    
C28   H20   S    
C24   H10   S    
Cu1   O5    S    
C27   C32   S    
C3    C5    A    
C19   C34   A    
C26   H17   S    
C6    C7    D    
C23   C32   A    
C2    C3    A    
C7    H12   S    
C32   C33   A    
Cu1   Cu2   S    
C4    O4    A    
Cu1   O1    S    
C5    C35   A    
C12   C19   A    
C22   C24   S    
C23   C25   S    
C20   H7    S    
C15   H1    S    
C20   H8    S    
C10   C11   S    
Cu2   O4    S    
C29   H27   S    
C31   H30   S    
C4    O3    A    
C20   C21   S    
C6    H3    S    
C13   O6    A    
C27   C28   S    
C17   H36   S    
C1    O1    A    
C27   H24   S    
C30   H29   S    
C8    H23   S    
