data_mof_unit_280.cif
_audit_creation_date              2012-12-10T20:00:04-0500
_audit_creation_method            fapswitch 2.2
_symmetry_space_group_name_H-M    P1
_symmetry_Int_Tables_number       1
_space_group_crystal_system       triclinic
_cell_length_a                    14.998559
_cell_length_b                    14.429535
_cell_length_c                    8.896844
_cell_angle_alpha                 90.003001
_cell_angle_beta                  92.397502
_cell_angle_gamma                 89.998933
_cell_volume                      1923.78937865

loop_
_atom_site_label
_atom_site_type_symbol
_atom_type_description
_atom_site_fract_x
_atom_site_fract_y
_atom_site_fract_z
_atom_type_partial_charge
C1    C     C_R   0.328189 0.500015 0.499514 0.839756
C2    C     C_R   0.443089 0.895274 0.402806 -0.279550
C3    C     C_R   0.499767 0.500025 0.219152 0.940040
C4    C     C_R   0.500235 0.500027 0.780848 0.940106
C5    C     C_R   0.499999 0.051034 0.499991 0.095780
C6    C     C_R   0.500002 0.946036 0.499989 0.076402
C7    C     C_1   0.499922 0.500078 0.065512 -0.215632
C8    C     C_1   0.500083 0.500082 0.934488 -0.215634
C9    C     C_R   0.095507 0.578435 0.550453 -0.182890
C10   C     C_R   0.907255 0.422597 0.552703 -0.178493
C11   C     C_R   0.904277 0.578051 0.446574 -0.183060
C12   C     C_R   0.671801 0.500014 0.500390 0.839616
C13   C     C_R   0.092809 0.422338 0.446830 -0.178731
C14   C     C_R   0.187532 0.578539 0.549749 -0.201185
C15   C     C_R   0.815202 0.422246 0.552324 -0.198143
C16   C     C_R   0.812268 0.578188 0.447939 -0.201060
C17   C     C_R   0.184876 0.421969 0.447847 -0.198128
C18   C     C_R   0.232257 0.500149 0.499026 -0.016860
C19   C     C_R   0.767703 0.500140 0.500295 -0.016633
C20   C     C_R   0.048108 0.500410 0.498723 0.117249
C21   C     C_R   0.951809 0.500351 0.499302 0.117131
C22   C     C_3   0.474744 0.240210 0.210765 -0.339078
C23   C     C_R   0.487059 0.200180 0.367440 0.268598
C24   C     C_3   0.380936 0.279109 0.180251 -0.826093
C25   C     C_3   0.618078 0.751480 0.713794 -0.384865
C26   C     C_3   0.584577 0.764548 0.871519 -0.901255
C27   C     C_3   0.525272 0.240217 0.789237 -0.339041
C28   C     C_3   0.619082 0.279113 0.819726 -0.826180
C29   C     C_3   0.381915 0.751466 0.286207 -0.385020
C30   C     C_3   0.415417 0.764485 0.128477 -0.901088
C31   C     C_R   0.555951 0.797164 0.598438 0.280545
C32   C     C_R   0.512941 0.200184 0.632557 0.268623
C33   C     C_R   0.444053 0.797158 0.401551 0.280550
C34   C     C_R   0.486365 0.101671 0.368862 -0.303152
C35   C     C_R   0.556917 0.895281 0.597172 -0.279508
C36   C     C_R   0.513632 0.101675 0.631125 -0.303165
H1    H     H_    0.061408 0.638634 0.592753 0.130595
H2    H     H_    0.603314 0.931868 0.672554 0.147998
H3    H     H_    0.523195 0.063393 0.735295 0.137888
H4    H     H_    0.396692 0.931857 0.327424 0.147991
H5    H     H_    0.331713 0.221547 0.174837 0.229023
H6    H     H_    0.361496 0.327295 0.269405 0.286230
H7    H     H_    0.377923 0.316127 0.070739 0.235501
H8    H     H_    0.530665 0.285867 0.183265 0.220063
H9    H     H_    0.481979 0.185502 0.124431 0.153466
H10   H     H_    0.515518 0.737441 0.874705 0.286375
H11   H     H_    0.627831 0.725627 0.953892 0.253475
H12   H     H_    0.943665 0.362730 0.595772 0.130798
H13   H     H_    0.585132 0.838894 0.903808 0.252990
H14   H     H_    0.625560 0.677310 0.695766 0.266359
H15   H     H_    0.686004 0.781756 0.707797 0.178349
H16   H     H_    0.668310 0.221553 0.825070 0.229053
H17   H     H_    0.638498 0.327316 0.730589 0.286223
H18   H     H_    0.622117 0.316109 0.929264 0.235485
H19   H     H_    0.469355 0.285876 0.816766 0.220041
H20   H     H_    0.518050 0.185510 0.875570 0.153472
H21   H     H_    0.484461 0.737336 0.125288 0.286373
H22   H     H_    0.372139 0.725573 0.046124 0.253505
H23   H     H_    0.938261 0.637991 0.403130 0.130621
H24   H     H_    0.414896 0.838825 0.096166 0.252978
H25   H     H_    0.374411 0.677304 0.304262 0.266348
H26   H     H_    0.313997 0.781767 0.292188 0.178287
H27   H     H_    0.056504 0.362197 0.404567 0.130765
H28   H     H_    0.223598 0.639149 0.590755 0.154614
H29   H     H_    0.781415 0.361781 0.594272 0.148215
H30   H     H_    0.776079 0.638540 0.406192 0.154531
H31   H     H_    0.218764 0.361230 0.407112 0.148522
H32   H     H_    0.476802 0.063386 0.264688 0.137891
N1    N     N_R   0.500000 0.252470 0.500000 -0.112236
N2    N     N_R   0.500000 0.747530 0.500000 -0.131769
O1    O     O_R   0.369060 0.579480 0.500010 -0.648145
O2    O     O_R   0.630940 0.420520 0.499990 -0.628490
O3    O     O_R   0.630940 0.579480 0.499990 -0.648132
O4    O     O_R   0.369060 0.420520 0.500010 -0.628614
O5    O     O_R   0.500000 0.579460 0.285340 -0.620767
O6    O     O_R   0.500000 0.420540 0.714660 -0.618113
O7    O     O_R   0.500000 0.579460 0.714660 -0.620717
O8    O     O_R   0.500000 0.420540 0.285340 -0.618106
Zn1   Zn    Zn3+2 0.500000 0.606140 0.500000 0.916096
Zn2   Zn    Zn3+2 0.500000 0.393860 0.500000 0.925011

loop_
_geom_bond_atom_site_label_1
_geom_bond_atom_site_label_2
_ccdc_geom_bond_type
C25   C31   S    
C5    C36   A    
C24   H6    S    
C23   N1    A    
C4    C8    S    
O1    Zn1   S    
C7    C8    T    
C15   C19   A    
C1    C18   S    
C1    O1    A    
C1    O4    A    
C32   C36   A    
C3    C7    S    
C10   C15   A    
C5    C6    S    
O8    Zn2   S    
C15   H29   S    
C30   H21   S    
C29   C33   S    
C6    C35   A    
C14   C18   A    
C25   H14   S    
C31   N2    A    
C22   H8    S    
C30   H24   S    
C3    O5    A    
C12   O2    A    
O4    Zn2   S    
C12   O3    A    
C24   H5    S    
C2    C6    A    
C11   H23   S    
O7    Zn1   S    
C10   C21   A    
C29   H25   S    
C17   H31   S    
C35   H2    S    
C27   C32   S    
C26   H13   S    
C34   H32   S    
C28   H18   S    
C27   H20   S    
C25   C26   S    
C11   C21   A    
C9    C14   A    
C25   H15   S    
C29   C30   S    
C11   C16   A    
C9    C20   A    
C13   H27   S    
C23   C34   A    
C14   H28   S    
C5    C34   A    
C9    H1    S    
C17   C18   A    
O3    Zn1   S    
C33   N2    A    
C26   H11   S    
C2    C33   A    
C10   H12   S    
C22   C24   S    
C16   H30   S    
C29   H26   S    
C13   C20   A    
N2    Zn1   S    
C36   H3    S    
O6    Zn2   S    
C28   H17   S    
C32   N1    A    
C27   H19   S    
C13   C17   A    
C4    O7    A    
O2    Zn2   S    
C28   H16   S    
C16   C19   A    
C30   H22   S    
C12   C19   S    
C31   C35   A    
C4    O6    A    
C26   H10   S    
C2    H4    S    
C22   H9    S    
C20   C21   S    
C27   C28   S    
C24   H7    S    
C22   C23   S    
N1    Zn2   S    
C3    O8    A    
O5    Zn1   S    
