data_mof_unit_3219.cif
_audit_creation_date              2012-12-10T18:46:13-0500
_audit_creation_method            fapswitch 2.2
_symmetry_space_group_name_H-M    P1
_symmetry_Int_Tables_number       1
_space_group_crystal_system       triclinic
_cell_length_a                    9.857224
_cell_length_b                    10.706062
_cell_length_c                    13.126354
_cell_angle_alpha                 90.249609
_cell_angle_beta                  69.546273
_cell_angle_gamma                 89.721427
_cell_volume                      1297.87506967

loop_
_atom_site_label
_atom_site_type_symbol
_atom_type_description
_atom_site_fract_x
_atom_site_fract_y
_atom_site_fract_z
_atom_type_partial_charge
C1    C     C_R   0.499740 0.740079 0.500236 0.876495
C2    C     C_R   0.432862 0.463918 0.984095 0.084489
C3    C     C_R   0.464870 0.434167 0.873809 0.043157
C4    C     C_R   0.545153 0.454332 0.027393 -0.002988
C5    C     C_R   0.678971 0.395432 0.967127 0.116320
C6    C     C_R   0.700523 0.347466 0.863111 0.397996
C7    C     C_R   0.592744 0.366122 0.817802 -0.313958
C8    C     C_R   0.528628 0.505511 0.128559 -0.225527
C9    C     C_R   0.762004 0.425279 0.119466 -0.250191
C10   C     C_R   0.368397 0.474908 0.822200 -0.095146
C11   C     C_R   0.606374 0.935758 0.527191 -0.193861
C12   C     C_R   0.419876 0.491308 0.704203 0.864422
C13   C     C_R   0.606942 0.063725 0.526676 -0.192863
C14   C     C_R   0.500751 0.127523 0.499291 -0.009208
C15   C     C_R   0.394311 0.064356 0.472049 -0.181817
C16   C     C_R   0.393844 0.936400 0.472468 -0.198398
C17   C     C_R   0.499737 0.872564 0.500167 -0.014196
C18   C     C_R   0.954947 0.410053 0.443244 0.264490
C19   C     C_R   0.099881 0.411963 0.442792 -0.159432
C20   C     C_R   0.043496 0.586757 0.559557 0.274991
C21   C     C_R   0.900338 0.587801 0.557340 -0.168306
C22   C     C_R   0.500361 0.259945 0.499636 0.858991
C23   C     C_R   0.580608 0.499661 0.295343 0.867767
C24   C     C_R   0.787755 0.384022 0.013375 -0.142551
C25   C     C_R   0.629947 0.482956 0.177963 -0.051182
C26   C     C_R   0.228331 0.514663 0.884980 -0.185365
C27   C     C_R   0.187789 0.523693 0.997199 -0.158862
C28   C     C_R   0.289670 0.502079 0.046592 -0.171259
H1    H     H_    0.842283 0.407706 0.156726 0.146706
H2    H     H_    0.689060 0.112350 0.548615 0.167195
H3    H     H_    0.312473 0.113461 0.449759 0.151527
H4    H     H_    0.312010 0.887828 0.450209 0.145340
H5    H     H_    0.179087 0.343973 0.396582 0.161946
H6    H     H_    0.823336 0.658268 0.602101 0.155677
H7    H     H_    0.890539 0.339247 0.969462 0.194144
H8    H     H_    0.434305 0.560752 0.172607 0.149811
H9    H     H_    0.151549 0.541763 0.847190 0.166994
H10   H     H_    0.252538 0.512467 0.133891 0.128384
H11   H     H_    0.078909 0.552960 0.045629 0.146294
H12   H     H_    0.608873 0.325063 0.738949 0.169775
H13   H     H_    0.688251 0.886663 0.549423 0.151150
N1    N     N_R   0.142790 0.500030 0.500030 -0.109023
N2    N     N_R   0.857180 0.499940 0.500010 -0.121717
O1    O     O_R   0.385370 0.683250 0.500010 -0.612905
O2    O     O_R   0.614700 0.683220 0.500010 -0.625585
O3    O     O_R   0.328400 0.499990 0.653620 -0.579942
O4    O     O_R   0.557730 0.499960 0.653620 -0.612640
O5    O     O_R   0.385300 0.316780 0.499990 -0.623297
O6    O     O_R   0.614630 0.316750 0.499990 -0.614162
O7    O     O_R   0.442270 0.500040 0.346380 -0.619473
O8    O     O_R   0.671600 0.500010 0.346380 -0.630250
Zn1   Zn    Zn3+2 0.346870 0.500020 0.500000 0.962084
Zn2   Zn    Zn3+2 0.653130 0.499980 0.500000 0.937240
N3    N     N_2   0.909272 0.317112 0.384303 -0.270834
H14   H     H_    0.870145 0.351667 0.326969 0.247342
C29   C     C_3   0.990047 0.201318 0.353731 -0.866102
H15   H     H_    0.925539 0.133195 0.325991 0.257844
H16   H     H_    0.010940 0.160667 0.424648 0.246330
H17   H     H_    0.093666 0.217370 0.285836 0.236806
N4    N     N_2   0.085500 0.676773 0.622281 -0.260146
H18   H     H_    0.102831 0.763568 0.586490 0.212012
C30   C     C_3   0.996270 0.682898 0.736259 -0.793598
H19   H     H_    0.892434 0.731791 0.747182 0.222797
H20   H     H_    0.054129 0.735885 0.781279 0.243040
H21   H     H_    0.973229 0.587542 0.771000 0.255127
O9    O     O_3   0.827876 0.284903 0.806495 -0.785273
H22   H     H_    0.826732 0.259919 0.733950 0.335373

loop_
_geom_bond_atom_site_label_1
_geom_bond_atom_site_label_2
_ccdc_geom_bond_type
O1    Zn1   S    
O7    Zn1   S    
C7    H12   S    
C29   H17   S    
C26   H9    S    
C15   H3    S    
C6    C7    A    
C9    H1    S    
C16   H4    S    
O4    Zn2   S    
C1    O1    A    
C20   N1    A    
C14   C15   A    
C19   N1    A    
C28   H10   S    
C4    C8    A    
C10   C26   A    
C30   H20   S    
O9    H22   S    
C18   N2    A    
C9    C25   A    
C9    C24   A    
C3    C10   A    
C13   C14   A    
C29   H15   S    
C8    C25   A    
C11   C13   A    
C1    O2    A    
C26   C27   A    
C30   H19   S    
C5    C24   A    
C10   C12   S    
C12   O4    A    
O6    Zn2   S    
C2    C4    A    
N4    C30   S    
C29   H16   S    
C22   O5    A    
C2    C3    A    
C3    C7    A    
C23   C25   S    
C8    H8    S    
C14   C22   S    
N3    C29   S    
C24   H7    S    
C20   N4    S    
C18   N3    S    
O2    Zn2   S    
C15   C16   A    
O3    Zn1   S    
C13   H2    S    
O5    Zn1   S    
C20   C21   A    
C12   O3    A    
C18   C19   A    
C19   H5    S    
C11   H13   S    
C22   O6    A    
C27   C28   A    
C5    C6    A    
N3    H14   S    
N4    H18   S    
C23   O7    A    
C2    C28   A    
C21   H6    S    
C30   H21   S    
C21   N2    A    
C4    C5    A    
C1    C17   S    
N2    Zn2   S    
C11   C17   A    
C23   O8    A    
C6    O9    S    
C27   H11   S    
C16   C17   A    
O8    Zn2   S    
N1    Zn1   S    
