data_mof_unit_1557.cif
_audit_creation_date              2013-03-05T15:52:18-0500
_audit_creation_method            fapswitch 2.2
_symmetry_space_group_name_H-M    P1
_symmetry_Int_Tables_number       1
_space_group_crystal_system       triclinic
_cell_length_a                    21.417399
_cell_length_b                    7.255653
_cell_length_c                    14.706568
_cell_angle_alpha                 90.11229
_cell_angle_beta                  74.349039
_cell_angle_gamma                 89.959431
_cell_volume                      2200.61938709

loop_
_atom_site_label
_atom_site_type_symbol
_atom_site_description
_atom_site_fract_x
_atom_site_fract_y
_atom_site_fract_z
_atom_type_partial_charge
O1    O     O_R   0.464160 0.506670 0.130070 -0.596135
O2    O     O_R   0.535840 0.006670 0.869930 -0.594723
O3    O     O_R   0.589710 0.179080 0.006710 -0.587812
O4    O     O_R   0.410290 0.679080 0.993290 -0.586452
C1    C     C_R   0.616130 0.344114 0.002900 0.929131
C2    C     C_R   0.383822 0.844205 0.997315 0.925284
O5    O     O_R   0.467940 0.177220 0.138010 -0.557459
O6    O     O_R   0.532060 0.677220 0.861990 -0.556059
O7    O     O_R   0.413200 0.002810 0.002170 -0.571755
O8    O     O_R   0.586800 0.502810 0.997830 -0.570437
C3    C     C_R   0.456149 0.345659 0.174690 0.980396
C4    C     C_R   0.543813 0.845161 0.825309 0.981393
O9    O     O_3   0.482180 0.337850 0.955280 -0.283012
O10   O     O_3   0.517820 0.837850 0.044720 -0.284216
V1    V     V_3+5 0.503310 0.064600 0.008300 1.251664
V2    V     V_3+5 0.496690 0.564600 0.991700 1.252981
C5    C     C_R   0.571667 0.851327 0.722895 -0.170562
C6    C     C_R   0.428211 0.354142 0.277120 -0.171598
C7    C     C_R   0.928525 0.867351 0.277091 -0.152892
C8    C     C_R   0.071539 0.367944 0.722786 -0.153184
C9    C     C_R   0.559757 0.821286 0.563800 0.489647
C10   C     C_R   0.439743 0.323771 0.436152 0.487071
C11   C     C_R   0.533084 0.817689 0.662048 -0.240899
C12   C     C_R   0.466391 0.318035 0.338052 -0.240537
C13   C     C_R   0.638273 0.875074 0.686719 -0.079945
C14   C     C_R   0.362066 0.387252 0.313098 -0.078084
C15   C     C_R   0.667775 0.869495 0.588517 -0.007232
C16   C     C_R   0.332334 0.388599 0.411448 -0.004737
C17   C     C_R   0.626885 0.863478 0.526602 -0.122761
C18   C     C_R   0.372972 0.371093 0.473573 -0.122909
C19   C     C_R   0.736582 0.870548 0.550368 0.095326
C20   C     C_R   0.263501 0.403185 0.449696 0.096574
C21   C     C_R   0.763708 0.888774 0.451291 0.075880
C22   C     C_R   0.236385 0.401683 0.549329 0.072187
C23   C     C_R   0.721193 0.920719 0.394519 -0.401801
C24   C     C_R   0.278862 0.418749 0.607245 -0.399902
C25   C     C_R   0.653702 0.907749 0.430667 0.615294
C26   C     C_R   0.346273 0.407764 0.570513 0.616344
C27   C     C_R   0.778968 0.844200 0.607854 -0.173997
C28   C     C_R   0.220703 0.417325 0.391876 -0.154030
C29   C     C_R   0.845735 0.843056 0.570404 -0.094409
C30   C     C_R   0.153950 0.418617 0.429791 -0.089949
C31   C     C_R   0.873898 0.865550 0.473438 -0.027760
C32   C     C_R   0.126070 0.396180 0.526819 -0.031012
C33   C     C_R   0.832562 0.879066 0.412254 0.121935
C34   C     C_R   0.167519 0.390433 0.588044 0.121520
C35   C     C_R   0.942525 0.865848 0.435513 0.453608
C36   C     C_R   0.057546 0.384621 0.564582 0.454160
C37   C     C_R   0.968755 0.865453 0.337286 -0.227700
C38   C     C_R   0.031320 0.375889 0.662674 -0.224743
C39   C     C_R   0.861470 0.874873 0.313786 -0.223398
C40   C     C_R   0.138646 0.370817 0.686052 -0.222702
H1    H     H_    0.833272 0.872558 0.263140 0.107722
H2    H     H_    0.166836 0.357321 0.736343 0.108468
H3    H     H_    0.020880 0.866265 0.307374 0.153597
H4    H     H_    0.979200 0.372070 0.692464 0.153648
H5    H     H_    0.874745 0.815677 0.618641 0.186098
H6    H     H_    0.124663 0.437729 0.381170 0.183607
H7    H     H_    0.482173 0.786187 0.691499 0.180935
H8    H     H_    0.516979 0.281991 0.308808 0.180738
H9    H     H_    0.665803 0.899663 0.737112 0.141524
H10   H     H_    0.335309 0.408629 0.261688 0.140685
H11   H     H_    0.739166 0.960060 0.321554 0.138832
H12   H     H_    0.260917 0.447073 0.681655 0.137189
H13   H     H_    0.761932 0.817515 0.682491 0.181894
H14   H     H_    0.236884 0.429031 0.316240 0.150879
C41   C     C_3   0.216569 0.667046 0.971158 -0.464576
C42   C     C_3   0.783320 0.167853 0.029980 -0.463278
H15   H     H_    0.190085 0.562884 0.022780 0.159506
H16   H     H_    0.809706 0.062401 0.978753 0.159394
H17   H     H_    0.209915 0.628465 0.901033 0.182854
H18   H     H_    0.790080 0.131027 0.100196 0.181984
C43   C     C_3   0.289532 0.660139 0.968187 0.373987
C44   C     C_3   0.710298 0.160903 0.033235 0.371567
H19   H     H_    0.296033 0.553469 0.019479 0.100942
H20   H     H_    0.703670 0.052444 0.982684 0.099164
H21   H     H_    0.165869 0.813955 0.152173 0.141899
H22   H     H_    0.834184 0.310721 0.848153 0.146372
H23   H     H_    0.271935 0.773061 0.144719 0.051205
H24   H     H_    0.728137 0.267692 0.856221 0.057557
C45   C     C_3   0.195669 0.909614 0.098709 -0.476077
C46   C     C_3   0.804231 0.407223 0.901291 -0.484436
C47   C     C_3   0.227858 0.002576 0.927787 -0.356131
C48   C     C_3   0.772131 0.504484 0.071764 -0.355957
C49   C     C_3   0.187392 0.862038 0.999740 0.037672
C50   C     C_3   0.812558 0.362171 0.000435 0.041024
H25   H     H_    0.209129 0.144820 0.946118 0.168946
H26   H     H_    0.790955 0.646247 0.052926 0.168749
H27   H     H_    0.223036 0.971683 0.855840 0.157085
H28   H     H_    0.776851 0.475212 0.143869 0.157194
C51   C     C_3   0.312480 0.850758 0.997762 -0.142628
C52   C     C_3   0.687453 0.350506 0.002536 -0.140873
C53   C     C_3   0.268177 0.893383 0.099387 0.219332
C54   C     C_3   0.731750 0.389821 0.900698 0.220191
C55   C     C_3   0.300495 0.996485 0.926676 -0.286028
C56   C     C_3   0.699526 0.498620 0.072702 -0.285681
H29   H     H_    0.330315 0.962778 0.854107 0.191058
H30   H     H_    0.669581 0.467529 0.145446 0.190786
H31   H     H_    0.316339 0.135479 0.942786 0.185913
H32   H     H_    0.683906 0.637122 0.055550 0.186699
H33   H     H_    0.176683 0.050759 0.119329 0.211713
H34   H     H_    0.822982 0.548162 0.880214 0.209087
O11   O     O_R   0.913210 0.208550 0.002110 -0.592417
O12   O     O_R   0.086790 0.708550 0.997890 -0.592912
O13   O     O_R   0.032060 0.539960 0.861980 -0.583904
O14   O     O_R   0.967940 0.039960 0.138020 -0.581625
C57   C     C_R   0.043840 0.372726 0.825190 0.943282
C58   C     C_R   0.956232 0.872956 0.174788 0.944052
O15   O     O_R   0.910290 0.538020 0.993280 -0.599878
O16   O     O_R   0.089710 0.038020 0.006720 -0.599435
O17   O     O_R   0.964160 0.712340 0.130090 -0.584722
O18   O     O_R   0.035840 0.212340 0.869910 -0.582542
C59   C     C_R   0.883888 0.369963 0.998995 0.894661
C60   C     C_R   0.116095 0.869866 0.001069 0.894998
O19   O     O_3   0.017820 0.379210 0.044690 -0.283210
O20   O     O_3   0.982180 0.879210 0.955310 -0.283154
V3    V     V_3+5 0.996690 0.652500 0.991710 1.169422
V4    V     V_3+5 0.003310 0.152500 0.008290 1.172631
O21   O     O_3   0.613263 0.952453 0.374875 -0.680752
H35   H     H_    0.639489 0.982773 0.310197 0.332253
O22   O     O_3   0.386716 0.443955 0.627507 -0.680862
H36   H     H_    0.360522 0.469456 0.692878 0.331460
N1    N     N_R   0.986328 0.870810 0.494712 0.251939
O23   O     O_R   0.043768 0.797627 0.465127 -0.401338
O24   O     O_R   0.974300 0.976907 0.568869 -0.395396
N2    N     N_R   0.013829 0.379424 0.505312 0.250999
O25   O     O_R   0.956158 0.451025 0.535219 -0.400060
O26   O     O_R   0.026064 0.273331 0.431145 -0.393349
O27   O     O_3   0.326782 0.610332 0.877222 -0.750364
H37   H     H_    0.319928 0.476294 0.870163 0.307915
O28   O     O_3   0.673119 0.114197 0.124575 -0.751781
H38   H     H_    0.679600 0.980162 0.132312 0.308320
N3    N     N_R   0.289036 0.057163 0.142105 0.245240
O29   O     O_R   0.310771 0.038934 0.216110 -0.417277
O30   O     O_R   0.282515 0.221801 0.110945 -0.471255
N4    N     N_R   0.710626 0.551404 0.856872 0.240264
O31   O     O_R   0.687413 0.529242 0.784453 -0.426660
O32   O     O_R   0.717128 0.717488 0.886566 -0.475284
N5    N     N_R   0.519695 0.764809 0.504052 0.274656
O33   O     O_R   0.456963 0.782016 0.533175 -0.344111
O34   O     O_R   0.543952 0.662759 0.430101 -0.350459
N6    N     N_R   0.479575 0.264859 0.495620 0.274321
O35   O     O_R   0.542101 0.288010 0.468441 -0.342002
O36   O     O_R   0.455730 0.156158 0.566718 -0.349290

loop_
_geom_bond_atom_site_label_1
_geom_bond_atom_site_label_2
_geom_bond_distance
_ccdc_geom_bond_type
C47   H25   1.112985 S    
C3    C6    1.464343 S    
N2    O25   1.301561 A    
C46   C54   1.559934 S    
C15   C17   1.424137 A    
C21   C33   1.432519 A    
C57   O18   1.326115 A    
O1    C3    1.329423 A    
O2    C4    1.330138 A    
C30   H6    1.079921 S    
C2    O7    1.322963 A    
O15   V3    2.023338 S    
N1    O23   1.301553 A    
C27   C29   1.386822 A    
C45   H33   1.112546 S    
C11   H7    1.083833 S    
O13   C57   1.323655 A    
C5    C11   1.393397 A    
C44   H20   1.116655 S    
C50   C59   1.523209 S    
C6    C12   1.391498 A    
C49   C60   1.522851 S    
O11   C59   1.335213 A    
C48   C50   1.555867 S    
H23   C53   1.115447 S    
C53   N3    1.468215 S    
C55   H31   1.109619 S    
N1    O24   1.301232 A    
C33   C39   1.413287 A    
C42   C44   1.552573 S    
C2    C51   1.526904 S    
C34   C40   1.414282 A    
C52   C56   1.557762 S    
C42   C50   1.557434 S    
O20   V3    1.783654 S    
C18   C26   1.410216 A    
C48   C56   1.551964 S    
C44   C52   1.567299 S    
H22   C46   1.113205 S    
C8    C38   1.392069 A    
C32   C34   1.425454 A    
C16   C18   1.427504 A    
C56   H30   1.112505 S    
C4    C5    1.463519 S    
C54   N4    1.467706 S    
C19   C21   1.422058 A    
C22   C34   1.433004 A    
O16   C60   1.337193 A    
C41   H17   1.113755 S    
O6    C4    1.330009 A    
C8    C57   1.462508 S    
C7    C58   1.461477 S    
C46   C50   1.551358 S    
C36   C38   1.401369 A    
O6    V2    2.026760 S    
C28   H14   1.075667 S    
C44   O28   1.406562 S    
O14   V4    2.026771 S    
O13   V3    2.023323 S    
O16   V4    2.022225 S    
C30   C32   1.400195 A    
C40   H2    1.078081 S    
C47   H27   1.112892 S    
C43   O27   1.406611 S    
C41   C49   1.556761 S    
C15   C19   1.428427 A    
C1    C52   1.526841 S    
C16   C20   1.432851 A    
C43   C51   1.567659 S    
N4    O32   1.301242 A    
N4    O31   1.300949 A    
C37   H3    1.083935 S    
C9    C17   1.427200 A    
C38   H4    1.083960 S    
C42   H18   1.113738 S    
C39   H1    1.078159 S    
C20   C22   1.423125 A    
O4    V2    2.022153 S    
O5    C3    1.331109 A    
C51   C53   1.569177 S    
C45   C53   1.560006 S    
C7    C37   1.392084 A    
C35   N1    1.442229 S    
C25   O21   1.382982 S    
H21   C45   1.113245 S    
C12   H8    1.083964 S    
O19   V4    1.782124 S    
C47   C55   1.551958 S    
C6    C14   1.392546 A    
C10   N6    1.441832 S    
C52   C54   1.568419 S    
C46   H34   1.112537 S    
O1    V2    2.010444 S    
C13   H9    1.078935 S    
O21   H35   0.990644 S    
O2    V1    2.008572 S    
C31   C33   1.425864 A    
O22   H36   0.990637 S    
O12   C60   1.335194 A    
C41   C43   1.552248 S    
O4    C2    1.319442 A    
C47   C49   1.556068 S    
C27   H13   1.077178 S    
C9    C11   1.403418 A    
N3    O29   1.300976 A    
C10   C12   1.401551 A    
O11   V4    1.997769 S    
C13   C15   1.412099 A    
C43   H19   1.116346 S    
H24   C54   1.115430 S    
O28   H38   0.993349 S    
N6    O36   1.300703 A    
O3    V1    2.023264 S    
O27   H37   0.993060 S    
C48   H28   1.112890 S    
N2    O26   1.301204 A    
C10   C18   1.428190 A    
C23   C25   1.402379 A    
O10   V1    1.784023 S    
C29   C31   1.400364 A    
C48   H26   1.112979 S    
C28   C30   1.387377 A    
O3    C1    1.319578 A    
N5    O33   1.301250 A    
C55   H29   1.112513 S    
O15   C59   1.337679 A    
C35   C37   1.401614 A    
O12   V3    1.998253 S    
C14   C16   1.414436 A    
C58   O17   1.324972 A    
O17   V3    2.011622 S    
C5    C13   1.392458 A    
C24   C26   1.400527 A    
C14   H10   1.076190 S    
C29   H5    1.080250 S    
C1    O8    1.323094 A    
C8    C40   1.392535 A    
O8    V2    2.006619 S    
O18   V4    2.013556 S    
N5    O34   1.300928 A    
O14   C58   1.324154 A    
C56   H32   1.109708 S    
O5    V1    2.023309 S    
C21   C23   1.410874 A    
C19   C27   1.410621 A    
C22   C24   1.409359 A    
C20   C28   1.412286 A    
O7    V1    2.007155 S    
C26   O22   1.383103 S    
C36   N2    1.441583 S    
C7    C39   1.392231 A    
C51   C55   1.557418 S    
C42   H16   1.113444 S    
O9    V2    1.782494 S    
C17   C25   1.410117 A    
N3    O30   1.301122 A    
C9    N5    1.442931 S    
N6    O35   1.301176 A    
C23   H11   1.076852 S    
C41   H15   1.113455 S    
C24   H12   1.076828 S    
C31   C35   1.424466 A    
C45   C49   1.551255 S    
C32   C36   1.424744 A    
