data_mof_unit_2266.cif
_audit_creation_date              2012-12-11T19:41:55-0500
_audit_creation_method            fapswitch 2.2
_symmetry_space_group_name_H-M    P1
_symmetry_Int_Tables_number       1
_space_group_crystal_system       triclinic
_cell_length_a                    8.53156
_cell_length_b                    15.152261
_cell_length_c                    26.900628
_cell_angle_alpha                 99.529199
_cell_angle_beta                  93.401568
_cell_angle_gamma                 80.527281
_cell_volume                      3380.9188458

loop_
_atom_site_label
_atom_site_type_symbol
_atom_type_description
_atom_site_fract_x
_atom_site_fract_y
_atom_site_fract_z
_atom_type_partial_charge
Ba1   Ba    Ba6+2 0.860050 0.456430 0.522530 1.654292
Ba2   Ba    Ba6+2 0.329780 0.543490 0.477460 1.689317
C1    C     C_3   0.622768 0.183039 0.693918 -0.375455
C2    C     C_3   0.678276 0.214862 0.647820 0.371024
C3    C     C_3   0.572990 0.694143 0.639711 0.353114
C4    C     C_3   0.604387 0.741061 0.694165 -0.236372
C5    C     C_3   0.929886 0.814021 0.355695 0.230443
C6    C     C_3   0.957346 0.846412 0.306447 -0.183612
C7    C     C_3   0.477597 0.761578 0.321660 0.349017
C8    C     C_3   0.404204 0.806406 0.277120 -0.298670
C9    C     C_R   0.995578 0.429859 0.174566 0.596973
C10   C     C_R   0.943086 0.591920 0.183808 0.596604
C11   C     C_2   0.768294 0.564890 0.274232 -0.081512
C12   C     C_3   0.163010 0.251224 0.651616 0.339324
C13   C     C_3   0.740444 0.586224 0.330466 -0.087680
C14   C     C_1   0.985345 0.480265 0.341975 0.041324
C15   C     C_2   0.026055 0.476893 0.294485 -0.094967
C16   C     C_2   0.910009 0.518461 0.257129 0.223210
C17   C     C_R   0.023642 0.504658 0.102142 -0.081003
C18   C     C_R   0.033161 0.424668 0.123292 -0.032938
C19   C     C_R   0.074690 0.341125 0.092109 -0.054265
C20   C     C_R   0.975543 0.588677 0.132447 -0.037312
C21   C     C_2   0.846013 0.521175 0.359173 -0.240362
C22   C     C_2   0.326844 0.448581 0.633665 -0.268849
C23   C     C_3   0.147629 0.218580 0.701321 -0.343169
C24   C     C_R   0.177775 0.413646 0.971874 0.019860
C25   C     C_R   0.060052 0.574465 0.975427 0.023764
C26   C     C_R   0.133744 0.491409 0.947653 0.033332
C27   C     C_R   0.278962 0.337850 0.945495 0.044344
C28   C     C_R   0.304953 0.333886 0.894128 -0.059638
C29   C     C_R   0.248609 0.406955 0.868589 -0.041738
C30   C     C_R   0.166492 0.486722 0.895531 -0.082070
C31   C     C_R   0.118600 0.562052 0.870488 -0.031142
C32   C     C_R   0.152441 0.556126 0.818732 0.594018
C33   C     C_R   0.281170 0.402807 0.817169 0.575418
C34   C     C_3   0.269071 0.262354 0.397411 0.172431
C35   C     C_2   0.422709 0.435642 0.723877 -0.104742
C36   C     C_3   0.450518 0.404303 0.668488 -0.077973
C37   C     C_1   0.194575 0.499352 0.652107 0.088106
C38   C     C_2   0.152602 0.500356 0.699540 -0.105086
C39   C     C_2   0.274414 0.471752 0.739337 0.196735
C40   C     C_R   0.121785 0.416257 0.021445 0.019612
C41   C     C_R   0.061482 0.500591 0.050512 0.052330
C42   C     C_R   0.036825 0.580628 0.028240 0.019459
C43   C     C_R   0.115053 0.337108 0.042108 -0.112549
C44   C     C_R   0.961061 0.667936 0.110790 -0.056949
C45   C     C_3   0.331936 0.168263 0.367504 -0.219937
C46   C     C_R   0.011729 0.648558 0.949186 -0.098287
C47   C     C_R   0.039553 0.642206 0.897946 -0.064117
C48   C     C_R   0.989002 0.664060 0.059775 -0.105043
C49   C     C_R   0.845309 0.831682 0.471791 -0.052477
C50   C     C_R   0.787850 0.925444 0.479940 -0.067188
C51   C     C_R   0.648218 0.109896 0.480471 -0.044501
C52   C     C_R   0.788278 0.070271 0.453470 0.066382
C53   C     C_R   0.867715 0.985632 0.461454 -0.066985
C54   C     C_R   0.580163 0.203873 0.485221 0.024664
C55   C     C_R   0.439089 0.234686 0.511406 -0.282267
C56   C     C_3   0.021675 0.769496 0.636978 0.269298
C57   C     C_R   0.609622 0.803615 0.510911 0.167231
C58   C     C_R   0.553298 0.897560 0.519441 0.016301
C59   C     C_R   0.638079 0.958102 0.501326 0.012612
C60   C     C_R   0.411837 0.932403 0.544351 -0.019306
C61   C     C_R   0.348326 0.023026 0.547981 -0.096409
C62   C     C_R   0.425275 0.083759 0.527928 -0.012003
C63   C     C_R   0.572449 0.051392 0.504287 -0.004656
C64   C     C_R   0.357704 0.175431 0.530543 0.001396
C65   C     C_R   0.747977 0.771636 0.482843 -0.144994
C66   C     C_3   0.037279 0.840441 0.685592 -0.220818
C67   C     C_3   0.703019 0.345324 0.373015 0.286517
C68   C     C_3   0.685044 0.330701 0.315342 -0.240928
H1    H     H_    0.428414 0.136723 0.391644 0.008113
H2    H     H_    0.931638 0.847525 0.709015 0.095636
H3    H     H_    0.139783 0.813285 0.709187 0.153691
H4    H     H_    0.827708 0.351305 0.384779 0.034523
H5    H     H_    0.623255 0.408799 0.387439 0.070280
H6    H     H_    0.726406 0.158882 0.717866 0.119500
H7    H     H_    0.699055 0.393199 0.300948 0.078240
H8    H     H_    0.563680 0.316229 0.303761 0.174482
H9    H     H_    0.571278 0.234404 0.623791 -0.037290
H10   H     H_    0.552381 0.127168 0.681955 0.083451
H11   H     H_    0.683225 0.653873 0.625075 0.130537
H12   H     H_    0.490049 0.772469 0.712077 0.115023
H13   H     H_    0.672180 0.797013 0.693414 0.130341
H14   H     H_    0.546219 0.239772 0.716694 0.145015
H15   H     H_    0.153349 0.275200 0.732761 0.130576
H16   H     H_    0.890575 0.746590 0.347049 -0.008560
H17   H     H_    0.835955 0.863519 0.376253 0.024591
H18   H     H_    0.022856 0.789068 0.280748 0.128433
H19   H     H_    0.031605 0.901105 0.314664 0.067853
H20   H     H_    0.605540 0.740800 0.313783 -0.119420
H21   H     H_    0.462453 0.864947 0.273115 0.141883
H22   H     H_    0.276210 0.831063 0.282383 0.104898
H23   H     H_    0.080702 0.316216 0.651499 0.087110
H24   H     H_    0.418838 0.756743 0.241737 0.110732
H25   H     H_    0.142672 0.442827 0.282219 0.115368
H26   H     H_    0.075174 0.278087 0.106172 0.129493
H27   H     H_    0.516717 0.416661 0.750886 0.111097
H28   H     H_    0.378076 0.274287 0.874622 0.123408
H29   H     H_    0.135686 0.270859 0.019452 0.084685
H30   H     H_    0.681714 0.595976 0.248518 0.096058
H31   H     H_    0.925805 0.733826 0.133202 0.146577
H32   H     H_    0.947897 0.712156 0.967123 0.069270
H33   H     H_    0.287822 0.261608 0.648906 -0.053358
H34   H     H_    0.999433 0.701161 0.879900 0.115675
H35   H     H_    0.029635 0.520974 0.709801 0.127681
H36   H     H_    0.976496 0.728123 0.046312 0.073853
H37   H     H_    0.808358 0.512372 0.395514 0.028959
H38   H     H_    0.338933 0.428238 0.593318 0.082517
H39   H     H_    0.981399 0.962074 0.444252 0.128700
H40   H     H_    0.235819 0.043187 0.565912 0.115094
H41   H     H_    0.344839 0.890126 0.560207 0.094894
H42   H     H_    0.386307 0.305281 0.514317 0.059428
H43   H     H_    0.031740 0.195077 0.702525 0.138560
H44   H     H_    0.244845 0.161912 0.706293 0.110890
H45   H     H_    0.368027 0.301884 0.404206 0.050915
H46   H     H_    0.227230 0.253680 0.434315 0.026705
N1    N     N_R   0.950895 0.513077 0.204407 -0.429073
N2    N     N_R   0.233897 0.477001 0.792342 -0.419395
O1    O     O_2   0.906480 0.548660 0.619050 -0.460711
O2    O     O_3   0.659603 0.271771 0.391076 -0.658649
O3    O     O_3   0.122000 0.185858 0.611939 -0.613658
O4    O     O_2   0.283210 0.451310 0.380920 -0.456334
O5    O     O_3   0.051220 0.451340 0.441120 -0.486488
O6    O     O_3   0.503410 0.617620 0.414290 -0.457015
O7    O     O_3   0.140616 0.305768 0.371284 -0.657245
O8    O     O_3   0.617150 0.609960 0.527100 -0.481686
O9    O     O_3   0.088210 0.664420 0.439670 -0.462244
O10   O     O_2   0.175361 0.823684 0.477209 -0.437345
O11   O     O_3   0.074044 0.808102 0.384080 -0.534343
O12   O     O_3   0.138490 0.548590 0.558870 -0.501126
O13   O     O_3   0.572560 0.389960 0.472890 -0.493516
O14   O     O_2   0.345660 0.723580 0.528500 -0.480954
O15   O     O_3   0.518175 0.762105 0.610125 -0.613772
O16   O     O_2   0.454604 0.514843 0.326757 -0.483713
O17   O     O_3   0.397491 0.688010 0.324896 -0.560815
O18   O     O_2   0.001087 0.360232 0.192379 -0.589316
O19   O     O_2   0.352175 0.332416 0.794519 -0.632618
O20   O     O_2   0.909056 0.665343 0.210389 -0.571036
O21   O     O_2   0.111908 0.622112 0.797617 -0.603653
O22   O     O_3   0.686300 0.382310 0.585700 -0.457304
O23   O     O_2   0.758796 0.461598 0.677432 -0.504143
O24   O     O_3   0.057592 0.683228 0.652957 -0.652514
O25   O     O_3   0.769231 0.285380 0.664105 -0.577468
O26   O     O_2   0.844040 0.276390 0.471470 -0.448854
O27   O     O_3   0.101510 0.335500 0.560330 -0.486993
O28   O     O_2   0.033906 0.175007 0.517877 -0.465240
P1    P     P_3+3 0.071950 0.575820 0.612140 1.004402
P2    P     P_3+3 0.664370 0.290050 0.457240 0.958014
P3    P     P_3+3 0.155768 0.218673 0.554620 0.950632
P4    P     P_3+3 0.117760 0.424110 0.387850 0.988685
P5    P     P_3+3 0.043643 0.783013 0.443684 1.030973
P6    P     P_3+3 0.663937 0.388056 0.649925 0.955395
P7    P     P_3+3 0.525635 0.724164 0.544425 1.026448
P8    P     P_3+3 0.526538 0.600858 0.348645 0.984211
C69   C     C_3   0.780217 0.136230 0.615717 -0.301019
H47   H     H_    0.814120 0.158736 0.581233 0.149379
H48   H     H_    0.889176 0.111861 0.637122 0.132242
H49   H     H_    0.712891 0.078956 0.604152 0.068984
C70   C     C_2   0.403661 0.172342 0.317673 0.922266
O29   O     O_2   0.538459 0.133549 0.309212 -0.551286
O30   O     O_R   0.319736 0.215642 0.279835 -0.707892
H50   H     H_    0.205170 0.240655 0.287286 0.322717
C71   C     C_2   0.207966 0.106757 0.359003 0.860931
O31   O     O_2   0.204647 0.051920 0.387401 -0.617197
O32   O     O_R   0.101391 0.109764 0.317604 -0.768869
H51   H     H_    0.031790 0.060873 0.313551 0.305926
C72   C     C_2   0.862771 0.781531 0.610976 0.774035
O33   O     O_2   0.841081 0.721963 0.576567 -0.664556
O34   O     O_R   0.749116 0.860285 0.618909 -0.766810
H52   H     H_    0.765912 0.905433 0.649940 0.269012
C73   C     C_3   0.135275 0.778369 0.598664 -0.307371
H53   H     H_    0.101575 0.841936 0.582313 0.061330
H54   H     H_    0.252426 0.778615 0.616927 0.139819
H55   H     H_    0.129692 0.720842 0.567904 0.151638
C74   C     C_3   0.066256 0.934642 0.677530 -0.506572
H56   H     H_    0.043021 0.983646 0.712831 0.144699
H57   H     H_    0.191994 0.932012 0.667940 0.151244
H58   H     H_    0.988964 0.960053 0.646782 0.138208
C75   C     C_3   0.808179 0.254158 0.290615 -0.275779
H59   H     H_    0.928303 0.273215 0.297602 0.141509
H60   H     H_    0.783594 0.242088 0.249264 0.156416
H61   H     H_    0.804653 0.190793 0.305704 0.203259
C76   C     C_3   0.452702 0.630831 0.639883 -0.361263
H62   H     H_    0.348987 0.665246 0.662103 0.096597
H63   H     H_    0.414472 0.604121 0.601005 0.102879
H64   H     H_    0.508801 0.573443 0.658302 0.068272
C77   C     C_3   0.699149 0.677503 0.727616 -0.425247
H65   H     H_    0.629518 0.625220 0.734467 0.145261
H66   H     H_    0.812611 0.644598 0.709998 0.181042
H67   H     H_    0.727322 0.717138 0.764670 0.143628
C78   C     C_2   0.806057 0.883632 0.280611 0.847941
O35   O     O_2   0.721847 0.951277 0.301277 -0.562768
O36   O     O_R   0.766460 0.843816 0.231864 -0.714671
H68   H     H_    0.666271 0.877555 0.217345 0.312414
C79   C     C_2   0.463492 0.829652 0.369530 0.826608
O37   O     O_2   0.407407 0.812439 0.406839 -0.554835
O38   O     O_R   0.517000 0.912436 0.371248 -0.751802
H69   H     H_    0.498444 0.953373 0.404812 0.324437
C80   C     C_3   0.383997 0.267192 0.971272 -0.415227
H70   H     H_    0.504447 0.252274 0.955298 0.119508
H71   H     H_    0.403372 0.291235 0.012054 0.132470
H72   H     H_    0.333333 0.203162 0.965148 0.117641
C81   C     C_3   0.827737 0.096370 0.404690 -0.266694
H73   H     H_    0.716859 0.115114 0.383332 0.175463
H74   H     H_    0.906442 0.148301 0.410184 0.162915
H75   H     H_    0.890875 0.037396 0.379565 0.119068
C82   C     C_3   0.798058 0.673530 0.463867 -0.233272
H76   H     H_    0.893469 0.642960 0.488464 0.163151
H77   H     H_    0.711498 0.631073 0.460168 0.144451
H78   H     H_    0.824434 0.667391 0.423758 0.007650

loop_
_geom_bond_atom_site_label_1
_geom_bond_atom_site_label_2
_ccdc_geom_bond_type
C25   C46   A    
Ba2   P4    S    
C73   H53   S    
C32   N2    Am   
O32   H51   S    
C4    H12   S    
O6    P8    S    
C68   H8    S    
O34   H52   S    
Ba1   O27   S    
C17   C18   A    
Ba1   O26   S    
C55   C64   A    
O26   P2    D    
C47   H34   S    
C35   H27   S    
O30   H50   S    
C57   P7    S    
C5    C6    S    
C72   O34   S    
C45   C70   S    
Ba2   O5    S    
C3    O15   S    
C81   H74   S    
C60   C61   A    
O17   P8    S    
C11   C16   D    
O15   P7    S    
C3    C4    S    
O4    P4    D    
C25   C26   A    
C71   O32   S    
C35   C36   S    
O11   P5    S    
C50   C59   A    
C76   H63   S    
C28   C29   A    
C68   C75   S    
C55   H42   S    
C69   H48   S    
C8    H24   S    
C6    C78   S    
O1    P1    D    
C52   C81   S    
C79   O38   S    
C10   C20   A    
C32   O21   D    
C22   C37   D    
C57   C65   A    
C54   C55   A    
C34   C45   S    
C58   C60   A    
Ba1   Ba2   S    
Ba1   O1    S    
C13   P8    S    
O9    P5    S    
C25   C42   A    
C5    H17   S    
C60   H41   S    
C71   O31   D    
C14   C15   D    
C27   C80   S    
C82   H78   S    
Ba2   O14   S    
C70   O30   S    
C22   H38   S    
C48   H36   S    
C39   N2    S    
C51   C63   A    
C7    C8    S    
O22   P6    S    
C12   H23   S    
C50   C53   A    
C75   H61   S    
C45   C71   S    
Ba2   O9    S    
C13   C21   S    
O5    P4    S    
C8    H22   S    
C57   C58   A    
C72   O33   D    
C12   O3    S    
C53   H39   S    
C69   H49   S    
C67   C68   S    
C2    O25   S    
C1    H10   S    
C5    O11   S    
C36   P6    S    
C73   H55   S    
C66   C74   S    
C17   C41   A    
C31   C32   A    
C74   H58   S    
C19   C43   A    
Ba2   O4    S    
C67   H4    S    
C44   H31   S    
C9    C18   A    
C34   O7    S    
Ba2   O13   S    
C82   H76   S    
C77   H67   S    
C81   H75   S    
C26   C30   A    
C17   C20   A    
Ba1   O8    S    
C2    H9    S    
C74   H57   S    
Ba1   O12   S    
C43   H29   S    
C76   H64   S    
C37   C38   D    
C66   H3    S    
C51   C52   A    
C4    C77   S    
C49   C50   A    
C58   C59   A    
C6    H18   S    
C40   C43   A    
C62   C64   A    
C54   P2    S    
C76   H62   S    
Ba1   O5    S    
C27   C28   A    
C56   C72   S    
C23   H43   S    
C80   H72   S    
O28   P3    D    
C3    H11   S    
C56   O24   S    
O10   P5    D    
C22   C36   S    
C70   O29   D    
C66   H2    S    
C21   H37   S    
C23   H15   S    
C15   C16   S    
O13   P2    S    
C49   C65   A    
C1    H6    S    
C16   N1    S    
C45   H1    S    
Ba1   O22   S    
C64   P3    S    
C15   H25   S    
Ba2   O8    S    
C33   O19   D    
C56   C66   S    
C38   C39   S    
C20   C44   A    
O14   P7    D    
C8    H21   S    
O2    P2    S    
C14   C21   D    
C11   C13   S    
C41   C42   A    
C10   O20   D    
Ba1   P1    S    
C40   C41   A    
C33   N2    Am   
C1    C2    S    
C9    N1    Am   
C7    O17   S    
C1    H14   S    
C65   C82   S    
C24   C40   A    
C80   H71   S    
C51   C54   A    
C42   C48   A    
C78   O35   D    
C28   H28   S    
C52   C53   A    
C46   C47   A    
C4    H13   S    
O12   P1    S    
O24   P1    S    
C29   C30   A    
C61   C62   A    
Ba1   O13   S    
C7    H20   S    
C7    C79   S    
C6    H19   S    
C19   H26   S    
Ba2   O6    S    
C75   H59   S    
C73   H54   S    
C44   C48   A    
C67   O2    S    
C24   C26   A    
C46   H32   S    
C30   C31   A    
C11   H30   S    
C56   C73   S    
C77   H65   S    
C74   H56   S    
C9    O18   D    
C78   O36   S    
C12   H33   S    
O16   P8    D    
C61   H40   S    
C62   C63   A    
Ba2   O12   S    
O3    P3    S    
C67   H5    S    
C29   C33   A    
C12   C23   S    
C35   C39   D    
O38   H69   S    
O27   P3    S    
C77   H66   S    
O7    P4    S    
C49   P5    S    
C79   O37   D    
C5    H16   S    
O8    P7    S    
C59   C63   A    
C80   H70   S    
C2    C69   S    
C18   C19   A    
C24   C27   A    
O36   H68   S    
C37   P1    S    
C69   H47   S    
C82   H77   S    
Ba1   P2    S    
C14   P4    S    
C10   N1    Am   
C81   H73   S    
C75   H60   S    
C23   H44   S    
C34   H45   S    
C31   C47   A    
C3    C76   S    
O25   P6    S    
O23   P6    D    
C38   H35   S    
C68   H7    S    
C34   H46   S    
