data_mof_unit_4223.cif
_audit_creation_date              2012-12-10T19:27:26-0500
_audit_creation_method            fapswitch 2.2
_symmetry_space_group_name_H-M    P1
_symmetry_Int_Tables_number       1
_space_group_crystal_system       triclinic
_cell_length_a                    23.421646
_cell_length_b                    10.509319
_cell_length_c                    9.74247
_cell_angle_alpha                 89.651327
_cell_angle_beta                  90.061708
_cell_angle_gamma                 89.984773
_cell_volume                      2398.01974627

loop_
_atom_site_label
_atom_site_type_symbol
_atom_type_description
_atom_site_fract_x
_atom_site_fract_y
_atom_site_fract_z
_atom_type_partial_charge
C1    C     C_R   0.500666 0.257642 0.500415 0.943446
C2    C     C_R   0.499354 0.742361 0.499582 0.943351
C3    C     C_R   0.237478 0.502506 0.372322 0.000156
C4    C     C_R   0.762451 0.498977 0.372872 -0.004886
C5    C     C_R   0.297178 0.501185 0.374645 -0.249568
C6    C     C_R   0.702758 0.498614 0.375084 -0.240652
C7    C     C_R   0.327072 0.500975 0.499557 -0.051526
C8    C     C_R   0.672927 0.499986 0.499917 -0.051842
C9    C     C_R   0.297201 0.502266 0.623884 -0.181299
C10   C     C_R   0.702863 0.501376 0.624294 -0.190811
C11   C     C_R   0.238141 0.503530 0.623470 -0.104380
C12   C     C_R   0.761932 0.501671 0.623992 -0.099601
C13   C     C_R   0.208230 0.503476 0.499375 0.244905
C14   C     C_R   0.791773 0.500589 0.499958 0.244995
C15   C     C_3   0.498427 0.040290 0.631310 -0.207899
C16   C     C_3   0.501623 0.959717 0.368664 -0.207481
C17   C     C_3   0.545704 0.954973 0.569306 -0.238800
C18   C     C_3   0.454346 0.045035 0.430667 -0.238334
C19   C     C_3   0.498889 0.877142 0.498893 -0.050870
C20   C     C_3   0.501158 0.122866 0.501086 -0.051074
C21   C     C_3   0.452207 0.960452 0.559982 0.015606
C22   C     C_3   0.547843 0.039564 0.439989 0.015264
C23   C     C_R   0.389374 0.499982 0.499912 0.923593
C24   C     C_R   0.610625 0.500105 0.500026 0.923294
C25   C     C_3   0.538392 0.423271 0.049214 -0.062797
C26   C     C_3   0.461608 0.576730 0.950789 -0.064874
C27   C     C_3   0.548975 0.535697 0.951211 -0.068355
C28   C     C_3   0.451024 0.464303 0.048793 -0.070629
C29   C     C_3   0.489377 0.387597 0.952098 -0.076961
C30   C     C_3   0.510623 0.612402 0.047904 -0.073673
C31   C     C_R   0.880364 0.614865 0.510810 0.561732
C32   C     C_R   0.119646 0.388891 0.506659 0.558795
C33   C     C_R   0.880712 0.387139 0.507340 0.557918
C34   C     C_R   0.119305 0.616612 0.510390 0.561373
C35   C     C_R   0.940296 0.385020 0.510336 -0.010966
C36   C     C_R   0.059725 0.618612 0.513735 -0.011821
C37   C     C_R   0.970028 0.501585 0.512644 -0.012657
C38   C     C_R   0.029992 0.502028 0.512489 -0.012753
C39   C     C_R   0.939937 0.617731 0.513974 -0.012575
C40   C     C_R   0.060080 0.385904 0.509970 -0.012071
C41   C     C_R   0.970656 0.269860 0.509608 -0.142107
C42   C     C_R   0.029366 0.733727 0.516814 -0.141607
C43   C     C_R   0.030084 0.270299 0.509410 -0.141834
C44   C     C_R   0.969937 0.733290 0.516916 -0.141458
H1    H     H_    0.948649 0.179232 0.508173 0.194964
H2    H     H_    0.051373 0.824357 0.518136 0.194754
H3    H     H_    0.590184 0.565805 0.905136 0.135182
H4    H     H_    0.409812 0.434211 0.094873 0.140998
H5    H     H_    0.570669 0.358770 0.095907 0.152390
H6    H     H_    0.429337 0.641245 0.904101 0.150289
H7    H     H_    0.480391 0.292999 0.906811 0.133556
H8    H     H_    0.519610 0.706999 0.093194 0.133117
H9    H     H_    0.052374 0.179994 0.507834 0.195291
H10   H     H_    0.947646 0.823598 0.518309 0.194998
H11   H     H_    0.320577 0.500499 0.278834 0.200206
H12   H     H_    0.679308 0.497482 0.279222 0.206612
H13   H     H_    0.319365 0.502365 0.721523 0.172187
H14   H     H_    0.680750 0.502365 0.721866 0.165412
H15   H     H_    0.215254 0.504214 0.720026 0.145646
H16   H     H_    0.784879 0.502776 0.720579 0.144713
H17   H     H_    0.582955 0.914371 0.624966 0.165698
H18   H     H_    0.417095 0.085634 0.375005 0.166500
H19   H     H_    0.496953 0.076095 0.738258 0.160320
H20   H     H_    0.503096 0.923910 0.261717 0.160407
N1    N     N_R   0.852432 0.500863 0.505747 -0.347561
N2    N     N_R   0.147576 0.503018 0.505100 -0.347448
N3    N     N_3   0.499960 0.500030 0.863290 -0.082322
N4    N     N_3   0.500040 0.499970 0.136710 -0.082391
O1    O     O_R   0.500000 0.313960 0.616610 -0.632038
O2    O     O_R   0.500000 0.686040 0.383390 -0.631757
O3    O     O_R   0.500030 0.313950 0.383350 -0.601716
O4    O     O_R   0.499970 0.686050 0.616650 -0.602050
O5    O     O_R   0.416140 0.499970 0.616650 -0.602351
O6    O     O_R   0.583860 0.500030 0.383350 -0.601960
O7    O     O_R   0.416170 0.499960 0.383400 -0.636071
O8    O     O_R   0.583830 0.500040 0.616600 -0.636380
O9    O     O_2   0.850412 0.724611 0.511466 -0.531092
O10   O     O_2   0.149595 0.279182 0.503876 -0.531678
O11   O     O_2   0.851094 0.277011 0.504820 -0.534609
O12   O     O_2   0.148923 0.726769 0.511116 -0.533341
Zn1   Zn    Zn3+2 0.499980 0.500010 0.655740 0.971197
Zn2   Zn    Zn3+2 0.500020 0.499990 0.344260 0.973421
C45   C     C_2   0.207573 0.502838 0.236872 0.950033
O13   O     O_2   0.155523 0.508822 0.230045 -0.612391
O14   O     O_R   0.239362 0.496607 0.115520 -0.817459
H21   H     H_    0.214510 0.497660 0.030223 0.350532
C46   C     C_2   0.792264 0.497902 0.237482 0.952265
O15   O     O_2   0.844299 0.504257 0.230628 -0.611807
O16   O     O_R   0.760405 0.489911 0.116210 -0.817232
H22   H     H_    0.785197 0.490136 0.030940 0.350116
C47   C     C_2   0.397745 0.918649 0.627204 0.899502
O17   O     O_2   0.365197 0.998598 0.673249 -0.601233
O18   O     O_R   0.384203 0.789508 0.636569 -0.816912
H23   H     H_    0.346356 0.773865 0.684147 0.348863
C48   C     C_2   0.602302 0.081400 0.372756 0.899319
O19   O     O_2   0.634865 0.001466 0.326753 -0.600224
O20   O     O_R   0.615818 0.210556 0.363321 -0.816298
H24   H     H_    0.653664 0.226228 0.315741 0.351568

loop_
_geom_bond_atom_site_label_1
_geom_bond_atom_site_label_2
_ccdc_geom_bond_type
C46   O15   D    
O18   H23   S    
C18   C21   S    
C22   C48   S    
C36   C42   A    
C48   O19   D    
C34   N2    A    
O20   H24   S    
C33   N1    A    
C4    C46   S    
O14   H21   S    
C1    O3    A    
C26   N3    S    
C28   C29   S    
C28   N4    S    
C23   O5    A    
C26   H6    S    
C29   H7    S    
C33   C35   A    
C11   H15   S    
C18   C20   S    
C7    C9    A    
C42   H2    S    
C34   O12   S    
C29   N3    S    
C43   H9    S    
C40   C43   A    
C10   H14   S    
C34   C36   A    
O4    Zn1   S    
C3    C13   A    
O3    Zn2   S    
C24   O8    A    
C27   C30   S    
C41   C43   A    
C25   N4    S    
C42   C44   A    
O6    Zn2   S    
C2    O4    A    
O5    Zn1   S    
C31   O9    S    
C13   N2    S    
C25   C29   S    
C15   C20   S    
C27   N3    S    
C4    C6    A    
C6    H12   S    
C47   O17   D    
C5    C7    A    
C31   N1    A    
C33   O11   S    
C6    C8    A    
C1    O1    A    
C37   C38   A    
C47   O18   S    
C45   O13   D    
C9    C11   A    
C10   C12   A    
C16   C18   S    
C45   O14   S    
C12   C14   A    
C26   C30   S    
C46   O16   S    
C3    C45   S    
C17   H17   S    
C17   C19   S    
C23   O7    A    
C32   N2    A    
C21   C47   S    
O2    Zn2   S    
C27   H3    S    
C15   C17   S    
C30   H8    S    
C28   H4    S    
C1    C20   S    
C16   C22   S    
C35   C37   A    
C2    C19   S    
C5    H11   S    
C18   H18   S    
C20   C22   S    
C3    C5    A    
O8    Zn1   S    
C48   O20   S    
O7    Zn2   S    
N3    Zn1   S    
C39   C44   A    
C25   C27   S    
C26   C28   S    
C17   C22   S    
C15   H19   S    
N4    Zn2   S    
C36   C38   A    
C37   C39   A    
C38   C40   A    
C11   C13   A    
C24   O6    A    
C16   C19   S    
C7    C23   S    
C8    C24   S    
C14   N1    S    
C31   C39   A    
C9    H13   S    
C32   C40   A    
C4    C14   A    
C35   C41   A    
C25   H5    S    
O1    Zn1   S    
C32   O10   S    
C12   H16   S    
C44   H10   S    
C15   C21   S    
C8    C10   A    
C41   H1    S    
C16   H20   S    
O16   H22   S    
C2    O2    A    
C30   N4    S    
C19   C21   S    
