data_mof_unit_7.cif
_audit_creation_date              2012-12-11T20:55:17-0500
_audit_creation_method            fapswitch 2.2
_symmetry_space_group_name_H-M    P1
_symmetry_Int_Tables_number       1
_space_group_crystal_system       triclinic
_cell_length_a                    8.2867
_cell_length_b                    19.200319
_cell_length_c                    22.787351
_cell_angle_alpha                 100.16818
_cell_angle_beta                  89.967715
_cell_angle_gamma                 92.22909
_cell_volume                      3565.91493915

loop_
_atom_site_label
_atom_site_type_symbol
_atom_type_description
_atom_site_fract_x
_atom_site_fract_y
_atom_site_fract_z
_atom_type_partial_charge
Ba1   Ba    Ba6+2 0.157290 0.533910 0.474710 1.639933
Ba2   Ba    Ba6+2 0.652900 0.466090 0.525240 1.643114
C1    C     C_3   0.345013 0.683450 0.252917 -0.322092
C2    C     C_3   0.420602 0.678871 0.313228 0.436820
C3    C     C_3   0.498516 0.683987 0.626968 0.358482
C4    C     C_3   0.517806 0.763187 0.650697 -0.099139
C5    C     C_3   0.875417 0.284058 0.650728 0.430173
C6    C     C_3   0.892872 0.213451 0.671873 -0.089150
C7    C     C_3   0.381110 0.313351 0.682888 0.293566
C8    C     C_3   0.435349 0.304037 0.744575 -0.331897
C9    C     C_R   0.957138 0.198611 0.467887 -0.152969
C10   C     C_R   0.988475 0.272882 0.479393 0.062957
C11   C     C_R   0.132709 0.188882 0.549997 -0.157975
C12   C     C_3   0.965376 0.721649 0.357290 0.325550
C13   C     C_R   0.201182 0.255510 0.545633 0.010499
C14   C     C_R   0.677328 0.811971 0.452065 -0.170446
C15   C     C_R   0.605222 0.746052 0.457304 0.032395
C16   C     C_R   0.851415 0.802153 0.534427 -0.151165
C17   C     C_R   0.818243 0.728036 0.523083 0.050531
C18   C     C_R   0.016861 0.154724 0.507305 0.001656
C19   C     C_R   0.117085 0.299956 0.516267 -0.239911
C20   C     C_R   0.793331 0.846121 0.494846 -0.007481
C21   C     C_R   0.685588 0.701913 0.488188 -0.254682
C22   C     C_R   0.228915 0.041339 0.535056 -0.115897
C23   C     C_3   0.940928 0.795248 0.341712 -0.115543
C24   C     C_R   0.322489 0.997458 0.561722 -0.081642
C25   C     C_R   0.274136 0.927051 0.557762 0.166815
C26   C     C_R   0.130095 0.903024 0.528225 -0.072642
C27   C     C_R   0.013225 0.950129 0.515273 -0.008888
C28   C     C_R   0.066168 0.023242 0.518464 0.035537
C29   C     C_R   0.851188 0.925233 0.497690 -0.011414
C30   C     C_R   0.745827 0.977626 0.482794 0.040913
C31   C     C_R   0.798774 0.050911 0.487718 0.019182
C32   C     C_R   0.960499 0.075462 0.504258 -0.006891
C33   C     C_R   0.583129 0.960446 0.464527 -0.080490
C34   C     C_3   0.815793 0.369223 0.340560 0.301260
C35   C     C_R   0.490069 0.007047 0.440387 -0.068431
C36   C     C_R   0.537781 0.077602 0.448929 -0.064964
C37   C     C_R   0.682149 0.099354 0.478225 -0.087937
C38   C     C_R   0.654133 0.515533 0.333634 -0.317147
C39   C     C_R   0.392949 0.554638 0.945844 -0.025814
C40   C     C_R   0.339181 0.553010 0.886885 0.588913
C41   C     C_R   0.229080 0.434465 0.882147 0.576060
C42   C     C_R   0.283262 0.434077 0.940875 -0.021627
C43   C     C_R   0.365914 0.494560 0.972759 -0.051296
C44   C     C_R   0.473964 0.614933 0.978397 -0.076341
C45   C     C_3   0.809506 0.346310 0.273153 -0.363538
C46   C     C_R   0.527394 0.615600 0.036550 -0.075080
C47   C     C_R   0.502080 0.555888 0.063930 -0.016668
C48   C     C_R   0.421481 0.495080 0.031876 -0.052559
C49   C     C_R   0.258383 0.374343 0.968255 -0.074296
C50   C     C_R   0.315151 0.374519 0.026038 -0.074169
C51   C     C_R   0.396850 0.434747 0.058583 -0.025805
C52   C     C_R   0.454153 0.435994 0.117205 0.591635
C53   C     C_R   0.554155 0.556169 0.122886 0.570894
C54   C     C_2   0.062787 0.477515 0.773398 -0.064601
C55   C     C_3   0.019578 0.483298 0.709617 -0.052723
C56   C     C_3   0.001495 0.631155 0.659196 0.292632
C57   C     C_1   0.302954 0.509041 0.693861 0.011855
C58   C     C_2   0.344486 0.506961 0.749569 -0.100712
C59   C     C_2   0.217686 0.491062 0.793067 0.204725
C60   C     C_R   0.728217 0.527422 0.233039 -0.110681
C61   C     C_R   0.765930 0.536473 0.293913 -0.008294
C62   C     C_R   0.507049 0.482785 0.313238 0.023444
C63   C     C_R   0.465059 0.476350 0.252728 -0.102592
C64   C     C_R   0.574485 0.499646 0.211799 0.196941
C65   C     C_2   0.168058 0.477372 0.670834 -0.290739
C66   C     C_3   0.041190 0.660410 0.724386 -0.363914
C67   C     C_3   0.321652 0.318677 0.395990 0.315507
C68   C     C_3   0.315926 0.238346 0.379236 -0.383092
H1    H     H_    0.389167 0.625013 0.322600 0.052811
H2    H     H_    0.734830 0.296495 0.261279 0.140832
H3    H     H_    0.755416 0.387419 0.251872 0.075108
H4    H     H_    0.933465 0.337418 0.255574 0.128100
H5    H     H_    0.113654 0.613344 0.635919 0.032965
H6    H     H_    0.912295 0.586071 0.656191 0.037662
H7    H     H_    0.120342 0.709009 0.727721 0.152982
H8    H     H_    0.105427 0.621491 0.745177 0.085639
H9    H     H_    0.928224 0.673688 0.749429 0.118904
H10   H     H_    0.200116 0.336700 0.409150 0.001882
H11   H     H_    0.406849 0.334222 0.433986 0.083639
H12   H     H_    0.212312 0.679422 0.255205 0.146328
H13   H     H_    0.224906 0.220741 0.343401 0.129378
H14   H     H_    0.282894 0.214238 0.418547 0.059237
H15   H     H_    0.436328 0.219819 0.363408 0.127740
H16   H     H_    0.382347 0.638675 0.218769 0.110146
H17   H     H_    0.620188 0.662944 0.617181 0.013125
H18   H     H_    0.426053 0.676060 0.585076 0.006575
H19   H     H_    0.584653 0.789197 0.617645 0.017608
H20   H     H_    0.395922 0.785480 0.657137 0.128522
H21   H     H_    0.381910 0.734266 0.238905 0.129838
H22   H     H_    0.815865 0.797997 0.325087 0.137596
H23   H     H_    0.767212 0.280718 0.621544 0.084836
H24   H     H_    0.983996 0.294214 0.625096 -0.105128
H25   H     H_    0.898655 0.169941 0.632746 0.029695
H26   H     H_    0.007478 0.215581 0.697637 0.105060
H27   H     H_    0.249029 0.300891 0.678448 -0.023711
H28   H     H_    0.406754 0.369441 0.678846 0.061841
H29   H     H_    0.371492 0.340983 0.778761 0.118749
H30   H     H_    0.567038 0.316142 0.750184 0.173347
H31   H     H_    0.081371 0.721254 0.380349 0.114230
H32   H     H_    0.407907 0.248857 0.751105 0.122445
H33   H     H_    0.880803 0.176707 0.430156 0.071932
H34   H     H_    0.174901 0.164379 0.585985 0.065465
H35   H     H_    0.638698 0.835845 0.415230 0.082381
H36   H     H_    0.926085 0.823769 0.572669 0.071435
H37   H     H_    0.158294 0.354613 0.519094 0.059678
H38   H     H_    0.642126 0.647708 0.486426 0.069485
H39   H     H_    0.291632 0.087746 0.525499 0.087499
H40   H     H_    0.441090 0.016277 0.579005 0.073700
H41   H     H_    0.870411 0.711847 0.389091 -0.025304
H42   H     H_    0.114146 0.847228 0.515258 0.130769
H43   H     H_    0.518093 0.913652 0.471819 0.072773
H44   H     H_    0.370657 0.990404 0.422758 0.082745
H45   H     H_    0.456383 0.116144 0.437891 0.083198
H46   H     H_    0.699721 0.154510 0.494236 0.129639
H47   H     H_    0.293903 0.327310 0.045304 0.124980
H48   H     H_    0.195750 0.326946 0.944897 0.124538
H49   H     H_    0.588891 0.663226 0.060033 0.126281
H50   H     H_    0.816353 0.544204 0.202811 0.122399
H51   H     H_    0.496490 0.661955 0.958982 0.126845
H52   H     H_    0.956844 0.835783 0.382732 0.076746
H53   H     H_    0.469090 0.517418 0.764078 0.115806
H54   H     H_    0.967337 0.468727 0.804231 0.104281
H55   H     H_    0.347731 0.453331 0.237751 0.122128
H56   H     H_    0.684444 0.522456 0.380541 0.084880
H57   H     H_    0.163667 0.449220 0.625077 0.064675
H58   H     H_    0.691738 0.379032 0.357011 0.020585
H59   H     H_    0.893866 0.418167 0.351647 0.048727
N1    N     N_R   0.260778 0.492931 0.855255 -0.428940
N2    N     N_R   0.528130 0.496964 0.149588 -0.423808
O1    O     O_2   0.108070 0.674980 0.540650 -0.458541
O2    O     O_3   0.371408 0.347467 0.346423 -0.624659
O3    O     O_3   0.958584 0.669486 0.305564 -0.618579
O4    O     O_2   0.702240 0.324970 0.459330 -0.471671
O5    O     O_3   0.948380 0.413820 0.464520 -0.488657
O6    O     O_3   0.443920 0.371740 0.566130 -0.469299
O7    O     O_3   0.879451 0.314527 0.365083 -0.631654
O8    O     O_3   0.358830 0.538360 0.571050 -0.477392
O9    O     O_3   0.852160 0.408490 0.597560 -0.486721
O10   O     O_2   0.688140 0.445589 0.697905 -0.492219
O11   O     O_3   0.863851 0.338414 0.700144 -0.586700
O12   O     O_3   0.861930 0.586170 0.535430 -0.484625
O13   O     O_3   0.451480 0.461630 0.428900 -0.494956
O14   O     O_2   0.599240 0.538720 0.642170 -0.462906
O15   O     O_3   0.419648 0.651061 0.669892 -0.621732
O16   O     O_2   0.528914 0.244510 0.525264 -0.509286
O17   O     O_3   0.466425 0.267863 0.639846 -0.605124
O18   O     O_2   0.361005 0.605403 0.863776 -0.588315
O19   O     O_2   0.155262 0.382477 0.854759 -0.595739
O20   O     O_2   0.439730 0.382437 0.139140 -0.594822
O21   O     O_2   0.621044 0.609741 0.150682 -0.616599
O22   O     O_3   0.366390 0.628250 0.433820 -0.473878
O23   O     O_2   0.273850 0.755654 0.469317 -0.515559
O24   O     O_3   0.934597 0.685165 0.634808 -0.647244
O25   O     O_3   0.357377 0.731904 0.356755 -0.610491
O26   O     O_2   0.211060 0.461230 0.357810 -0.460118
O27   O     O_3   0.958150 0.591500 0.402390 -0.489281
O28   O     O_2   0.104738 0.549447 0.297747 -0.498316
P1    P     P_3+3 0.933470 0.664380 0.557030 0.978415
P2    P     P_3+3 0.383600 0.440030 0.365120 0.992601
P3    P     P_3+3 0.950446 0.584775 0.324796 0.943354
P4    P     P_3+3 0.876840 0.335610 0.442930 0.981198
P5    P     P_3+3 0.855593 0.419893 0.675835 0.972295
P6    P     P_3+3 0.402503 0.716597 0.428531 0.922663
P7    P     P_3+3 0.417374 0.559364 0.646014 0.965230
P8    P     P_3+3 0.408262 0.283168 0.569810 0.919504
N3    N     N_3   0.595248 0.690096 0.310339 -0.490768
H60   H     H_    0.638198 0.663490 0.269761 0.208088
H61   H     H_    0.644709 0.665696 0.343110 0.101747
N4    N     N_3   0.604651 0.776502 0.707546 -0.453250
H62   H     H_    0.725193 0.763993 0.699470 0.201886
H63   H     H_    0.604930 0.830970 0.723730 0.178429
N5    N     N_3   0.757321 0.199100 0.709443 -0.459485
H64   H     H_    0.657384 0.182618 0.681786 0.202677
H65   H     H_    0.785468 0.155776 0.729082 0.178235
N6    N     N_3   0.374503 0.878440 0.580162 -0.508279
H66   H     H_    0.425820 0.846361 0.543817 0.184057
H67   H     H_    0.470487 0.905889 0.605033 0.160849
N7    N     N_3   0.054074 0.812809 0.296879 -0.486453
H68   H     H_    0.171974 0.810199 0.312196 0.218757
H69   H     H_    0.037382 0.776214 0.257381 0.221183

loop_
_geom_bond_atom_site_label_1
_geom_bond_atom_site_label_2
_ccdc_geom_bond_type
C61   P3    S    
N4    H62   S    
C7    H28   S    
O13   P2    S    
C58   H53   S    
O23   P6    D    
Ba2   O13   S    
C39   C40   A    
C6    H26   S    
Ba1   O1    S    
C23   N7    S    
C56   H6    S    
O12   P1    S    
C51   C52   A    
C50   C51   A    
Ba2   O14   S    
C52   N2    Am   
N4    H63   S    
C24   C25   A    
C60   C61   A    
C38   C61   A    
C17   P1    S    
C54   H54   S    
C26   C27   A    
C33   C35   A    
C35   C36   A    
C22   C24   A    
Ba1   Ba2   S    
C67   C68   S    
O11   P5    S    
C3    C4    S    
C6    N5    S    
C49   H48   S    
C54   C55   S    
C34   C45   S    
C1    H21   S    
C16   C17   A    
C40   O18   D    
N5    H64   S    
C57   C65   D    
C3    H18   S    
C14   C15   A    
N6    H67   S    
C14   C20   A    
C39   C44   A    
C44   H51   S    
O7    P4    S    
Ba1   O5    S    
C68   H14   S    
C7    C8    S    
C24   H40   S    
C60   H50   S    
Ba1   O8    S    
C4    N4    S    
C18   C32   S    
C50   H47   S    
C66   H9    S    
N3    H61   S    
O15   P7    S    
Ba1   P2    S    
C57   C58   D    
C1    H16   S    
Ba2   O12   S    
C13   P8    S    
C34   H58   S    
C6    H25   S    
C55   C65   S    
N7    H69   S    
C56   H5    S    
C46   H49   S    
N5    H65   S    
O14   P7    D    
C41   N1    Am   
C66   H8    S    
C12   H41   S    
C5    H23   S    
C44   C46   A    
C9    C18   A    
C48   C51   A    
C20   C29   S    
C60   C64   A    
C49   C50   A    
C30   C33   A    
C8    H32   S    
C45   H3    S    
C5    C6    S    
C28   C32   A    
C12   H31   S    
C35   H44   S    
C12   O3    S    
C4    H20   S    
C10   C19   A    
C22   H39   S    
Ba2   O5    S    
O3    P3    S    
C58   C59   S    
C63   H55   S    
O8    P7    S    
C17   C21   A    
C41   C42   A    
C16   H36   S    
C27   C28   A    
Ba1   O12   S    
C65   H57   S    
C29   C30   A    
C15   C21   A    
C5    O11   S    
C38   H56   S    
C1    H12   S    
C31   C32   A    
O28   P3    D    
C40   N1    Am   
C31   C37   A    
C11   H34   S    
C8    H30   S    
C68   H13   S    
C57   P7    S    
C19   H37   S    
C41   O19   D    
O16   P8    D    
C59   N1    S    
C14   H35   S    
C42   C49   A    
C56   C66   S    
N3    H60   S    
C2    O25   S    
N6    H66   S    
C53   N2    Am   
C11   C13   A    
Ba2   O8    S    
C1    C2    S    
O26   P2    D    
O6    P8    S    
N7    H68   S    
C64   N2    S    
C23   H52   S    
C66   H7    S    
C5    H24   S    
Ba1   O27   S    
C23   H22   S    
C7    H27   S    
C3    O15   S    
C11   C18   A    
O22   P6    S    
O24   P1    S    
C16   C20   A    
Ba2   O6    S    
O4    P4    D    
Ba1   P1    S    
C42   C43   A    
C25   N6    S    
C45   H4    S    
C62   P2    S    
C47   C53   A    
O2    P2    S    
Ba2   P4    S    
C9    C10   A    
C52   O20   D    
C67   O2    S    
O9    P5    S    
C4    H19   S    
C7    O17   S    
Ba2   O4    S    
C38   C62   A    
Ba2   O9    S    
C62   C63   A    
Ba1   O26   S    
C27   C29   A    
Ba1   O13   S    
C15   P6    S    
C34   H59   S    
C30   C31   A    
C10   P4    S    
C43   C48   A    
C36   H45   S    
C36   C37   A    
C55   P5    S    
O25   P6    S    
C37   H46   S    
C46   C47   A    
C21   H38   S    
C33   H43   S    
C63   C64   A    
C12   C23   S    
C8    H29   S    
C22   C28   A    
C45   H2    S    
Ba1   O22   S    
C67   H11   S    
C56   O24   S    
O27   P3    S    
C26   H42   S    
C3    H17   S    
C2    N3    S    
C13   C19   A    
O10   P5    D    
C47   C48   A    
C25   C26   A    
O17   P8    S    
C39   C43   A    
C54   C59   D    
C67   H10   S    
C9    H33   S    
C53   O21   D    
C68   H15   S    
C34   O7    S    
O1    P1    D    
C2    H1    S    
O5    P4    S    
