data_mof_unit_2352.cif
_audit_creation_date              2012-12-10T20:25:43-0500
_audit_creation_method            fapswitch 2.2
_symmetry_space_group_name_H-M    P1
_symmetry_Int_Tables_number       1
_space_group_crystal_system       triclinic
_cell_length_a                    8.58667
_cell_length_b                    10.657023
_cell_length_c                    9.945579
_cell_angle_alpha                 89.756022
_cell_angle_beta                  98.315361
_cell_angle_gamma                 91.381179
_cell_volume                      900.273636593

loop_
_atom_site_label
_atom_site_type_symbol
_atom_type_description
_atom_site_fract_x
_atom_site_fract_y
_atom_site_fract_z
_atom_type_partial_charge
C1    C     C_R   0.488381 0.260488 0.498967 0.883499
C2    C     C_R   0.406212 0.417303 0.917928 0.226003
C3    C     C_3   0.231768 0.405667 0.890559 -0.487636
C4    C     C_R   0.201641 0.500140 0.464818 0.983757
C5    C     C_3   0.232156 0.405013 0.043340 -0.509411
C6    C     C_R   0.493479 0.739836 0.498907 0.994983
C7    C     C_R   0.798015 0.507846 0.534581 0.818706
C8    C     C_2   0.036642 0.490138 0.449319 -0.390940
C9    C     C_2   0.961942 0.534538 0.547160 0.262271
C10   C     C_R   0.490526 0.063887 0.619205 0.069156
C11   C     C_R   0.453778 0.129003 0.498256 -0.320413
C12   C     C_R   0.392579 0.932236 0.378229 0.425685
C13   C     C_R   0.382661 0.064000 0.380251 0.327452
C14   C     C_3   0.884929 0.572650 0.927999 -0.690446
C15   C     C_R   0.464450 0.871069 0.496744 -0.232077
C16   C     C_R   0.494766 0.936561 0.618594 -0.092836
C17   C     C_3   0.631267 0.935045 0.731546 0.219243
C18   C     C_3   0.626818 0.077838 0.730662 0.206266
C19   C     C_R   0.407193 0.416335 0.059862 0.196919
C20   C     C_R   0.603338 0.574181 0.083220 0.390610
C21   C     C_R   0.609085 0.568101 0.941032 0.185204
H1    H     H_    0.977562 0.436620 0.362922 0.129133
H2    H     H_    0.980990 0.633353 0.898710 0.246265
H3    H     H_    0.886293 0.479167 0.879459 0.248213
H4    H     H_    0.951668 0.668493 0.675607 0.366110
H5    H     H_    0.262212 0.202366 0.297776 0.335318
H6    H     H_    0.291146 0.918017 0.189212 0.385669
H7    H     H_    0.788145 0.928273 0.606007 0.330846
H8    H     H_    0.674776 0.131008 0.916950 0.337427
H9    H     H_    0.688692 0.655899 0.251702 0.397265
H10   H     H_    0.178199 0.490204 0.839916 0.254923
H11   H     H_    0.191090 0.314973 0.841198 0.221874
H12   H     H_    0.178664 0.489199 0.081469 0.223372
H13   H     H_    0.190487 0.314035 0.081597 0.234479
H14   H     H_    0.599610 0.891168 0.825650 0.170072
H15   H     H_    0.731041 0.128126 0.699181 0.098025
H16   H     H_    0.741306 0.724847 0.911818 0.266860
H17   H     H_    0.910354 0.560570 0.039843 0.248207
N1    N     N_R   0.498950 0.499140 0.142680 -0.177315
N2    N     N_R   0.498950 0.499180 0.857030 -0.156209
N3    N     N_2   0.734325 0.630848 0.887795 -0.228664
O1    O     O_R   0.500020 0.316790 0.614690 -0.586143
O2    O     O_3   0.308834 0.125313 0.267013 -0.765650
O3    O     O_3   0.335244 0.862109 0.264143 -0.724999
O4    O     O_3   0.769926 0.887689 0.692679 -0.786436
O5    O     O_3   0.578588 0.125754 0.848521 -0.733245
O6    O     O_3   0.706234 0.657876 0.157028 -0.775717
O7    O     O_R   0.500000 0.316760 0.385350 -0.597157
O8    O     O_R   0.271760 0.500010 0.587850 -0.570168
O9    O     O_R   0.271740 0.499970 0.358500 -0.635040
O10   O     O_R   0.500000 0.683240 0.614650 -0.595778
O11   O     O_R   0.499980 0.683210 0.385310 -0.595847
O12   O     O_R   0.728260 0.500030 0.641500 -0.596019
O13   O     O_R   0.728240 0.499990 0.412150 -0.654396
O14   O     O_3   0.034731 0.618728 0.643050 -0.760045
Zn1   Zn    Zn3+2 0.500010 0.500020 0.653130 1.003375
Zn2   Zn    Zn3+2 0.499990 0.499980 0.346870 0.975402

loop_
_geom_bond_atom_site_label_1
_geom_bond_atom_site_label_2
_ccdc_geom_bond_type
C14   H2    S    
C8    H1    S    
C1    O7    A    
C5    C19   S    
C6    O10   A    
C14   H17   S    
O8    Zn1   S    
N2    Zn1   S    
H8    O5    S    
C1    C11   S    
C12   C15   A    
C4    O8    A    
C4    C8    S    
O1    Zn1   S    
C5    H13   S    
C17   C18   S    
C2    C19   A    
O7    Zn2   S    
C12   O3    S    
C10   C16   A    
C12   C13   A    
C3    H10   S    
C11   C13   A    
C21   N2    A    
C19   N1    A    
C10   C18   S    
C14   N3    S    
C21   N3    S    
C18   O5    S    
H9    O6    S    
C17   O4    S    
H5    O2    S    
C2    C3    S    
H16   N3    S    
C3    H11   S    
H7    O4    S    
C9    O14   S    
C20   O6    S    
C10   C11   A    
C7    O12   A    
C15   C16   A    
N1    Zn2   S    
C2    N2    A    
C1    O1    A    
C13   O2    S    
C20   C21   A    
O10   Zn1   S    
O11   Zn2   S    
O12   Zn1   S    
C14   H3    S    
C7    C9    S    
C20   N1    A    
C8    C9    D    
C17   H14   S    
C7    O13   A    
C6    O11   A    
C6    C15   S    
O9    Zn2   S    
C18   H15   S    
H6    O3    S    
H4    O14   S    
C4    O9    A    
C16   C17   S    
C3    C5    S    
O13   Zn2   S    
C5    H12   S    
