data_mof_unit_4739.cif
_audit_creation_date              2012-12-10T19:45:02-0500
_audit_creation_method            fapswitch 2.2
_symmetry_space_group_name_H-M    P1
_symmetry_Int_Tables_number       1
_space_group_crystal_system       triclinic
_cell_length_a                    15.062171
_cell_length_b                    10.793445
_cell_length_c                    13.711168
_cell_angle_alpha                 89.915451
_cell_angle_beta                  89.916324
_cell_angle_gamma                 90.194002
_cell_volume                      2229.04419931

loop_
_atom_site_label
_atom_site_type_symbol
_atom_type_description
_atom_site_fract_x
_atom_site_fract_y
_atom_site_fract_z
_atom_type_partial_charge
C1    C     C_R   0.500095 0.262382 0.500004 0.852220
C2    C     C_R   0.643588 0.868847 0.594072 0.089870
C3    C     C_R   0.357726 0.160879 0.305692 0.239177
C4    C     C_R   0.642281 0.839120 0.694304 0.239177
C5    C     C_R   0.284527 0.219641 0.263418 -0.156712
C6    C     C_R   0.715484 0.780361 0.736574 -0.156714
C7    C     C_R   0.209629 0.246631 0.319563 -0.149160
C8    C     C_R   0.790380 0.753375 0.680425 -0.149158
C9    C     C_R   0.430707 0.934658 0.453168 0.132223
C10   C     C_R   0.569293 0.065342 0.546832 0.132224
C11   C     C_R   0.499986 0.871407 0.500128 -0.142318
C12   C     C_R   0.499905 0.737618 0.499996 0.852220
C13   C     C_R   0.500014 0.128593 0.499872 -0.142319
C14   C     C_R   0.569034 0.935912 0.547571 -0.042429
C15   C     C_R   0.430966 0.064087 0.452428 -0.042432
C16   C     C_R   0.328536 0.501516 0.500137 0.841531
C17   C     C_R   0.671464 0.498484 0.499863 0.841531
C18   C     C_R   0.571209 0.453952 0.793501 0.056771
C19   C     C_R   0.428792 0.546050 0.206499 0.056769
C20   C     C_R   0.428548 0.546190 0.793307 0.040552
C21   C     C_R   0.571452 0.453810 0.206693 0.040557
C22   C     C_R   0.426266 0.547685 0.896574 -0.010332
C23   C     C_R   0.046573 0.546775 0.326033 -0.214199
C24   C     C_R   0.573734 0.452318 0.103426 -0.010333
C25   C     C_R   0.499831 0.500510 0.948234 0.038829
C26   C     C_R   0.500169 0.499493 0.051765 0.038827
C27   C     C_R   0.573054 0.453916 0.896275 -0.021933
C28   C     C_R   0.426947 0.546087 0.103725 -0.021933
C29   C     C_R   0.352467 0.593427 0.949470 0.257656
C30   C     C_R   0.647534 0.406579 0.050530 0.257653
C31   C     C_R   0.353501 0.591774 0.052299 -0.252939
C32   C     C_R   0.646500 0.408231 0.947701 -0.252934
C33   C     C_R   0.814435 0.472100 0.586172 -0.211205
C34   C     C_R   0.953427 0.453232 0.673968 -0.214202
C35   C     C_R   0.185565 0.527903 0.413828 -0.211207
C36   C     C_R   0.768245 0.495389 0.499378 -0.055711
C37   C     C_R   0.231755 0.504613 0.500622 -0.055713
C38   C     C_R   0.814714 0.517701 0.412351 -0.253924
C39   C     C_R   0.185286 0.482304 0.587650 -0.253924
C40   C     C_R   0.907174 0.519669 0.411981 0.101348
C41   C     C_R   0.092826 0.480337 0.588019 0.101350
C42   C     C_R   0.953492 0.498353 0.499756 0.058540
C43   C     C_R   0.046508 0.501652 0.500244 0.058539
C44   C     C_R   0.906881 0.474009 0.587081 0.097077
C45   C     C_R   0.207940 0.216717 0.418678 -0.112967
C46   C     C_R   0.093119 0.525995 0.412920 0.097077
C47   C     C_R   0.954036 0.543621 0.325561 -0.202913
C48   C     C_R   0.045964 0.456386 0.674439 -0.202913
C49   C     C_3   0.280908 0.767130 0.872434 -0.650454
C50   C     C_3   0.719105 0.232879 0.127551 -0.650469
C51   C     C_R   0.792065 0.783291 0.581310 -0.112964
C52   C     C_R   0.281360 0.160450 0.462050 -0.177743
C53   C     C_R   0.718642 0.839555 0.537942 -0.177744
C54   C     C_R   0.356414 0.131153 0.405924 0.089874
Cu1   Cu    Cu3+1 0.500010 0.499980 0.597420 0.971639
Cu2   Cu    Cu3+1 0.499990 0.500020 0.402580 0.971640
H1    H     H_    0.778525 0.454188 0.653354 0.157669
H2    H     H_    0.220956 0.464472 0.654841 0.161007
H3    H     H_    0.919121 0.560030 0.257731 0.147232
H4    H     H_    0.080879 0.439979 0.742269 0.147234
H5    H     H_    0.081745 0.565197 0.258515 0.143151
H6    H     H_    0.918255 0.434809 0.741485 0.143151
H7    H     H_    0.152881 0.290969 0.286259 0.142876
H8    H     H_    0.847131 0.709039 0.713727 0.142879
H9    H     H_    0.149826 0.237755 0.462042 0.151418
H10   H     H_    0.850178 0.762257 0.537943 0.151417
H11   H     H_    0.279238 0.137676 0.538986 0.148422
H12   H     H_    0.221475 0.545814 0.346646 0.157670
H13   H     H_    0.720761 0.862330 0.461007 0.148424
H14   H     H_    0.285243 0.243158 0.186653 0.148392
H15   H     H_    0.714771 0.756844 0.813339 0.148392
H16   H     H_    0.217205 0.617703 0.935937 0.248774
H17   H     H_    0.286000 0.826562 0.938354 0.241981
H18   H     H_    0.220161 0.792957 0.831482 0.226256
H19   H     H_    0.339114 0.783996 0.824523 0.256847
H20   H     H_    0.782796 0.382327 0.064071 0.248778
H21   H     H_    0.714033 0.173458 0.061623 0.241973
H22   H     H_    0.660893 0.215990 0.175447 0.256859
H23   H     H_    0.626828 0.416794 0.753246 0.144743
H24   H     H_    0.779848 0.207059 0.168514 0.226262
H25   H     H_    0.373173 0.583208 0.246754 0.144745
H26   H     H_    0.373242 0.582086 0.752109 0.167065
H27   H     H_    0.626757 0.417911 0.247890 0.167071
H28   H     H_    0.296684 0.627014 0.092039 0.143133
H29   H     H_    0.703318 0.372993 0.907962 0.143134
H30   H     H_    0.779043 0.535534 0.345159 0.161007
I1    I     I_    0.321866 0.835782 0.388182 -0.392048
I2    I     I_    0.678133 0.164218 0.611818 -0.392045
I3    I     I_    0.466798 0.116510 0.214586 -0.381972
I4    I     I_    0.533210 0.883483 0.785415 -0.381971
N1    N     N_R   0.499960 0.499900 0.743810 -0.193424
N2    N     N_R   0.500040 0.500100 0.256190 -0.193426
N3    N     N_2   0.275815 0.637990 0.900182 -0.463816
N4    N     N_2   0.724187 0.362023 0.099819 -0.463824
O1    O     O_R   0.500000 0.319630 0.582270 -0.558302
O2    O     O_R   0.500000 0.680370 0.417730 -0.558302
O3    O     O_R   0.499990 0.319660 0.417730 -0.569553
O4    O     O_R   0.500010 0.680340 0.582270 -0.569553
O5    O     O_R   0.370260 0.499960 0.582280 -0.603760
O6    O     O_R   0.629740 0.500040 0.417720 -0.603758
O7    O     O_R   0.370250 0.499990 0.417740 -0.588592
O8    O     O_R   0.629750 0.500010 0.582260 -0.588592

loop_
_geom_bond_atom_site_label_1
_geom_bond_atom_site_label_2
_ccdc_geom_bond_type
C40   C47   A    
C38   C40   A    
Cu1   Cu2   S    
C22   C29   A    
C20   H26   S    
C53   H13   S    
C39   C41   A    
Cu1   O8    S    
C10   I2    S    
C38   H30   S    
C18   N1    A    
C7    C45   A    
C35   C37   A    
C24   C26   A    
Cu2   O7    S    
C3    C54   A    
C34   H6    S    
C33   C36   A    
Cu1   N1    S    
C19   N2    A    
H20   N4    S    
C21   H27   S    
C18   H23   S    
C22   C25   A    
C49   H19   S    
C17   C36   S    
C30   C32   A    
C12   O4    A    
C16   C37   S    
C40   C42   A    
C23   C46   A    
C29   C31   A    
C41   C43   A    
C42   C44   A    
Cu2   O3    S    
C50   H22   S    
C17   O6    A    
C52   C54   A    
C48   H4    S    
C4    I4    S    
C6    H15   S    
C20   N1    A    
C23   C47   A    
C15   C54   S    
C34   C44   A    
C4    C6    A    
C10   C14   A    
C1    O3    A    
C5    C7    A    
C50   N4    S    
C6    C8    A    
C45   C52   A    
C25   C26   A    
C39   H2    S    
C2    C53   A    
C31   H28   S    
C51   C53   A    
C51   H10   S    
C2    C4    A    
C17   O8    A    
C5    H14   S    
Cu2   N2    S    
C1    O1    A    
C19   C28   A    
C9    C11   A    
C8    C51   A    
C7    H7    S    
C52   H11   S    
C8    H8    S    
H16   N3    S    
Cu1   O1    S    
C20   C22   A    
C13   C15   A    
C45   H9    S    
C49   H17   S    
C1    C13   S    
C42   C43   A    
Cu2   O6    S    
C50   H21   S    
Cu2   O2    S    
C33   H1    S    
C27   C32   A    
C33   C44   A    
C28   C31   A    
C18   C27   A    
C3    C5    A    
C10   C13   A    
C50   H24   S    
C11   C12   S    
C16   O5    A    
C25   C27   A    
C26   C28   A    
C3    I3    S    
C36   C38   A    
C9    C15   A    
C30   N4    S    
C9    I1    S    
C29   N3    S    
C35   H12   S    
C32   H29   S    
Cu1   O4    S    
C11   C14   A    
C41   C48   A    
C2    C14   S    
C43   C46   A    
C24   C30   A    
C47   H3    S    
C16   O7    A    
C23   H5    S    
C34   C48   A    
C37   C39   A    
C21   C24   A    
Cu1   O5    S    
C49   H18   S    
C12   O2    A    
C49   N3    S    
C19   H25   S    
C35   C46   A    
C21   N2    A    
