data_mof_unit_1770.cif
_audit_creation_date              2013-03-05T16:25:01-0500
_audit_creation_method            fapswitch 2.2
_symmetry_space_group_name_H-M    P1
_symmetry_Int_Tables_number       1
_space_group_crystal_system       triclinic
_cell_length_a                    15.157497
_cell_length_b                    13.966278
_cell_length_c                    9.062144
_cell_angle_alpha                 89.735362
_cell_angle_beta                  92.188171
_cell_angle_gamma                 89.991163
_cell_volume                      1916.98044173

loop_
_atom_site_label
_atom_site_type_symbol
_atom_site_description
_atom_site_fract_x
_atom_site_fract_y
_atom_site_fract_z
_atom_type_partial_charge
O1    O     O_R   0.371460 0.581430 0.500010 -0.543065
O2    O     O_R   0.628540 0.418570 0.499990 -0.537468
O3    O     O_R   0.628540 0.581430 0.499990 -0.552535
O4    O     O_R   0.371460 0.418570 0.500010 -0.523774
C1    C     C_R   0.329479 0.500044 0.504446 0.821538
C2    C     C_R   0.669552 0.500188 0.500143 0.854873
O5    O     O_R   0.500000 0.581420 0.288390 -0.531616
O6    O     O_R   0.500000 0.418580 0.711610 -0.539652
O7    O     O_R   0.500000 0.581420 0.711610 -0.543109
O8    O     O_R   0.500000 0.418580 0.288390 -0.539430
C3    C     C_R   0.538471 0.107716 0.620114 0.280022
C4    C     C_R   0.458385 0.891483 0.380472 0.270066
C5    C     C_R   0.430464 0.109193 0.423894 0.284778
C6    C     C_R   0.568726 0.891501 0.573540 0.292294
C7    C     C_R   0.500043 0.500135 0.220778 0.871430
C8    C     C_R   0.500194 0.499865 0.779228 0.832850
Cu1   Cu    Cu3+1 0.500000 0.596430 0.500000 1.058946
Cu2   Cu    Cu3+1 0.500000 0.403570 0.500000 1.074043
N1    N     N_R   0.500000 0.258690 0.500000 -0.296381
N2    N     N_R   0.500000 0.741310 0.500000 -0.292371
C9    C     C_R   0.493552 0.054724 0.507670 -0.083794
C10   C     C_R   0.504293 0.945178 0.491200 -0.081609
C11   C     C_1   0.500235 0.500190 0.065599 -0.100262
C12   C     C_1   0.500277 0.499813 0.934409 -0.113040
C13   C     C_R   0.090557 0.584509 0.494707 -0.195004
C14   C     C_R   0.906788 0.450695 0.607770 -0.218094
C15   C     C_R   0.900712 0.545485 0.382764 -0.208566
C16   C     C_R   0.092548 0.411830 0.506606 -0.221573
H1    H     H_    0.052101 0.649792 0.492944 0.156573
H2    H     H_    0.945083 0.415197 0.695465 0.148680
H3    H     H_    0.934112 0.581173 0.294285 0.151459
H4    H     H_    0.057113 0.344487 0.510576 0.158389
C17   C     C_R   0.183052 0.587712 0.505042 0.215530
C18   C     C_R   0.815064 0.453948 0.613730 0.208326
C19   C     C_R   0.808709 0.548501 0.385624 0.175724
C20   C     C_R   0.184516 0.411778 0.516607 0.218979
C21   C     C_R   0.231474 0.499988 0.510315 -0.134004
C22   C     C_R   0.765631 0.501196 0.500286 -0.059370
C23   C     C_R   0.045891 0.497430 0.494383 0.044076
C24   C     C_R   0.949546 0.496611 0.493347 0.062656
C25   C     C_R   0.547515 0.208073 0.606374 0.422902
C26   C     C_R   0.450521 0.791029 0.394980 0.410545
C27   C     C_R   0.440085 0.209644 0.411203 0.438202
C28   C     C_R   0.560479 0.790964 0.586530 0.415886
Cl1   Cl    Cl    0.619410 0.266121 0.733344 -0.479742
Cl2   Cl    Cl    0.378072 0.731320 0.269704 -0.490509
Cl3   Cl    Cl    0.370417 0.270135 0.281602 -0.478296
Cl4   Cl    Cl    0.632516 0.730934 0.712949 -0.519224
N3    N     N_2   0.227536 0.677720 0.520287 -0.392215
H5    H     H_    0.260736 0.686604 0.620778 0.266120
C29   C     C_3   0.185794 0.764050 0.462372 -0.513221
H6    H     H_    0.132661 0.787450 0.535181 0.201462
H7    H     H_    0.158784 0.752092 0.348234 0.243775
H8    H     H_    0.235602 0.822221 0.458822 0.264886
N4    N     N_2   0.773294 0.411801 0.736052 -0.379246
H9    H     H_    0.806819 0.353563 0.780810 0.287682
C30   C     C_3   0.749061 0.479245 0.848325 -0.602418
H10   H     H_    0.809165 0.513349 0.898858 0.208466
H11   H     H_    0.713557 0.441076 0.935975 0.240348
H12   H     H_    0.704562 0.535448 0.800682 0.248275
N5    N     N_2   0.759476 0.595850 0.270101 -0.457921
H13   H     H_    0.779819 0.577828 0.166513 0.251345
C31   C     C_3   0.753640 0.698533 0.287799 -0.527397
H14   H     H_    0.819755 0.731840 0.277822 0.217680
H15   H     H_    0.727487 0.716699 0.397015 0.265547
H16   H     H_    0.708148 0.728662 0.200548 0.248256
N6    N     N_2   0.228631 0.322275 0.535341 -0.377768
H17   H     H_    0.197822 0.266440 0.479828 0.293805
C32   C     C_3   0.251020 0.297715 0.687493 -0.545452
H18   H     H_    0.190001 0.285909 0.749332 0.214742
H19   H     H_    0.290705 0.355516 0.741559 0.219618
H20   H     H_    0.290878 0.230951 0.691280 0.248565
Cl5   Cl    Cl    0.553230 0.058419 0.800050 -0.383362
Cl6   Cl    Cl    0.441749 0.939673 0.200249 -0.384315
Cl7   Cl    Cl    0.323483 0.062167 0.385528 -0.492738
Cl8   Cl    Cl    0.674894 0.940531 0.612376 -0.450797

loop_
_geom_bond_atom_site_label_1
_geom_bond_atom_site_label_2
_geom_bond_distance
_ccdc_geom_bond_type
N4    H9    1.032177 S    
C31   H15   1.110560 S    
C4    Cl6   1.772645 S    
O2    Cu2   1.959609 S    
O3    C2    1.293665 A    
N3    C29   1.448466 S    
C20   N6    1.423943 S    
O1    C1    1.303949 A    
C20   C21   1.424891 A    
O7    C8    1.290840 A    
C1    C21   1.488494 S    
O8    C7    1.290884 A    
C30   H11   1.110642 S    
C17   N3    1.431327 S    
C4    C10   1.416773 A    
Cu1   N2    2.023433 S    
C32   H19   1.111251 S    
Cu2   N1    2.023433 S    
C26   Cl2   1.761814 S    
N5    C31   1.446841 S    
C4    C26   1.413986 A    
C14   C18   1.394154 A    
C5    Cl7   1.772307 S    
O5    Cu1   1.930028 S    
C11   C12   1.188922 T    
C2    C22   1.456340 S    
C3    C25   1.413700 A    
N5    H13   1.031466 S    
O4    Cu2   1.959548 S    
C7    C11   1.406361 S    
C31   H16   1.110369 S    
C18   N4    1.422606 S    
O6    C8    1.292511 A    
C9    C10   1.547070 S    
O2    C2    1.298454 A    
N2    C28   1.373496 A    
N1    C27   1.375125 A    
C13   H1    1.081809 S    
C15   H3    1.083976 S    
N6    H17   1.032015 S    
C16   H4    1.084289 S    
C19   C22   1.410015 A    
C3    Cl5   1.773320 S    
C23   C24   1.460077 S    
C30   H12   1.109926 S    
C16   C23   1.390762 A    
C15   C19   1.396391 A    
C3    C9    1.415557 A    
O6    Cu2   1.930026 S    
C29   H6    1.110519 S    
C29   H7    1.111137 S    
C6    Cl8   1.772507 S    
C32   H20   1.110666 S    
C15   C24   1.398199 A    
Cu1   Cu2   2.693538 S    
C5    C9    1.417218 A    
C19   N5    1.422661 S    
O7    Cu1   1.928101 S    
C14   H2    1.084129 S    
N4    C30   1.447281 S    
C5    C27   1.415115 A    
C6    C28   1.414465 A    
C18   C22   1.410134 A    
O4    C1    1.305172 A    
N2    C26   1.374632 A    
O1    Cu1   1.959612 S    
C29   H8    1.110349 S    
C6    C10   1.418299 A    
C13   C23   1.391950 A    
C14   C24   1.397058 A    
C30   H10   1.112121 S    
O8    Cu2   1.928103 S    
O5    C7    1.292535 A    
O3    Cu1   1.959545 S    
C32   H18   1.111496 S    
C17   C21   1.427761 A    
C31   H14   1.111535 S    
C28   Cl4   1.761507 S    
C16   C20   1.393483 A    
C8    C12   1.406221 S    
N3    H5    1.031515 S    
C25   Cl1   1.755537 S    
N6    C32   1.447008 S    
C27   Cl3   1.761833 S    
N1    C25   1.374130 A    
C13   C17   1.402290 A    
