data_mof_unit_1721.cif
_audit_creation_date              2012-12-11T15:26:07-0500
_audit_creation_method            fapswitch 2.2
_symmetry_space_group_name_H-M    P1
_symmetry_Int_Tables_number       1
_space_group_crystal_system       triclinic
_cell_length_a                    24.732236
_cell_length_b                    17.304161
_cell_length_c                    15.634719
_cell_angle_alpha                 89.999474
_cell_angle_beta                  50.901921
_cell_angle_gamma                 90.000401
_cell_volume                      5192.82317965

loop_
_atom_site_label
_atom_site_type_symbol
_atom_type_description
_atom_site_fract_x
_atom_site_fract_y
_atom_site_fract_z
_atom_type_partial_charge
C1    C     C_R   0.349919 0.140114 0.764024 0.481996
C2    C     C_2   0.301914 0.860614 0.985755 0.518454
C3    C     C_2   0.359322 0.249448 0.863876 0.472199
C4    C     C_2   0.698092 0.860590 0.014258 0.518504
C5    C     C_2   0.140616 0.749556 0.136297 0.472005
C6    C     C_2   0.801915 0.360584 0.985733 0.518536
C7    C     C_2   0.859324 0.749452 0.863864 0.472159
C8    C     C_2   0.198093 0.360600 0.014260 0.518493
C9    C     C_2   0.688242 0.295484 0.125618 -0.119288
C10   C     C_2   0.240936 0.831454 0.019474 -0.109034
C11   C     C_2   0.311762 0.295493 0.874376 -0.119312
C12   C     C_R   0.667932 0.906145 0.192627 0.467336
C13   C     C_2   0.759040 0.831399 0.980603 -0.109049
C14   C     C_2   0.188234 0.795542 0.125727 -0.119240
C15   C     C_2   0.740974 0.331377 0.019376 -0.109054
C16   C     C_2   0.811760 0.795486 0.874368 -0.119290
C17   C     C_2   0.259042 0.331409 0.980607 -0.109035
C18   C     C_R   0.611385 0.108694 0.594088 -0.164390
C19   C     C_R   0.414926 0.856262 0.405172 -0.187155
C20   C     C_R   0.388616 0.108699 0.405912 -0.164426
C21   C     C_R   0.585087 0.856271 0.594831 -0.187124
C22   C     C_R   0.111383 0.608701 0.594088 -0.164444
C23   C     C_R   0.650082 0.140112 0.235975 0.481993
C24   C     C_R   0.914916 0.356271 0.405167 -0.187134
C25   C     C_R   0.888607 0.608682 0.405913 -0.164393
C26   C     C_R   0.085077 0.356263 0.594828 -0.187148
C27   C     C_R   0.688088 0.099543 0.411899 0.579224
C28   C     C_R   0.337529 0.856126 0.588777 0.505277
C29   C     C_R   0.311913 0.099547 0.588100 0.579248
C30   C     C_R   0.662481 0.856130 0.411222 0.505305
C31   C     C_R   0.188086 0.599550 0.411899 0.579232
C32   C     C_R   0.837525 0.356128 0.588774 0.505293
C33   C     C_R   0.811909 0.599532 0.588101 0.579225
C34   C     C_R   0.332068 0.906134 0.807370 0.467389
C35   C     C_R   0.162475 0.356127 0.411221 0.505293
C36   C     C_R   0.557249 0.139684 0.242182 -0.061044
C37   C     C_R   0.422374 0.896773 0.804546 -0.075716
C38   C     C_R   0.442750 0.139683 0.757820 -0.061044
C39   C     C_R   0.577626 0.896776 0.195450 -0.075741
C40   C     C_R   0.057233 0.639713 0.242236 -0.061054
C41   C     C_R   0.922376 0.396775 0.804547 -0.075752
C42   C     C_R   0.942751 0.639683 0.757817 -0.061052
C43   C     C_R   0.077627 0.396778 0.195451 -0.075725
C44   C     C_R   0.384624 0.181588 0.792965 -0.175365
C45   C     C_R   0.849916 0.640106 0.764030 0.481989
C46   C     C_R   0.648540 0.884060 0.130649 -0.176988
C47   C     C_R   0.615377 0.181586 0.207036 -0.175384
C48   C     C_R   0.351461 0.884050 0.869347 -0.176999
C49   C     C_R   0.884621 0.681582 0.792967 -0.175365
C50   C     C_R   0.148541 0.384063 0.130652 -0.177016
C51   C     C_R   0.115352 0.681628 0.207114 -0.175348
C52   C     C_R   0.851464 0.384055 0.869345 -0.177027
C53   C     C_R   0.678271 0.123935 0.503744 -0.034979
C54   C     C_R   0.363597 0.813518 0.494964 0.020579
C55   C     C_R   0.321732 0.123949 0.496258 -0.034971
C56   C     C_R   0.167932 0.406144 0.192631 0.467347
C57   C     C_R   0.636416 0.813528 0.505038 0.020549
C58   C     C_R   0.178266 0.623954 0.503742 -0.034959
C59   C     C_R   0.863588 0.313527 0.494959 0.020569
C60   C     C_R   0.821720 0.623917 0.496257 -0.034977
C61   C     C_R   0.136407 0.313520 0.505035 0.020566
C62   C     C_R   0.252714 0.240421 0.555065 0.544220
C63   C     C_R   0.696167 0.687338 0.456238 0.558504
C64   C     C_R   0.747250 0.240439 0.444982 0.544188
C65   C     C_R   0.303798 0.687351 0.543824 0.558509
C66   C     C_R   0.752743 0.740418 0.555018 0.544199
C67   C     C_R   0.150070 0.640128 0.236014 0.481916
C68   C     C_R   0.196195 0.187349 0.456191 0.558523
C69   C     C_R   0.247295 0.740422 0.444919 0.544222
C70   C     C_R   0.803825 0.187342 0.543770 0.558505
C71   C     C_R   0.704337 0.784212 0.561257 -0.238122
C72   C     C_R   0.244867 0.142524 0.450428 -0.219885
C73   C     C_R   0.295708 0.784202 0.438679 -0.238157
C74   C     C_R   0.755157 0.142508 0.549533 -0.219839
C75   C     C_R   0.204301 0.284201 0.561307 -0.238169
C76   C     C_R   0.744831 0.642497 0.450479 -0.219861
C77   C     C_R   0.795659 0.284230 0.438742 -0.238124
C78   C     C_R   0.832070 0.406139 0.807370 0.467381
C79   C     C_R   0.255124 0.642528 0.549587 -0.219913
C80   C     C_R   0.676764 0.758485 0.511269 -0.075629
C81   C     C_R   0.272818 0.169549 0.499385 -0.072603
C82   C     C_R   0.323245 0.758480 0.488731 -0.075613
C83   C     C_R   0.727180 0.169544 0.500617 -0.072609
C84   C     C_R   0.176757 0.258480 0.511269 -0.075619
C85   C     C_R   0.772810 0.669526 0.499388 -0.072605
C86   C     C_R   0.823234 0.258491 0.488731 -0.075635
C87   C     C_R   0.227182 0.669551 0.500614 -0.072583
C88   C     C_2   0.640680 0.249445 0.136122 0.472181
Cl1   Cl    Cl    0.261430 0.150999 0.827032 -0.459012
Cl2   Cl    Cl    0.256949 0.837707 0.718056 -0.469830
Cl3   Cl    Cl    0.233179 0.054431 0.695168 -0.416381
Cl4   Cl    Cl    0.743057 0.837703 0.281945 -0.469758
Cl5   Cl    Cl    0.266821 0.554437 0.304832 -0.416383
Cl6   Cl    Cl    0.756955 0.337692 0.718058 -0.469791
Cl7   Cl    Cl    0.733180 0.554412 0.695179 -0.416421
Cl8   Cl    Cl    0.243056 0.337713 0.281951 -0.469770
Cl9   Cl    Cl    0.290206 0.279084 0.611598 -0.543949
Cl10  Cl    Cl    0.661089 0.653956 0.393949 -0.494821
Cl11  Cl    Cl    0.709730 0.279100 0.388491 -0.543999
Cl12  Cl    Cl    0.745375 0.958712 0.133735 -0.437208
Cl13  Cl    Cl    0.338832 0.653972 0.606185 -0.494843
Cl14  Cl    Cl    0.790272 0.779081 0.611494 -0.543993
Cl15  Cl    Cl    0.161150 0.153968 0.393849 -0.494795
Cl16  Cl    Cl    0.209816 0.779080 0.388361 -0.544029
Cl17  Cl    Cl    0.838898 0.153954 0.606067 -0.494786
Cl18  Cl    Cl    0.325476 0.864329 0.071235 -0.491089
Cl19  Cl    Cl    0.614525 0.260752 0.053979 -0.467620
Cl20  Cl    Cl    0.674572 0.864325 0.928731 -0.491078
Cl21  Cl    Cl    0.385482 0.260757 0.946007 -0.467649
Cl22  Cl    Cl    0.825422 0.364347 0.071275 -0.491084
Cl23  Cl    Cl    0.738578 0.150992 0.172948 -0.459034
Cl24  Cl    Cl    0.114292 0.761075 0.054375 -0.467415
Cl25  Cl    Cl    0.174578 0.364331 0.928723 -0.491058
Cl26  Cl    Cl    0.885501 0.760790 0.945973 -0.467612
Cl27  Cl    Cl    0.254630 0.958709 0.866259 -0.437213
Cl28  Cl    Cl    0.761420 0.650981 0.827057 -0.459031
Cl29  Cl    Cl    0.245372 0.458714 0.133744 -0.437225
Cl30  Cl    Cl    0.238569 0.650990 0.172959 -0.459076
Cl31  Cl    Cl    0.754622 0.458693 0.866270 -0.437198
Cl32  Cl    Cl    0.766820 0.054428 0.304826 -0.416391
H1    H     H_    0.690807 0.840477 0.600474 0.194902
H2    H     H_    0.442214 0.842872 0.319361 0.166022
H3    H     H_    0.409982 0.111565 0.320719 0.159932
H4    H     H_    0.557801 0.842885 0.680642 0.166031
H5    H     H_    0.090016 0.611566 0.679281 0.159921
H6    H     H_    0.942200 0.342887 0.319356 0.166027
H7    H     H_    0.909973 0.611543 0.320720 0.159939
H8    H     H_    0.057788 0.342872 0.680639 0.166021
H9    H     H_    0.520858 0.153205 0.228144 0.174764
H10   H     H_    0.452161 0.898851 0.833485 0.169095
H11   H     H_    0.479142 0.153202 0.771858 0.174767
H12   H     H_    0.260806 0.087231 0.408485 0.197853
H13   H     H_    0.547838 0.898845 0.166514 0.169084
H14   H     H_    0.020825 0.653257 0.228238 0.174789
H15   H     H_    0.952164 0.398846 0.833483 0.169079
H16   H     H_    0.979145 0.653208 0.771850 0.174763
H17   H     H_    0.047839 0.398848 0.166515 0.169070
H18   H     H_    0.233594 0.824004 0.958736 0.206689
H19   H     H_    0.696224 0.294070 0.186301 0.217904
H20   H     H_    0.766351 0.823947 0.041375 0.206700
H21   H     H_    0.303777 0.294074 0.813698 0.217921
H22   H     H_    0.733674 0.323909 0.958594 0.206690
H23   H     H_    0.309270 0.840454 0.399415 0.194900
H24   H     H_    0.196292 0.794052 0.186326 0.218004
H25   H     H_    0.266352 0.323958 0.041381 0.206709
H26   H     H_    0.803768 0.794056 0.813697 0.217912
H27   H     H_    0.739242 0.087198 0.591442 0.197856
H28   H     H_    0.190745 0.340453 0.600561 0.194901
H29   H     H_    0.760742 0.587191 0.408573 0.197859
H30   H     H_    0.809193 0.340498 0.399522 0.194892
H31   H     H_    0.239178 0.587235 0.591542 0.197846
H32   H     H_    0.590016 0.111561 0.679282 0.159928
N1    N     N_R   0.388930 0.078160 0.705470 -0.086808
N2    N     N_R   0.419500 0.922160 0.443350 -0.081974
N3    N     N_R   0.419500 0.077840 0.443350 -0.084110
N4    N     N_R   0.580500 0.922160 0.556650 -0.081979
N5    N     N_R   0.080500 0.577840 0.556650 -0.084109
N6    N     N_R   0.919500 0.422160 0.443350 -0.081986
N7    N     N_R   0.919500 0.577840 0.443350 -0.084111
N8    N     N_R   0.080500 0.422160 0.556650 -0.081971
N9    N     N_R   0.626210 0.077590 0.443410 -0.109978
N10   N     N_R   0.373790 0.922410 0.556590 -0.096567
N11   N     N_R   0.373790 0.077590 0.556590 -0.109980
N12   N     N_R   0.611070 0.921840 0.294530 -0.093908
N13   N     N_R   0.626210 0.922410 0.443410 -0.096580
N14   N     N_R   0.126210 0.577590 0.443410 -0.109989
N15   N     N_R   0.873790 0.422410 0.556590 -0.096581
N16   N     N_R   0.873790 0.577590 0.556590 -0.109970
N17   N     N_R   0.126210 0.422410 0.443410 -0.096568
N18   N     N_R   0.554800 0.077270 0.294580 -0.085434
N19   N     N_R   0.445200 0.922730 0.705420 -0.080696
N20   N     N_R   0.445200 0.077270 0.705420 -0.085439
N21   N     N_R   0.554800 0.922730 0.294580 -0.080689
N22   N     N_R   0.054800 0.577270 0.294580 -0.085432
N23   N     N_R   0.611070 0.078160 0.294530 -0.086810
N24   N     N_R   0.945200 0.422730 0.705420 -0.080689
N25   N     N_R   0.945200 0.577270 0.705420 -0.085434
N26   N     N_R   0.054800 0.422730 0.294580 -0.080688
N27   N     N_R   0.388930 0.921840 0.705470 -0.093912
N28   N     N_R   0.888930 0.578160 0.705470 -0.086813
N29   N     N_R   0.111070 0.421840 0.294530 -0.093907
N30   N     N_R   0.111070 0.578160 0.294530 -0.086783
N31   N     N_R   0.888930 0.421840 0.705470 -0.093910
N32   N     N_R   0.580500 0.077840 0.556650 -0.084108
Ni1   Ni    Ni4+2 0.382710 0.000000 0.629850 0.357642
Ni2   Ni    Ni4+2 0.617290 0.000000 0.370150 0.357634
Ni3   Ni    Ni4+2 0.882710 0.500000 0.629850 0.357631
Ni4   Ni    Ni4+2 0.117290 0.500000 0.370150 0.357645
Ni5   Ni    Ni4+2 0.513020 0.000000 0.629850 0.217005
Ni6   Ni    Ni4+2 0.486980 0.000000 0.370150 0.217011
Ni7   Ni    Ni4+2 0.013020 0.500000 0.629850 0.217004
Ni8   Ni    Ni4+2 0.986980 0.500000 0.370150 0.216999

loop_
_geom_bond_atom_site_label_1
_geom_bond_atom_site_label_2
_ccdc_geom_bond_type
N24   N31   A    
C32   Cl6   S    
C43   N26   A    
N25   Ni7   S    
C20   N3    A    
C64   C77   A    
C29   N11   A    
C68   Cl15  S    
C65   Cl13  S    
C74   C83   A    
C39   N21   A    
C58   C87   S    
N22   N30   A    
C66   C85   A    
C79   C87   A    
C28   N10   A    
C19   H2    S    
C4    C46   S    
C35   Cl8   S    
N7    N16   A    
C21   C57   A    
C4    Cl20  S    
C65   C79   A    
C76   H29   S    
C7    Cl26  S    
C16   H26   S    
N3    Ni6   S    
C26   C61   A    
C3    Cl21  S    
C63   Cl10  S    
N6    Ni8   S    
C9    C88   D    
C39   H13   S    
C24   N6    A    
C75   C84   A    
C23   N23   A    
C56   N29   A    
C42   N25   A    
C62   Cl9   S    
C30   C57   A    
N21   Ni6   S    
C10   H18   S    
C37   H10   S    
N19   Ni5   S    
C36   C47   A    
C42   H16   S    
C78   N31   A    
C56   Cl29  S    
C4    C13   D    
C66   Cl14  S    
C20   H3    S    
C18   C53   A    
C6    C15   D    
C64   Cl11  S    
C70   C74   A    
N8    N17   A    
C69   C73   A    
C25   C60   A    
C45   C49   A    
C55   C81   S    
C41   C52   A    
N12   Ni2   S    
C72   C81   A    
C45   N28   A    
C63   C80   A    
N4    Ni5   S    
N2    Ni6   S    
N16   Ni3   S    
C24   H6    S    
C6    Cl22  S    
C57   C80   S    
N19   N27   A    
C34   N27   A    
C20   C55   A    
C52   C78   A    
C33   Cl7   S    
C71   C80   A    
N29   Ni4   S    
C71   H1    S    
N6    N15   A    
C72   H12   S    
N18   N23   A    
C40   C51   A    
C14   H24   S    
C3    C44   S    
C23   C47   A    
C68   C84   A    
C13   H20   S    
C74   H27   S    
C7    C49   S    
C54   C82   S    
C30   Cl4   S    
C10   C14   S    
C88   Cl19  S    
C28   C54   A    
C25   N7    A    
N24   Ni7   S    
C26   H8    S    
C29   C55   A    
C2    C48   S    
C34   Cl27  S    
C27   Cl32  S    
C40   H14   S    
C70   Cl17  S    
C50   C56   A    
C12   Cl12  S    
C77   H30   S    
C17   H25   S    
N5    Ni7   S    
C64   C83   A    
C38   C44   A    
N9    Ni2   S    
N28   Ni3   S    
N31   Ni3   S    
C12   N12   A    
C15   H22   S    
N26   Ni8   S    
C1    C44   A    
C66   C71   A    
C31   N14   A    
C18   N32   A    
C68   C72   A    
N25   N28   A    
N15   Ni3   S    
N12   N21   A    
C35   C61   A    
C51   C67   A    
C37   C48   A    
C1    N1    A    
C11   H21   S    
C5    C14   D    
C8    Cl25  S    
C39   C46   A    
C19   C54   A    
C12   C46   A    
C7    C16   D    
N17   Ni4   S    
C62   C81   A    
C77   C86   A    
C33   C60   A    
C35   N17   A    
N14   Ni4   S    
C62   C75   A    
C13   C16   S    
C33   N16   A    
C34   C48   A    
C70   C86   A    
C8    C50   S    
C73   C82   A    
C41   H15   S    
C31   C58   A    
C79   H31   S    
C73   H23   S    
C69   Cl16  S    
C11   C17   S    
C1    Cl1   S    
N7    Ni8   S    
N2    N10   A    
N13   Ni2   S    
N8    Ni7   S    
C22   H5    S    
C61   C84   S    
C69   C87   A    
N5    N14   A    
C22   C58   A    
N10   Ni1   S    
C60   C85   S    
C27   C53   A    
C43   C50   A    
C38   N20   A    
N27   Ni1   S    
C22   N5    A    
C75   H28   S    
C5    Cl24  S    
C23   Cl23  S    
N18   Ni6   S    
C36   N18   A    
C8    C17   D    
C53   C83   S    
N11   Ni1   S    
N20   Ni5   S    
N3    N11   A    
C38   H11   S    
N9    N32   A    
C78   Cl31  S    
C25   H7    S    
C59   C86   S    
C31   Cl5   S    
C36   H9    S    
C47   C88   S    
N23   Ni2   S    
C40   N22   A    
C9    H19   S    
C45   Cl28  S    
C65   C82   A    
C26   N8    A    
N1    Ni1   S    
N4    N13   A    
C21   H4    S    
C24   C59   A    
N1    N20   A    
C21   N4    A    
C2    Cl18  S    
C43   H17   S    
C9    C15   S    
C67   Cl30  S    
C37   N19   A    
N26   N29   A    
C3    C11   D    
C42   C49   A    
C41   N24   A    
C63   C76   A    
C32   N15   A    
C19   N2    A    
N32   Ni5   S    
C5    C51   S    
C28   Cl2   S    
C30   N13   A    
C32   C59   A    
C6    C52   S    
N30   Ni4   S    
C76   C85   A    
C27   N9    A    
C67   N30   A    
N22   Ni8   S    
C18   H32   S    
C29   Cl3   S    
C2    C10   D    
