data_mof_unit_480.cif
_audit_creation_date              2012-12-10T20:00:01-0500
_audit_creation_method            fapswitch 2.2
_symmetry_space_group_name_H-M    P1
_symmetry_Int_Tables_number       1
_space_group_crystal_system       triclinic
_cell_length_a                    14.659712
_cell_length_b                    14.244143
_cell_length_c                    8.898599
_cell_angle_alpha                 89.758225
_cell_angle_beta                  91.157723
_cell_angle_gamma                 90.238382
_cell_volume                      1857.74996233

loop_
_atom_site_label
_atom_site_type_symbol
_atom_type_description
_atom_site_fract_x
_atom_site_fract_y
_atom_site_fract_z
_atom_type_partial_charge
C1    C     C_R   0.327955 0.499814 0.520492 0.960295
C2    C     C_R   0.672052 0.500186 0.479541 0.960118
C3    C     C_R   0.437064 0.204584 0.414049 0.350690
C4    C     C_R   0.562934 0.795417 0.585953 0.350666
C5    C     C_R   0.551009 0.204505 0.605157 0.359705
C6    C     C_R   0.448986 0.795494 0.394849 0.359796
C7    C     C_R   0.427821 0.106164 0.427272 0.304834
C8    C     C_R   0.572177 0.893837 0.572727 0.304797
C9    C     C_R   0.542565 0.106133 0.620327 0.307399
C10   C     C_R   0.457430 0.893866 0.379677 0.307382
C11   C     C_R   0.499709 0.500122 0.218696 0.969108
C12   C     C_R   0.500291 0.499878 0.781304 0.969166
C13   C     C_R   0.494389 0.053572 0.508995 -0.111222
C14   C     C_R   0.505608 0.946428 0.491005 -0.111213
C15   C     C_1   0.499902 0.500178 0.065411 -0.060863
C16   C     C_1   0.500097 0.499822 0.934589 -0.060799
C17   C     C_R   0.089229 0.583279 0.585167 0.375735
C18   C     C_R   0.910804 0.416732 0.414964 0.375740
C19   C     C_R   0.911585 0.583927 0.414904 0.376671
C20   C     C_R   0.088443 0.416088 0.585260 0.376769
C21   C     C_R   0.184748 0.584997 0.590573 -0.152201
C22   C     C_R   0.815284 0.415009 0.409546 -0.152209
C23   C     C_R   0.816030 0.585871 0.409449 -0.151405
C24   C     C_R   0.184000 0.414139 0.590729 -0.151463
C25   C     C_R   0.231782 0.499588 0.565933 -0.283705
C26   C     C_R   0.768239 0.500415 0.434167 -0.283722
C27   C     C_R   0.045051 0.499845 0.540620 -0.055136
C28   C     C_R   0.954984 0.500167 0.459501 -0.055086
N1    N     N_R   0.500000 0.252470 0.500000 -0.222261
N2    N     N_R   0.500000 0.747530 0.500000 -0.222277
O1    O     O_R   0.369060 0.579480 0.500010 -0.585337
O2    O     O_R   0.630940 0.420520 0.499990 -0.585290
O3    O     O_R   0.630940 0.579480 0.499990 -0.583813
O4    O     O_R   0.369060 0.420520 0.500010 -0.583715
O5    O     O_R   0.500000 0.579460 0.285340 -0.570069
O6    O     O_R   0.500000 0.420540 0.714660 -0.570045
O7    O     O_R   0.500000 0.579460 0.714660 -0.570526
O8    O     O_R   0.500000 0.420540 0.285340 -0.570486
Zn1   Zn    Zn3+2 0.500000 0.606140 0.500000 1.084961
Zn2   Zn    Zn3+2 0.500000 0.393860 0.500000 1.084976
Cl1   Cl    Cl    0.363334 0.265637 0.289915 -0.398309
Cl2   Cl    Cl    0.636652 0.734368 0.710109 -0.398218
Cl3   Cl    Cl    0.625238 0.265358 0.728696 -0.397538
Cl4   Cl    Cl    0.374746 0.734641 0.271328 -0.397531
Cl5   Cl    Cl    0.026784 0.674028 0.671793 -0.361236
Cl6   Cl    Cl    0.973252 0.325959 0.328420 -0.361295
Cl7   Cl    Cl    0.974972 0.674834 0.327935 -0.362240
Cl8   Cl    Cl    0.025036 0.325226 0.672290 -0.362183
C29   C     C_2   0.233015 0.673369 0.631968 1.080891
O9    O     O_2   0.210631 0.747578 0.572619 -0.475970
O10   O     O_R   0.303402 0.671656 0.740418 -0.765449
H1    H     H_    0.331564 0.735902 0.758107 0.367590
C30   C     C_2   0.767025 0.326609 0.368283 1.080913
O11   O     O_2   0.789432 0.252440 0.427762 -0.475910
O12   O     O_R   0.696611 0.328239 0.259869 -0.765374
H2    H     H_    0.668441 0.263985 0.242323 0.367522
C31   C     C_2   0.768536 0.674459 0.367799 1.082280
O13   O     O_2   0.792574 0.748649 0.425164 -0.463698
O14   O     O_R   0.697174 0.673081 0.261087 -0.768877
H3    H     H_    0.669640 0.737449 0.243274 0.364046
C32   C     C_2   0.231509 0.325588 0.632587 1.082296
O15   O     O_2   0.207401 0.251326 0.575605 -0.463768
O16   O     O_R   0.302974 0.327093 0.739093 -0.769078
H4    H     H_    0.330504 0.262745 0.757096 0.364112
Cl9   Cl    Cl    0.317481 0.058843 0.392564 -0.293510
Cl10  Cl    Cl    0.682519 0.941159 0.607440 -0.293517
Cl11  Cl    Cl    0.560522 0.059029 0.803115 -0.350933
Cl12  Cl    Cl    0.439468 0.940966 0.196894 -0.350975

loop_
_geom_bond_atom_site_label_1
_geom_bond_atom_site_label_2
_ccdc_geom_bond_type
C1    O4    A    
C11   O8    A    
C1    C25   S    
O12   H2    S    
C9    Cl11  S    
C8    Cl10  S    
C24   C32   S    
O10   H1    S    
C20   C27   A    
C10   Cl12  S    
C12   O6    A    
O5    Zn1   S    
C1    O1    A    
C4    C8    A    
C21   C29   S    
C5    Cl3   S    
O14   H3    S    
C2    C26   S    
O3    Zn1   S    
C30   O11   D    
C21   C25   A    
O8    Zn2   S    
C19   C28   A    
C31   O13   D    
C20   Cl8   S    
C4    Cl2   S    
O4    Zn2   S    
C2    O2    A    
C18   Cl6   S    
N1    Zn2   S    
C11   O5    A    
C6    N2    A    
O1    Zn1   S    
N2    Zn1   S    
C29   O9    D    
C22   C30   S    
C5    N1    A    
C30   O12   S    
C22   C26   A    
C32   O15   D    
O7    Zn1   S    
C13   C14   S    
C19   Cl7   S    
C31   O14   S    
C7    Cl9   S    
C6    C10   A    
C17   Cl5   S    
C15   C16   T    
C17   C27   A    
C12   C16   S    
C7    C13   A    
O2    Zn2   S    
C18   C28   A    
C24   C25   A    
C2    O3    A    
C3    N1    A    
C6    Cl4   S    
C10   C14   A    
C23   C26   A    
C12   O7    A    
C23   C31   S    
C9    C13   A    
C19   C23   A    
C3    Cl1   S    
O6    Zn2   S    
C8    C14   A    
C3    C7    A    
C29   O10   S    
C18   C22   A    
C11   C15   S    
C32   O16   S    
C4    N2    A    
C20   C24   A    
C5    C9    A    
O16   H4    S    
C27   C28   S    
C17   C21   A    
