data_mof_unit_1357.cif
_audit_creation_date              2012-12-10T19:11:32-0500
_audit_creation_method            fapswitch 2.2
_symmetry_space_group_name_H-M    P1
_symmetry_Int_Tables_number       1
_space_group_crystal_system       triclinic
_cell_length_a                    10.635902
_cell_length_b                    9.699003
_cell_length_c                    10.490672
_cell_angle_alpha                 90.332356
_cell_angle_beta                  89.588226
_cell_angle_gamma                 90.484202
_cell_volume                      1082.10860306

loop_
_atom_site_label
_atom_site_type_symbol
_atom_type_description
_atom_site_fract_x
_atom_site_fract_y
_atom_site_fract_z
_atom_type_partial_charge
C1    C     C_R   0.257967 0.499335 0.505136 0.850885
C2    C     C_3   0.933603 0.529187 0.357061 0.236966
C3    C     C_3   0.372500 0.080251 0.523590 -0.232039
C4    C     C_3   0.372543 0.917761 0.524057 -0.232516
C5    C     C_3   0.542014 0.080936 0.372585 -0.233733
C6    C     C_3   0.540532 0.918435 0.372191 -0.237569
C7    C     C_3   0.585190 0.082627 0.595544 -0.231130
C8    C     C_3   0.584899 0.920264 0.595747 -0.230798
C9    C     C_R   0.500788 0.499567 0.257054 0.860926
C10   C     C_R   0.742787 0.500351 0.499987 0.826050
C11   C     C_R   0.498399 0.500469 0.742764 0.864301
C12   C     C_3   0.500116 0.498724 0.122110 0.042396
C13   C     C_3   0.389818 0.551550 0.044450 -0.186647
C14   C     C_3   0.512003 0.369313 0.039087 -0.141102
C15   C     C_3   0.401694 0.422313 0.958659 -0.183577
C16   C     C_3   0.497392 0.501507 0.877611 0.034125
C17   C     C_3   0.485345 0.630873 0.960501 -0.145426
C18   C     C_3   0.607500 0.448739 0.955245 -0.186601
C19   C     C_3   0.595575 0.577990 0.040835 -0.186222
C20   C     C_3   0.884611 0.665416 0.292475 -0.392491
C21   C     C_3   0.908286 0.805747 0.358641 -0.355307
C22   C     C_3   0.906224 0.924808 0.263674 -0.967958
C23   C     C_3   0.072202 0.606666 0.600282 -0.420735
C24   C     C_3   0.895214 0.404668 0.266272 -0.449105
C25   C     C_3   0.927724 0.420206 0.123183 -0.375217
C26   C     C_3   0.913168 0.282946 0.052425 -0.912419
C27   C     C_3   0.070002 0.353697 0.541294 -0.416201
C28   C     C_3   0.928530 0.605099 0.599950 -0.418084
C29   C     C_3   0.926868 0.357174 0.546925 -0.448157
C30   C     C_3   0.079705 0.533802 0.367297 -0.409006
C31   C     C_3   0.122092 0.498205 0.503959 0.149748
C32   C     C_3   0.879632 0.500232 0.498018 0.152711
H1    H     H_    0.322790 0.359422 0.920133 0.122106
H2    H     H_    0.556710 0.121106 0.691444 0.148826
H3    H     H_    0.555735 0.882916 0.691617 0.143600
H4    H     H_    0.638377 0.119506 0.349720 0.146411
H5    H     H_    0.635013 0.879063 0.346962 0.157161
H6    H     H_    0.301396 0.593022 0.085875 0.115707
H7    H     H_    0.523383 0.262799 0.075219 0.122501
H8    H     H_    0.474366 0.737415 0.924281 0.124452
H9    H     H_    0.695437 0.407421 0.912811 0.131612
H10   H     H_    0.673829 0.642725 0.077615 0.113806
H11   H     H_    0.107041 0.711775 0.576031 0.167619
H12   H     H_    0.305459 0.116673 0.450443 0.143509
H13   H     H_    0.099900 0.274621 0.470169 0.173676
H14   H     H_    0.106457 0.583161 0.697798 0.158593
H15   H     H_    0.106964 0.322495 0.635831 0.167117
H16   H     H_    0.894120 0.574120 0.696302 0.157016
H17   H     H_    0.895286 0.340351 0.647221 0.171856
H18   H     H_    0.892627 0.710433 0.589006 0.165129
H19   H     H_    0.887694 0.267971 0.492999 0.170708
H20   H     H_    0.118862 0.635912 0.339342 0.156586
H21   H     H_    0.124559 0.459528 0.300098 0.143574
H22   H     H_    0.987004 0.917158 0.196368 0.263178
H23   H     H_    0.304926 0.878753 0.451607 0.144591
H24   H     H_    0.817333 0.923366 0.208745 0.261205
H25   H     H_    0.913476 0.024595 0.315756 0.248554
H26   H     H_    0.832561 0.825538 0.428663 0.222307
H27   H     H_    0.999948 0.809398 0.407645 0.221826
H28   H     H_    0.930884 0.673614 0.197643 0.202749
H29   H     H_    0.782243 0.655142 0.274312 0.188677
H30   H     H_    0.981455 0.206838 0.088776 0.263269
H31   H     H_    0.816217 0.241408 0.065026 0.263212
H32   H     H_    0.931423 0.298432 0.949094 0.239803
H33   H     H_    0.863142 0.494745 0.078605 0.214334
H34   H     H_    0.337264 0.119507 0.616975 0.139447
H35   H     H_    0.025592 0.458159 0.109483 0.217816
H36   H     H_    0.942390 0.309450 0.297919 0.214407
H37   H     H_    0.792280 0.385431 0.273156 0.198931
H38   H     H_    0.337824 0.879645 0.617867 0.138301
H39   H     H_    0.479992 0.118291 0.295442 0.144197
H40   H     H_    0.476359 0.880884 0.296017 0.149133
H41   H     H_    0.682581 0.121393 0.578755 0.143521
H42   H     H_    0.681955 0.882404 0.580156 0.133572
N1    N     N_3   0.499750 0.138610 0.497240 -0.029377
N2    N     N_3   0.499750 0.861390 0.497240 -0.029819
O1    O     O_R   0.314910 0.616040 0.499970 -0.636242
O2    O     O_R   0.314910 0.383960 0.499970 -0.634338
O3    O     O_R   0.500080 0.616020 0.313900 -0.630605
O4    O     O_R   0.500080 0.383980 0.313900 -0.633689
O5    O     O_R   0.685320 0.616040 0.499930 -0.631764
O6    O     O_R   0.685320 0.383960 0.499930 -0.638554
O7    O     O_R   0.500150 0.616060 0.686000 -0.633580
O8    O     O_R   0.500150 0.383940 0.686000 -0.629944
Zn1   Zn    Zn3+2 0.500150 0.654960 0.499940 0.893718
Zn2   Zn    Zn3+2 0.500150 0.345040 0.499940 0.893531

loop_
_geom_bond_atom_site_label_1
_geom_bond_atom_site_label_2
_ccdc_geom_bond_type
C27   C29   S    
C1    O1    A    
C14   C18   S    
C25   H35   S    
C8    N2    S    
C22   H25   S    
C4    H38   S    
C7    C8    S    
C22   H22   S    
C29   H17   S    
C6    H40   S    
O8    Zn2   S    
C21   H27   S    
C29   C32   S    
C5    C6    S    
C15   C16   S    
C5    H4    S    
C1    C31   S    
C23   H11   S    
C2    C32   S    
C18   C19   S    
C9    O3    A    
C20   H29   S    
C26   H32   S    
O4    Zn2   S    
C14   H7    S    
C28   H18   S    
C16   C17   S    
C20   H28   S    
C3    N1    S    
C19   H10   S    
C27   H13   S    
O1    Zn1   S    
C23   H14   S    
C21   C22   S    
C1    O2    A    
C24   H37   S    
C30   H21   S    
C3    H12   S    
C2    C20   S    
C28   C32   S    
C25   H33   S    
C24   C25   S    
C7    H41   S    
C18   H9    S    
C22   H24   S    
C11   O7    A    
C25   C26   S    
O6    Zn2   S    
C27   C31   S    
C10   O6    A    
C8    H3    S    
C23   C31   S    
C5    N1    S    
C26   H31   S    
C11   C16   S    
N1    Zn2   S    
C8    H42   S    
C6    H5    S    
C23   C28   S    
C12   C13   S    
C13   H6    S    
O7    Zn1   S    
C12   C14   S    
C9    O4    A    
C13   C15   S    
C4    H23   S    
C2    C24   S    
C7    H2    S    
C3    H34   S    
C3    C4    S    
O3    Zn1   S    
C29   H19   S    
C27   H15   S    
C30   H20   S    
C28   H16   S    
C7    N1    S    
C6    N2    S    
C11   O8    A    
C10   O5    A    
C13   C17   S    
C2    C30   S    
C26   H30   S    
C21   H26   S    
C5    H39   S    
O2    Zn2   S    
C30   C31   S    
C12   C19   S    
C17   C19   S    
C15   H1    S    
C9    C12   S    
C4    N2    S    
C24   H36   S    
C10   C32   S    
C20   C21   S    
C16   C18   S    
C14   C15   S    
N2    Zn1   S    
C17   H8    S    
O5    Zn1   S    
