data_mof_unit_4050.cif
_audit_creation_date              2012-10-26T20:51:58-0400
_audit_creation_method            fapswitch 2.2
_symmetry_space_group_name_H-M    P1
_symmetry_Int_Tables_number       1
_space_group_crystal_system       triclinic
_cell_length_a                    8.714244
_cell_length_b                    16.033645
_cell_length_c                    14.772668
_cell_angle_alpha                 89.650843
_cell_angle_beta                  98.193633
_cell_angle_gamma                 91.022471
_cell_volume                      2042.64519758

loop_
_atom_site_label
_atom_site_type_symbol
_atom_type_description
_atom_site_fract_x
_atom_site_fract_y
_atom_site_fract_z
_atom_type_partial_charge
C1    C     C_R   0.500225 0.340935 0.500315 0.563429
C2    C     C_R   0.795345 0.513531 0.523480 0.566258
C3    C     C_2   0.042097 0.537770 0.465903 -0.044218
C4    C     C_2   0.961184 0.535997 0.538895 -0.050293
C5    C     C_R   0.459049 0.954907 0.581555 0.011200
C6    C     C_R   0.455343 0.045137 0.415082 0.010991
C7    C     C_R   0.450039 0.912381 0.497079 0.022313
C8    C     C_R   0.469596 0.087350 0.499675 0.020102
C9    C     C_R   0.436207 0.957128 0.413452 0.012105
C10   C     C_R   0.465451 0.043402 0.582611 0.009139
C11   C     C_1   0.463754 0.822436 0.496918 -0.085226
C12   C     C_R   0.496005 0.659191 0.499457 0.529406
C13   C     C_1   0.484788 0.177204 0.500839 -0.079551
C14   C     C_1   0.493862 0.252034 0.500743 -0.052231
C15   C     C_1   0.479254 0.747892 0.497734 -0.064521
C16   C     C_R   0.505340 0.578200 0.949651 -0.004555
C17   C     C_R   0.470287 0.427497 0.047236 0.001914
C18   C     C_3   0.975717 0.576531 0.374032 -0.252727
C19   C     C_3   0.084659 0.645178 0.344076 -0.301172
C20   C     C_3   0.001481 0.701510 0.270471 -0.484515
C21   C     C_3   0.042422 0.549870 0.637605 -0.245548
C22   C     C_3   0.952295 0.596151 0.703699 -0.303440
C23   C     C_R   0.487032 0.501583 0.901715 -0.012668
C24   C     C_3   0.062684 0.624245 0.788550 -0.481998
C25   C     C_3   0.474367 0.091843 0.671901 -0.249466
C26   C     C_3   0.643817 0.108147 0.713407 -0.292025
C27   C     C_3   0.654495 0.158125 0.801599 -0.461597
C28   C     C_3   0.396849 0.911754 0.322604 -0.255639
C29   C     C_3   0.226429 0.924532 0.281725 -0.299239
C30   C     C_3   0.198467 0.903657 0.179953 -0.470464
C31   C     C_3   0.454160 0.905340 0.669462 -0.251009
C32   C     C_3   0.285755 0.889667 0.685169 -0.292141
C33   C     C_3   0.278085 0.846904 0.776853 -0.469481
C34   C     C_R   0.494543 0.504165 0.096626 -0.002209
C35   C     C_3   0.472480 0.094331 0.328002 -0.253476
C36   C     C_3   0.644134 0.103312 0.316375 -0.291625
C37   C     C_3   0.665360 0.155791 0.232453 -0.462366
C38   C     C_3   0.530004 0.667308 0.091986 -0.267589
C39   C     C_3   0.569499 0.676790 0.195869 -0.288137
C40   C     C_3   0.612184 0.767422 0.220134 -0.481276
C41   C     C_3   0.417374 0.348140 0.892810 -0.249662
C42   C     C_3   0.252384 0.352450 0.839645 -0.288774
C43   C     C_3   0.214722 0.276290 0.778523 -0.455970
C44   C     C_3   0.516955 0.658004 0.893455 -0.255194
C45   C     C_R   0.459958 0.426943 0.949342 0.004612
C46   C     C_3   0.684078 0.674910 0.876012 -0.290599
C47   C     C_3   0.691929 0.746951 0.808903 -0.465429
C48   C     C_3   0.453496 0.346577 0.100551 -0.247923
C49   C     C_3   0.282248 0.324861 0.104257 -0.289182
C50   C     C_3   0.264614 0.253557 0.170913 -0.461685
C51   C     C_R   0.510513 0.580555 0.047386 0.002772
C52   C     C_1   0.494812 0.500197 0.801957 0.092705
C53   C     C_1   0.497438 0.502242 0.197230 0.094899
C54   C     C_R   0.204388 0.511015 0.477248 0.562653
Cu1   Cu    Cu3+1 0.500040 0.500000 0.589220 0.928287
Cu2   Cu    Cu3+1 0.499960 0.500000 0.410780 0.928243
H1    H     H_    0.941762 0.664031 0.212517 0.155367
H2    H     H_    0.997711 0.653637 0.838695 0.141690
H3    H     H_    0.894658 0.651521 0.669333 0.165895
H4    H     H_    0.864060 0.554306 0.728039 0.198321
H5    H     H_    0.079433 0.488743 0.668409 0.159438
H6    H     H_    0.145528 0.590951 0.634243 0.182002
H7    H     H_    0.600895 0.219862 0.787151 0.153811
H8    H     H_    0.594406 0.124252 0.852601 0.142645
H9    H     H_    0.778111 0.167938 0.830736 0.138321
H10   H     H_    0.704038 0.048070 0.728284 0.151330
H11   H     H_    0.704943 0.143639 0.663976 0.169850
H12   H     H_    0.917265 0.739957 0.300471 0.154311
H13   H     H_    0.413743 0.152083 0.660068 0.143924
H14   H     H_    0.410809 0.059337 0.721989 0.132791
H15   H     H_    0.264145 0.948119 0.141374 0.143380
H16   H     H_    0.235747 0.839277 0.168156 0.144793
H17   H     H_    0.073032 0.908558 0.153740 0.138383
H18   H     H_    0.151126 0.883756 0.318537 0.159613
H19   H     H_    0.190838 0.989861 0.290323 0.160201
H20   H     H_    0.477331 0.932854 0.274934 0.135556
H21   H     H_    0.413280 0.843684 0.329763 0.149134
H22   H     H_    0.337259 0.786214 0.778949 0.148807
H23   H     H_    0.087044 0.743703 0.244230 0.146361
H24   H     H_    0.334564 0.886673 0.833802 0.144039
H25   H     H_    0.155086 0.835662 0.785941 0.137854
H26   H     H_    0.223339 0.949602 0.683763 0.155392
H27   H     H_    0.225469 0.849445 0.629628 0.166605
H28   H     H_    0.512405 0.844864 0.666655 0.144760
H29   H     H_    0.521342 0.936865 0.729309 0.132286
H30   H     H_    0.600835 0.127127 0.169708 0.140842
H31   H     H_    0.623157 0.219881 0.240283 0.157714
H32   H     H_    0.790308 0.159723 0.225039 0.138739
H33   H     H_    0.710097 0.133552 0.377817 0.171198
H34   H     H_    0.132679 0.684422 0.403657 0.158333
H35   H     H_    0.693117 0.040574 0.309010 0.153977
H36   H     H_    0.407415 0.065658 0.265856 0.137597
H37   H     H_    0.421034 0.156859 0.330283 0.145766
H38   H     H_    0.716160 0.787815 0.189778 0.143679
H39   H     H_    0.515145 0.808270 0.192647 0.146394
H40   H     H_    0.637199 0.774169 0.295571 0.148557
H41   H     H_    0.466665 0.659728 0.229089 0.186372
H42   H     H_    0.669824 0.637615 0.222429 0.173891
H43   H     H_    0.626102 0.699856 0.063667 0.148868
H44   H     H_    0.421683 0.702180 0.070285 0.130892
H45   H     H_    0.182586 0.617046 0.315429 0.200444
H46   H     H_    0.294936 0.274113 0.726549 0.161605
H47   H     H_    0.225192 0.218108 0.820000 0.140647
H48   H     H_    0.094116 0.280218 0.742591 0.143267
H49   H     H_    0.166437 0.355884 0.888118 0.149412
H50   H     H_    0.238949 0.409020 0.795886 0.167827
H51   H     H_    0.502411 0.340643 0.844332 0.141250
H52   H     H_    0.424309 0.290180 0.933627 0.132814
H53   H     H_    0.630051 0.728878 0.740720 0.166735
H54   H     H_    0.639048 0.803489 0.833560 0.145441
H55   H     H_    0.814422 0.762055 0.801925 0.135843
H56   H     H_    0.956062 0.527157 0.320964 0.154422
H57   H     H_    0.759347 0.690132 0.941108 0.147073
H58   H     H_    0.730320 0.618392 0.847242 0.169444
H59   H     H_    0.439491 0.652464 0.827151 0.144789
H60   H     H_    0.472596 0.713341 0.925235 0.121428
H61   H     H_    0.323663 0.197178 0.150844 0.144178
H62   H     H_    0.314764 0.272398 0.241303 0.165173
H63   H     H_    0.139731 0.238163 0.170306 0.137260
H64   H     H_    0.222542 0.380310 0.126410 0.170259
H65   H     H_    0.224243 0.306124 0.035593 0.156343
H66   H     H_    0.513674 0.294249 0.072907 0.118101
H67   H     H_    0.863524 0.606748 0.378816 0.173401
H68   H     H_    0.515423 0.351495 0.171332 0.150713
H69   H     H_    0.125137 0.569928 0.822125 0.155387
H70   H     H_    0.148566 0.670478 0.769244 0.146234
N1    N     N_1   0.500050 0.499980 0.276720 -0.220055
N2    N     N_1   0.499950 0.500020 0.723280 -0.213629
O1    O     O_R   0.500070 0.380310 0.575330 -0.483855
O2    O     O_R   0.499930 0.619690 0.424670 -0.513136
O3    O     O_R   0.500000 0.380310 0.424640 -0.483239
O4    O     O_R   0.500000 0.619690 0.575360 -0.503966
O5    O     O_R   0.274870 0.500000 0.557960 -0.513676
O6    O     O_R   0.725130 0.500000 0.442040 -0.502589
O7    O     O_R   0.274790 0.500000 0.407270 -0.494937
O8    O     O_R   0.725210 0.500000 0.592730 -0.496303

loop_
_geom_bond_atom_site_label_1
_geom_bond_atom_site_label_2
_ccdc_geom_bond_type
C36   H33   S    
Cu1   Cu2   S    
C8    C13   S    
C23   C45   A    
C41   H52   S    
C50   H61   S    
C41   C42   S    
C37   H32   S    
C35   C36   S    
C16   C51   A    
C6    C9    A    
C30   H15   S    
C52   N2    T    
C7    C11   S    
C34   C51   A    
C2    O6    A    
C12   O2    A    
C31   H29   S    
C26   H11   S    
C36   C37   S    
C17   C45   A    
C1    O1    A    
C48   H66   S    
C38   C39   S    
C3    C54   S    
C33   H22   S    
C39   H41   S    
C49   H64   S    
Cu1   O8    S    
C6    C35   S    
C3    C18   S    
C18   C19   S    
Cu2   N1    S    
C43   H48   S    
C53   N1    T    
C11   C15   T    
C19   C20   S    
C44   H59   S    
Cu1   O1    S    
C17   C48   S    
C41   H51   S    
C16   C44   S    
C21   H5    S    
C46   H57   S    
C18   H67   S    
C35   H36   S    
C13   C14   T    
C24   H70   S    
C40   H40   S    
C44   C46   S    
C35   H37   S    
C46   H58   S    
C50   H63   S    
C26   H10   S    
C20   H12   S    
C37   H30   S    
C38   H44   S    
C40   H38   S    
C22   H3    S    
C5    C7    A    
C30   H17   S    
C39   H42   S    
C6    C8    A    
C29   H18   S    
C25   C26   S    
Cu1   O5    S    
C54   O5    A    
C2    O8    A    
C31   H28   S    
C2    C4    S    
C29   C30   S    
C27   H9    S    
Cu2   O6    S    
C31   C32   S    
C12   C15   S    
C49   H65   S    
C26   C27   S    
C28   H21   S    
C42   H50   S    
C21   H6    S    
C27   H7    S    
C29   H19   S    
C10   C25   S    
C8    C10   A    
C48   C49   S    
C49   C50   S    
C16   C23   A    
C24   H69   S    
C22   C24   S    
C25   H13   S    
C17   C34   A    
C40   H39   S    
C3    C4    D    
C28   H20   S    
C39   C40   S    
Cu2   O7    S    
C36   H35   S    
C7    C9    A    
C32   H27   S    
C46   C47   S    
C28   C29   S    
C12   O4    A    
C20   H23   S    
C50   H62   S    
C37   H31   S    
C18   H56   S    
C38   H43   S    
C1    O3    A    
C48   H68   S    
C30   H16   S    
C33   H24   S    
C38   C51   S    
C1    C14   S    
C47   H54   S    
C32   H26   S    
C32   C33   S    
C43   H46   S    
C5    C10   A    
C19   H34   S    
C47   H53   S    
C22   H4    S    
C4    C21   S    
C19   H45   S    
C23   C52   S    
C47   H55   S    
C54   O7    A    
C42   H49   S    
C43   H47   S    
Cu2   O3    S    
C27   H8    S    
Cu1   N2    S    
C44   H60   S    
C34   C53   S    
C24   H2    S    
Cu1   O4    S    
C42   C43   S    
C41   C45   S    
C25   H14   S    
C20   H1    S    
C21   C22   S    
C33   H25   S    
Cu2   O2    S    
C9    C28   S    
C5    C31   S    
