data_mof_unit_2477.cif
_audit_creation_date              2012-12-11T15:10:52-0500
_audit_creation_method            fapswitch 2.2
_symmetry_space_group_name_H-M    P1
_symmetry_Int_Tables_number       1
_space_group_crystal_system       triclinic
_cell_length_a                    21.082428
_cell_length_b                    7.235637
_cell_length_c                    18.31241
_cell_angle_alpha                 90.000035
_cell_angle_beta                  93.460649
_cell_angle_gamma                 89.999965
_cell_volume                      2788.36894583

loop_
_atom_site_label
_atom_site_type_symbol
_atom_type_description
_atom_site_fract_x
_atom_site_fract_y
_atom_site_fract_z
_atom_type_partial_charge
O1    O     O_R   0.448880 0.506250 0.415280 -0.525135
O2    O     O_R   0.551120 0.006250 0.584720 -0.525134
O3    O     O_R   0.434830 0.174000 0.557310 -0.523504
O4    O     O_R   0.565170 0.674000 0.442690 -0.523505
C1    C     C_R   0.417288 0.344468 0.580071 0.752540
C2    C     C_R   0.582712 0.844468 0.419929 0.752540
O5    O     O_R   0.441680 0.176440 0.414130 -0.535408
O6    O     O_R   0.558320 0.676440 0.585870 -0.535409
O7    O     O_R   0.558020 0.007570 0.440520 -0.517155
O8    O     O_R   0.441980 0.507570 0.559480 -0.517155
C3    C     C_R   0.427424 0.345037 0.388719 0.783322
C4    C     C_R   0.572576 0.845037 0.611281 0.783321
O9    O     O_3   0.538160 0.339670 0.508820 -0.369546
O10   O     O_3   0.461840 0.839670 0.491180 -0.369546
V1    V     V_3+5 0.492920 0.064260 0.498360 1.468802
V2    V     V_3+5 0.507080 0.564260 0.501640 1.468801
C5    C     C_R   0.886378 0.901988 0.683949 -0.046284
C6    C     C_R   0.113622 0.401984 0.316051 -0.046284
H1    H     H_    0.804234 0.911249 0.565794 0.145268
H2    H     H_    0.195766 0.411242 0.434206 0.145268
C7    C     C_R   0.891286 0.937877 0.816770 -0.118688
C8    C     C_R   0.108713 0.437877 0.183230 -0.118689
C9    C     C_R   0.586153 0.828240 0.744393 -0.222751
C10   C     C_R   0.413847 0.328243 0.255607 -0.222751
C11   C     C_R   0.621902 0.800290 0.809441 -0.136655
C12   C     C_R   0.378098 0.300294 0.190559 -0.136656
C13   C     C_R   0.688325 0.798598 0.811481 0.009669
C14   C     C_R   0.311676 0.298601 0.188519 0.009670
C15   C     C_R   0.720389 0.851990 0.748040 -0.030723
C16   C     C_R   0.279611 0.351990 0.251959 -0.030723
C17   C     C_R   0.683328 0.865976 0.679576 0.035124
C18   C     C_R   0.316672 0.365974 0.320424 0.035125
C19   C     C_R   0.787807 0.886476 0.749731 0.087610
C20   C     C_R   0.212193 0.386475 0.250269 0.087610
C21   C     C_R   0.818833 0.891704 0.683213 0.017772
C22   C     C_R   0.181166 0.391700 0.316787 0.017772
C23   C     C_R   0.781763 0.895502 0.616937 -0.216303
C24   C     C_R   0.218237 0.395497 0.383062 -0.216302
C25   C     C_R   0.715207 0.890637 0.614377 0.314887
C26   C     C_R   0.284793 0.390632 0.385623 0.314887
C27   C     C_R   0.824811 0.925979 0.815190 -0.136933
C28   C     C_R   0.175188 0.425980 0.184810 -0.136934
C29   C     C_R   0.922663 0.920316 0.751246 -0.082704
C30   C     C_R   0.077337 0.420315 0.248753 -0.082704
C31   C     C_R   0.615390 0.851587 0.678723 -0.069509
C32   C     C_R   0.384610 0.351587 0.321277 -0.069509
H3    H     H_    0.802672 0.950025 0.865984 0.108971
H4    H     H_    0.197328 0.450028 0.134016 0.108972
H5    H     H_    0.534834 0.818947 0.744585 0.115933
H6    H     H_    0.465166 0.318950 0.255416 0.115933
H7    H     H_    0.597104 0.765279 0.857710 0.156984
H8    H     H_    0.402897 0.265285 0.142289 0.156984
C33   C     C_1   0.864632 0.938994 0.132223 -0.149869
C34   C     C_1   0.135368 0.438994 0.867777 -0.149869
C35   C     C_1   0.821788 0.924899 0.175982 0.027653
C36   C     C_1   0.178211 0.424899 0.824018 0.027653
C37   C     C_1   0.771179 0.905694 0.228026 0.018774
C38   C     C_1   0.228821 0.405694 0.771974 0.018774
C39   C     C_1   0.728529 0.888985 0.271908 0.017102
C40   C     C_1   0.271471 0.388985 0.728092 0.017102
C41   C     C_1   0.677855 0.869791 0.323875 0.003544
C42   C     C_1   0.322145 0.369791 0.676125 0.003544
C43   C     C_1   0.634933 0.855724 0.367539 -0.199454
C44   C     C_1   0.365067 0.355724 0.632461 -0.199454
O11   O     O_R   0.058070 0.289240 0.940580 -0.507288
O12   O     O_R   0.941930 0.789240 0.059420 -0.507289
O13   O     O_R   0.058330 0.616740 0.085880 -0.520502
O14   O     O_R   0.941670 0.116740 0.914120 -0.520502
C45   C     C_R   0.071742 0.448448 0.111925 0.728820
C46   C     C_R   0.928258 0.948448 0.888075 0.728821
O15   O     O_R   0.065180 0.619040 0.942700 -0.529529
O16   O     O_R   0.934820 0.119040 0.057300 -0.529529
O17   O     O_R   0.948870 0.787780 0.915270 -0.531957
O18   O     O_R   0.051130 0.287780 0.084730 -0.531957
C47   C     C_R   0.083155 0.450349 0.920149 0.710127
C48   C     C_R   0.916844 0.950349 0.079850 0.710127
O19   O     O_3   0.961870 0.453310 0.991210 -0.365461
O20   O     O_3   0.038130 0.953310 0.008790 -0.365461
V3    V     V_3+5 0.007070 0.728770 0.001630 1.535227
V4    V     V_3+5 0.992930 0.228770 0.998370 1.535228
C49   C     C_2   0.993460 0.917068 0.753278 0.785734
O21   O     O_2   0.024415 0.032408 0.788871 -0.556870
O22   O     O_R   0.024570 0.781123 0.714591 -0.642067
H9    H     H_    0.072537 0.792622 0.720478 0.306278
C50   C     C_2   0.006540 0.417066 0.246721 0.785735
O23   O     O_2   0.975584 0.532407 0.211130 -0.556870
O24   O     O_R   0.975430 0.281119 0.285407 -0.642068
H10   H     H_    0.927463 0.292617 0.279520 0.306278
C51   C     C_2   0.919458 0.894387 0.614506 0.821328
O25   O     O_2   0.956434 0.017191 0.599731 -0.530614
O26   O     O_R   0.908743 0.745447 0.566690 -0.643824
H11   H     H_    0.934083 0.755419 0.521527 0.329985
C52   C     C_2   0.080541 0.394379 0.385493 0.821329
O27   O     O_2   0.043566 0.517182 0.400269 -0.530614
O28   O     O_R   0.091257 0.245437 0.433309 -0.643825
H12   H     H_    0.065917 0.255406 0.478471 0.329986
C53   C     C_2   0.720506 0.709557 0.876699 0.723580
O29   O     O_2   0.764052 0.600591 0.869447 -0.551099
O30   O     O_R   0.699264 0.744658 0.946242 -0.666985
H13   H     H_    0.724600 0.674923 0.986197 0.297730
C54   C     C_2   0.279495 0.209562 0.123300 0.723580
O31   O     O_2   0.235948 0.100595 0.130551 -0.551099
O32   O     O_R   0.300736 0.244667 0.053757 -0.666985
H14   H     H_    0.275400 0.174933 0.013801 0.297730
O33   O     O_3   0.681023 0.908559 0.548003 -0.660387
H15   H     H_    0.710352 0.927177 0.508312 0.284441
O34   O     O_3   0.318977 0.408552 0.451996 -0.660387
H16   H     H_    0.289648 0.427167 0.491688 0.284441

loop_
_geom_bond_atom_site_label_1
_geom_bond_atom_site_label_2
_ccdc_geom_bond_type
O14   V4    S    
C16   C18   A    
O24   H10   S    
C52   O27   D    
C9    C31   A    
C13   C15   A    
O28   H12   S    
C20   C28   A    
O16   C48   A    
O2    C4    A    
C2    O7    A    
C5    C29   A    
C49   O21   D    
C50   O23   D    
O5    C3    A    
O12   V3    S    
C54   O31   D    
C21   C23   A    
C10   C12   A    
C6    C30   A    
C37   C39   T    
C38   C40   T    
C15   C19   A    
C40   C42   S    
O6    V2    S    
C41   C43   T    
C52   O28   S    
C42   C44   T    
H1    C23   S    
C49   O22   S    
C7    C29   A    
C14   C54   S    
C8    C30   A    
O22   H9    S    
C36   C38   S    
O1    C3    A    
O34   H16   S    
C51   O26   S    
C8    C45   S    
O5    V1    S    
C54   O32   S    
O11   V4    S    
O18   V4    S    
O15   V3    S    
C53   O30   S    
C53   O29   D    
C33   C35   T    
C10   H6    S    
C23   C25   A    
C34   C36   T    
C39   C41   S    
C16   C20   A    
C50   O24   S    
C5    C51   S    
O4    C2    A    
O26   H11   S    
O20   V3    S    
C1    C44   S    
O13   C45   A    
C2    C43   S    
O4    V2    S    
C11   H7    S    
C12   H8    S    
H2    C24   S    
O30   H13   S    
O6    C4    A    
O12   C48   A    
C46   O17   A    
C27   H3    S    
O13   V3    S    
C45   O18   A    
O1    V2    S    
C28   H4    S    
O2    V1    S    
C26   O34   S    
C7    C27   A    
O14   C46   A    
C35   C37   S    
C29   C49   S    
C33   C48   S    
C30   C50   S    
O3    V1    S    
O19   V4    S    
C25   O33   S    
C13   C53   S    
C18   C32   A    
C4    C31   S    
O3    C1    A    
C11   C13   A    
O17   V3    S    
O33   H15   S    
C12   C14   A    
O11   C47   A    
C7    C46   S    
C10   C32   A    
C22   C24   A    
O7    V1    S    
C19   C27   A    
C1    O8    A    
C15   C17   A    
O8    V2    S    
O15   C47   A    
C8    C28   A    
C24   C26   A    
C14   C16   A    
C19   C21   A    
C17   C25   A    
C20   C22   A    
C18   C26   A    
C9    H5    S    
C34   C47   S    
C9    C11   A    
O16   V4    S    
C17   C31   A    
O9    V2    S    
O32   H14   S    
C6    C52   S    
O10   V1    S    
C3    C32   S    
C5    C21   A    
C51   O25   D    
C6    C22   A    
