data_mof_unit_4808.cif
_audit_creation_date              2012-12-11T17:17:10-0500
_audit_creation_method            fapswitch 2.2
_symmetry_space_group_name_H-M    P1
_symmetry_Int_Tables_number       1
_space_group_crystal_system       triclinic
_cell_length_a                    6.943429
_cell_length_b                    13.375675
_cell_length_c                    14.676635
_cell_angle_alpha                 98.869844
_cell_angle_beta                  89.721357
_cell_angle_gamma                 90.344859
_cell_volume                      1346.72810743

loop_
_atom_site_label
_atom_site_type_symbol
_atom_type_description
_atom_site_fract_x
_atom_site_fract_y
_atom_site_fract_z
_atom_type_partial_charge
O1    O     O_R   0.354890 0.151580 0.148210 -0.534293
O2    O     O_R   0.645110 0.848420 0.851790 -0.534293
O3    O     O_R   0.682370 0.152980 0.336770 -0.544728
O4    O     O_R   0.317630 0.847020 0.663230 -0.544727
O5    O     O_R   0.854980 0.348430 0.351800 -0.539211
O6    O     O_R   0.145020 0.651570 0.648200 -0.539211
C1    C     C_R   0.513214 0.131285 0.366424 0.670865
C2    C     C_R   0.486786 0.868715 0.633575 0.670864
O7    O     O_R   0.684450 0.139580 0.148000 -0.532273
O8    O     O_R   0.315550 0.860420 0.852000 -0.532273
O9    O     O_R   0.857080 0.334940 0.161680 -0.527956
O10   O     O_R   0.142920 0.665060 0.838320 -0.527956
C3    C     C_R   0.515551 0.112693 0.114017 0.753703
C4    C     C_R   0.484449 0.887307 0.885982 0.753704
O11   O     O_R   0.352790 0.165070 0.338330 -0.542143
O12   O     O_R   0.647210 0.834930 0.661670 -0.542142
O13   O     O_3   0.522170 0.314120 0.254710 -0.371398
O14   O     O_3   0.477830 0.685880 0.745290 -0.371397
V1    V     V_3+5 0.796120 0.238110 0.249130 1.447344
V2    V     V_3+5 0.203880 0.761890 0.750870 1.447344
O15   O     O_R   0.186930 0.347040 0.163240 -0.548038
O16   O     O_R   0.813070 0.652960 0.836760 -0.548038
C5    C     C_R   0.018755 0.368759 0.133775 0.738976
C6    C     C_R   0.981245 0.631241 0.866225 0.738976
O17   O     O_R   0.184850 0.360440 0.352010 -0.540937
O18   O     O_R   0.815150 0.639560 0.647990 -0.540936
C7    C     C_R   0.015810 0.387329 0.385981 0.719236
C8    C     C_R   0.984190 0.612671 0.614019 0.719236
V3    V     V_3+5 0.296410 0.261900 0.250880 1.429488
V4    V     V_3+5 0.703590 0.738100 0.749120 1.429488
O19   O     O_3   0.020490 0.185890 0.245290 -0.370200
O20   O     O_3   0.979510 0.814110 0.754710 -0.370200
C9    C     C_1   0.005122 0.466908 0.466342 -0.193777
C10   C     C_1   0.994878 0.533092 0.533658 -0.193777
C11   C     C_3   0.078377 0.587562 0.032304 0.407562
C12   C     C_3   0.921623 0.412438 0.967696 0.407562
C13   C     C_3   0.904002 0.541909 0.076969 -0.251607
C14   C     C_3   0.095998 0.458091 0.923031 -0.251607
H1    H     H_    0.828715 0.577331 0.140620 0.123253
H2    H     H_    0.171285 0.422669 0.859380 0.123253
C15   C     C_3   0.010556 0.439240 0.063632 -0.077448
C16   C     C_3   0.989444 0.560759 0.936368 -0.077449
C17   C     C_3   0.187094 0.486296 0.020560 -0.219948
C18   C     C_3   0.812906 0.513704 0.979440 -0.219948
H3    H     H_    0.340257 0.476994 0.038737 0.134372
H4    H     H_    0.659743 0.523006 0.961263 0.134372
C19   C     C_3   0.319237 0.025912 0.481638 -0.115955
C20   C     C_3   0.680763 0.974087 0.518362 -0.115955
C21   C     C_3   0.398374 0.916529 0.467711 -0.140926
C22   C     C_3   0.601626 0.083471 0.532289 -0.140926
H5    H     H_    0.314569 0.847183 0.441524 0.100017
H6    H     H_    0.685431 0.152817 0.558476 0.100017
H7    H     H_    0.170013 0.047395 0.466253 0.109407
H8    H     H_    0.829987 0.952605 0.533747 0.109407
C23   C     C_3   0.496037 0.938748 0.562715 -0.003971
C24   C     C_3   0.503963 0.061252 0.437285 -0.003971
C25   C     C_3   0.416856 0.047312 0.577442 -0.141993
C26   C     C_3   0.583144 0.952688 0.422558 -0.141993
H9    H     H_    0.348544 0.085941 0.641802 0.104724
H10   H     H_    0.651456 0.914059 0.358198 0.104724
C27   C     C_1   0.504960 0.033103 0.033658 -0.167044
C28   C     C_1   0.495040 0.966897 0.966342 -0.167044
O21   O     O_3   0.161292 0.681618 0.065189 -0.648934
H11   H     H_    0.207816 0.676200 0.127973 0.273830
O22   O     O_3   0.838708 0.318382 0.934810 -0.648934
H12   H     H_    0.792184 0.323800 0.872027 0.273829

loop_
_geom_bond_atom_site_label_1
_geom_bond_atom_site_label_2
_ccdc_geom_bond_type
C20   C23   S    
V4    O20   S    
C6    C16   S    
O4    C2    A    
V1    O19   S    
C19   C21   S    
C7    C9    S    
C20   H8    S    
O9    V1    S    
C11   C13   S    
C14   C16   S    
O3    C1    A    
C25   H9    S    
C26   H10   S    
C4    C28   S    
O13   V3    S    
O9    C5    A    
C11   C16   S    
O7    C3    A    
O5    C7    A    
O7    V1    S    
O6    C8    A    
O8    V2    S    
C21   H5    S    
C22   H6    S    
O3    V1    S    
O14   V4    S    
C11   C17   S    
C19   H7    S    
C20   C22   S    
C8    C10   S    
C2    O12   A    
C15   C17   S    
C12   C15   S    
C16   C18   S    
C1    C24   S    
C2    C23   S    
C18   H4    S    
O11   V3    S    
O17   V3    S    
O8    C4    A    
C12   O22   S    
C21   C23   S    
O15   V3    S    
C22   C24   S    
C21   C26   S    
C19   C25   S    
O10   V2    S    
O1    V3    S    
C9    C10   T    
C17   H3    S    
O18   V4    S    
C23   C25   S    
O16   C6    A    
C12   C18   S    
O1    C3    A    
C12   C14   S    
V2    O20   S    
O16   V4    S    
C22   C25   S    
C20   C26   S    
O5    V1    S    
O17   C7    A    
O6    V2    S    
O10   C6    A    
O18   C8    A    
C5    C15   S    
O2    V4    S    
C13   C18   S    
O15   C5    A    
C14   C17   S    
V3    O19   S    
C14   H2    S    
C1    O11   A    
O13   V1    S    
C24   C26   S    
O14   V2    S    
C13   C15   S    
C27   C28   T    
O2    C4    A    
O21   H11   S    
O4    V2    S    
C3    C27   S    
C13   H1    S    
O22   H12   S    
C11   O21   S    
O12   V4    S    
C19   C24   S    
