data_mof_unit_4665.cif
_audit_creation_date              2012-12-11T14:41:59-0500
_audit_creation_method            fapswitch 2.2
_symmetry_space_group_name_H-M    P1
_symmetry_Int_Tables_number       1
_space_group_crystal_system       triclinic
_cell_length_a                    18.966021
_cell_length_b                    10.994511
_cell_length_c                    18.826288
_cell_angle_alpha                 89.890279
_cell_angle_beta                  90.371656
_cell_angle_gamma                 89.843423
_cell_volume                      3925.59302837

loop_
_atom_site_label
_atom_site_type_symbol
_atom_type_description
_atom_site_fract_x
_atom_site_fract_y
_atom_site_fract_z
_atom_type_partial_charge
C1    C     C_R   0.727904 0.949462 0.851752 0.569893
C2    C     C_R   0.272491 0.955792 0.146630 0.589026
C3    C     C_R   0.227903 0.449462 0.851752 0.569893
C4    C     C_R   0.772491 0.455792 0.146630 0.589026
C5    C     C_R   0.729403 0.500042 0.026583 -0.209704
C6    C     C_R   0.310607 0.398326 0.952477 -0.169911
C7    C     C_R   0.229403 0.000042 0.026583 -0.209704
C8    C     C_R   0.810608 0.898326 0.952477 -0.169911
C9    C     C_R   0.750127 0.412815 0.077081 -0.013218
C10   C     C_R   0.244196 0.390777 0.920730 0.023184
C11   C     C_R   0.250127 0.912815 0.077081 -0.013218
C12   C     C_R   0.744196 0.890777 0.920730 0.023184
C13   C     C_R   0.760859 0.291878 0.056467 0.220331
C14   C     C_R   0.187209 0.345771 0.961768 0.246762
C15   C     C_R   0.260859 0.791878 0.056467 0.220331
C16   C     C_R   0.687209 0.845771 0.961768 0.246762
C17   C     C_R   0.755483 0.261903 0.984461 0.274108
C18   C     C_R   0.190220 0.354494 0.035366 0.286838
C19   C     C_R   0.255483 0.761903 0.984461 0.274108
C20   C     C_R   0.690220 0.854494 0.035366 0.286838
C21   C     C_R   0.730558 0.348304 0.935028 -0.009729
C22   C     C_R   0.255856 0.380315 0.068312 0.050451
C23   C     C_R   0.230558 0.848304 0.935028 -0.009729
C24   C     C_R   0.755857 0.880315 0.068312 0.050451
C25   C     C_R   0.468453 0.262382 0.545259 -0.165088
C26   C     C_R   0.463589 0.267944 0.473048 -0.160353
C27   C     C_R   0.968453 0.762382 0.545259 -0.165088
C28   C     C_R   0.963588 0.767944 0.473048 -0.160353
C29   C     C_R   0.485266 0.169289 0.431088 0.030328
C30   C     C_R   0.495575 0.158436 0.577179 0.003266
C31   C     C_R   0.985266 0.669289 0.431088 0.030328
C32   C     C_R   0.995575 0.658436 0.577179 0.003266
C33   C     C_R   0.507419 0.059936 0.462750 0.239557
C34   C     C_R   0.508415 0.051759 0.536510 0.238146
C35   C     C_R   0.007419 0.559936 0.462750 0.239557
C36   C     C_R   0.008415 0.551759 0.536510 0.238146
C37   C     C_R   0.812402 0.418192 0.545509 -0.173814
C38   C     C_R   0.229686 0.296785 0.474596 -0.164951
C39   C     C_R   0.312402 0.918192 0.545509 -0.173813
C40   C     C_R   0.729687 0.796785 0.474596 -0.164952
C41   C     C_R   0.820236 0.431234 0.473338 -0.185782
C42   C     C_R   0.225394 0.316246 0.546701 -0.170014
C43   C     C_R   0.320236 0.931234 0.473338 -0.185783
C44   C     C_R   0.725394 0.816246 0.546701 -0.170014
C45   C     C_R   0.529029 0.178170 0.850173 0.542363
C46   C     C_R   0.469568 0.177571 0.148593 0.576041
C47   C     C_R   0.029029 0.678170 0.850173 0.542363
C48   C     C_R   0.969567 0.677571 0.148593 0.576041
C49   C     C_R   0.761041 0.433760 0.428128 0.022155
C50   C     C_R   0.250282 0.424472 0.575264 -0.006986
C51   C     C_R   0.261041 0.933760 0.428127 0.022155
C52   C     C_R   0.750282 0.924472 0.575264 -0.006986
C53   C     C_R   0.692742 0.431993 0.455637 0.283633
C54   C     C_R   0.285066 0.510856 0.530950 0.275461
C55   C     C_R   0.192742 0.931993 0.455637 0.283633
C56   C     C_R   0.785065 0.010856 0.530950 0.275462
C57   C     C_R   0.684470 0.428304 0.529733 0.272287
C58   C     C_R   0.283100 0.495779 0.456904 0.278960
C59   C     C_R   0.184471 0.928304 0.529733 0.272287
C60   C     C_R   0.783099 0.995779 0.456904 0.278960
C61   C     C_R   0.745171 0.411556 0.574167 -0.006740
C62   C     C_R   0.255155 0.388086 0.429371 0.031531
C63   C     C_R   0.245171 0.911556 0.574167 -0.006740
C64   C     C_R   0.755154 0.888086 0.429371 0.031531
C65   C     C_R   0.724722 0.315210 0.860245 0.595058
C66   C     C_R   0.263087 0.356940 0.144488 0.617815
C67   C     C_R   0.224721 0.815210 0.860245 0.595058
C68   C     C_R   0.763087 0.856939 0.144488 0.617815
C69   C     C_R   0.728152 0.957561 0.646788 0.561171
C70   C     C_R   0.273350 0.957669 0.353603 0.598327
C71   C     C_R   0.228152 0.457561 0.646788 0.561171
C72   C     C_R   0.773350 0.457669 0.353603 0.598327
C73   C     C_R   0.528390 0.174585 0.645817 0.570361
C74   C     C_R   0.468119 0.176451 0.356669 0.597928
C75   C     C_R   0.028390 0.674585 0.645817 0.570361
C76   C     C_R   0.968118 0.676451 0.356669 0.597928
C77   C     C_R   0.738304 0.362121 0.645755 0.584973
C78   C     C_R   0.261328 0.358865 0.354778 0.611816
C79   C     C_R   0.238304 0.862121 0.645755 0.584973
C80   C     C_R   0.761328 0.858865 0.354778 0.611816
C81   C     C_2   0.493810 0.171932 0.919254 -0.139580
C82   C     C_2   0.496410 0.169286 0.075438 -0.080551
C83   C     C_2   0.993810 0.671932 0.919254 -0.139580
C84   C     C_2   0.996410 0.669286 0.075438 -0.080551
C85   C     C_2   0.489171 0.065996 0.036795 0.283644
C86   C     C_2   0.490267 0.066930 0.956521 0.252655
C87   C     C_2   0.989171 0.565996 0.036795 0.283644
C88   C     C_2   0.990267 0.566930 0.956521 0.252655
C89   C     C_R   0.716573 0.467137 0.956745 -0.190536
C90   C     C_R   0.316602 0.392295 0.026339 -0.164804
C91   C     C_R   0.216573 0.967137 0.956745 -0.190536
C92   C     C_R   0.816602 0.892295 0.026339 -0.164804
Cr1   Cr    Cr6+3 0.769270 0.163730 0.750710 1.021848
Cr2   Cr    Cr6+3 0.230730 0.163730 0.249290 1.030823
Cr3   Cr    Cr6+3 0.269270 0.663730 0.750710 1.021848
Cr4   Cr    Cr6+3 0.730730 0.663730 0.249290 1.030823
Cr5   Cr    Cr6+3 0.612620 0.009790 0.748780 1.122827
Cr6   Cr    Cr6+3 0.387380 0.009790 0.251220 1.094861
Cr7   Cr    Cr6+3 0.112620 0.509790 0.748780 1.122827
Cr8   Cr    Cr6+3 0.887380 0.509790 0.251220 1.094860
Cr9   Cr    Cr6+3 0.614160 0.322500 0.747710 1.040378
Cr10  Cr    Cr6+3 0.385840 0.322500 0.252290 1.034726
Cr11  Cr    Cr6+3 0.114160 0.822500 0.747710 1.040378
Cr12  Cr    Cr6+3 0.885840 0.822500 0.252290 1.034725
H1    H     H_    0.873234 0.437258 0.452658 0.178302
H2    H     H_    0.201075 0.248195 0.580075 0.133561
H3    H     H_    0.373234 0.937258 0.452658 0.178302
H4    H     H_    0.701075 0.748195 0.580075 0.133560
H5    H     H_    0.509287 0.255399 0.050965 0.045655
H6    H     H_    0.481121 0.258570 0.943257 0.045301
H7    H     H_    0.009288 0.755399 0.050965 0.045655
H8    H     H_    0.981121 0.758570 0.943257 0.045301
H9    H     H_    0.701127 0.536433 0.918720 0.187023
H10   H     H_    0.368380 0.399387 0.050555 0.142502
H11   H     H_    0.201127 0.036433 0.918720 0.187023
H12   H     H_    0.868380 0.899387 0.050555 0.142502
H13   H     H_    0.728190 0.595362 0.039860 0.124826
H14   H     H_    0.356932 0.413897 0.920636 0.110452
H15   H     H_    0.228190 0.095362 0.039860 0.124826
H16   H     H_    0.856932 0.913897 0.920636 0.110452
H17   H     H_    0.455581 0.342688 0.575860 0.129230
H18   H     H_    0.442286 0.350629 0.450351 0.129326
H19   H     H_    0.955580 0.842688 0.575860 0.129230
H20   H     H_    0.942286 0.850629 0.450351 0.129326
H21   H     H_    0.858969 0.408336 0.578692 0.175599
H22   H     H_    0.212167 0.210269 0.453948 0.126128
H23   H     H_    0.358969 0.908336 0.578692 0.175600
H24   H     H_    0.712168 0.710269 0.453948 0.126128
O1    O     O_R   0.784320 0.290430 0.830510 -0.534740
O2    O     O_R   0.215680 0.290430 0.169490 -0.506418
O3    O     O_R   0.284320 0.790430 0.830510 -0.534741
O4    O     O_R   0.715680 0.790430 0.169490 -0.506418
O5    O     O_R   0.554640 0.080370 0.673500 -0.451531
O6    O     O_R   0.445360 0.080370 0.326500 -0.462177
O7    O     O_R   0.054640 0.580370 0.673500 -0.451531
O8    O     O_R   0.945360 0.580370 0.326500 -0.462177
O9    O     O_R   0.543920 0.282180 0.666790 -0.500583
O10   O     O_R   0.456080 0.282180 0.333210 -0.534273
O11   O     O_R   0.043920 0.782180 0.666790 -0.500583
O12   O     O_R   0.956080 0.782180 0.333210 -0.534273
O13   O     O_R   0.679040 0.374160 0.674430 -0.470056
O14   O     O_R   0.320960 0.374160 0.325570 -0.501531
O15   O     O_R   0.179040 0.874160 0.674430 -0.470056
O16   O     O_R   0.820960 0.874160 0.325570 -0.501532
O17   O     O_3   0.665350 0.165340 0.749070 -0.284561
O18   O     O_3   0.334650 0.165340 0.250930 -0.301965
O19   O     O_3   0.165350 0.665340 0.749070 -0.284561
O20   O     O_3   0.834650 0.665340 0.250930 -0.301965
O21   O     O_R   0.762640 0.040960 0.825200 -0.508995
O22   O     O_R   0.237360 0.040960 0.174800 -0.524363
O23   O     O_R   0.262640 0.540960 0.825200 -0.508995
O24   O     O_R   0.737360 0.540960 0.174800 -0.524363
O25   O     O_R   0.667400 0.923970 0.829950 -0.439081
O26   O     O_R   0.332600 0.923970 0.170050 -0.484496
O27   O     O_R   0.167400 0.423970 0.829950 -0.439081
O28   O     O_R   0.832600 0.423970 0.170050 -0.484496
O29   O     O_R   0.553960 0.081340 0.821780 -0.442785
O30   O     O_R   0.446040 0.081340 0.178220 -0.441871
O31   O     O_R   0.053960 0.581340 0.821780 -0.442785
O32   O     O_R   0.946040 0.581340 0.178220 -0.441871
O33   O     O_R   0.543180 0.283240 0.826740 -0.535091
O34   O     O_R   0.456820 0.283240 0.173260 -0.529652
O35   O     O_R   0.043180 0.783240 0.826740 -0.535091
O36   O     O_R   0.956820 0.783240 0.173260 -0.529652
O37   O     O_R   0.678360 0.375140 0.822710 -0.507458
O38   O     O_R   0.321640 0.375140 0.177290 -0.479841
O39   O     O_R   0.178360 0.875140 0.822710 -0.507458
O40   O     O_R   0.821640 0.875140 0.177290 -0.479841
O41   O     O_R   0.785050 0.289380 0.670560 -0.489310
O42   O     O_R   0.214950 0.289380 0.329440 -0.496308
O43   O     O_R   0.285050 0.789380 0.670560 -0.489311
O44   O     O_R   0.714950 0.789380 0.329440 -0.496308
O45   O     O_R   0.763320 0.039990 0.676930 -0.487919
O46   O     O_R   0.236680 0.039990 0.323070 -0.504090
O47   O     O_R   0.263320 0.539990 0.676930 -0.487918
O48   O     O_R   0.736680 0.539990 0.323070 -0.504090
O49   O     O_R   0.668130 0.922920 0.670000 -0.471419
O50   O     O_R   0.331870 0.922920 0.330000 -0.506542
O51   O     O_R   0.168130 0.422920 0.670000 -0.471419
O52   O     O_R   0.831870 0.422920 0.330000 -0.506542
O53   O     O_3   0.491393 0.957029 0.074488 -0.488984
C93   C     C_3   0.438771 0.875800 0.052319 -0.050005
H25   H     H_    0.425352 0.816170 0.097705 0.170559
H26   H     H_    0.460153 0.814980 0.011162 0.160645
H27   H     H_    0.389828 0.922391 0.033988 0.088206
O54   O     O_3   0.494469 0.956598 0.921033 -0.483471
C94   C     C_3   0.433847 0.941682 0.877412 -0.079896
H28   H     H_    0.432433 0.005693 0.831855 0.119981
H29   H     H_    0.384309 0.953296 0.908006 0.079772
H30   H     H_    0.435120 0.849064 0.854277 0.157051
O55   O     O_3   0.991393 0.457029 0.074488 -0.488984
C95   C     C_3   0.938771 0.375800 0.052319 -0.050005
H31   H     H_    0.925352 0.316170 0.097705 0.170559
H32   H     H_    0.960153 0.314980 0.011162 0.160645
H33   H     H_    0.889828 0.422391 0.033988 0.088206
O56   O     O_3   0.994469 0.456598 0.921033 -0.483471
C96   C     C_3   0.933847 0.441682 0.877412 -0.079896
H34   H     H_    0.932433 0.505693 0.831855 0.119981
H35   H     H_    0.884309 0.453296 0.908006 0.079772
H36   H     H_    0.935120 0.349064 0.854277 0.157051
O57   O     O_3   0.636567 0.409075 0.409955 -0.522766
C97   C     C_3   0.591664 0.511116 0.404217 -0.058859
H37   H     H_    0.619725 0.599468 0.408515 0.119762
H38   H     H_    0.548793 0.505099 0.443812 0.138436
H39   H     H_    0.566138 0.509335 0.351054 0.144617
O58   O     O_3   0.313377 0.616713 0.558233 -0.516169
C98   C     C_3   0.383057 0.591936 0.581408 -0.093755
H40   H     H_    0.407483 0.678199 0.599374 0.176712
H41   H     H_    0.416346 0.554739 0.538151 0.061836
H42   H     H_    0.384169 0.527512 0.626954 0.109572
O59   O     O_3   0.136567 0.909074 0.409955 -0.522766
C99   C     C_3   0.091664 0.011115 0.404217 -0.058859
H43   H     H_    0.119725 0.099468 0.408515 0.119762
H44   H     H_    0.048793 0.005098 0.443812 0.138436
H45   H     H_    0.066138 0.009335 0.351053 0.144617
O60   O     O_3   0.813376 0.116714 0.558233 -0.516169
C100  C     C_3   0.883057 0.091938 0.581407 -0.093756
H46   H     H_    0.907485 0.178204 0.599367 0.176712
H47   H     H_    0.916344 0.054734 0.538150 0.061831
H48   H     H_    0.884170 0.027521 0.626956 0.109578
O61   O     O_3   0.616937 0.424216 0.556827 -0.524542
C101  C     C_3   0.598971 0.541326 0.581983 -0.093621
H49   H     H_    0.633243 0.569795 0.627028 0.126262
H50   H     H_    0.543948 0.539058 0.601486 0.137167
H51   H     H_    0.601567 0.611258 0.539391 0.113835
O62   O     O_3   0.294587 0.593112 0.411388 -0.519222
C102  C     C_3   0.367287 0.615482 0.403512 -0.049118
H52   H     H_    0.375768 0.655554 0.350141 0.168813
H53   H     H_    0.400375 0.532025 0.406702 0.072537
H54   H     H_    0.385125 0.683965 0.442817 0.168624
O63   O     O_3   0.116937 0.924216 0.556827 -0.524542
C103  C     C_3   0.098971 0.041325 0.581983 -0.093621
H55   H     H_    0.133243 0.069794 0.627028 0.126262
H56   H     H_    0.043947 0.039057 0.601485 0.137167
H57   H     H_    0.101567 0.111258 0.539390 0.113834
O64   O     O_3   0.794586 0.093112 0.411388 -0.519221
C104  C     C_3   0.867286 0.115482 0.403511 -0.049119
H58   H     H_    0.875767 0.155553 0.350140 0.168814
H59   H     H_    0.900374 0.032024 0.406701 0.072538
H60   H     H_    0.885125 0.183964 0.442816 0.168622
Cl1   Cl    Cl    0.785378 0.179141 0.118844 -0.586975
Cl2   Cl    Cl    0.113340 0.271291 0.923239 -0.595469
Cl3   Cl    Cl    0.285378 0.679141 0.118844 -0.586975
Cl4   Cl    Cl    0.613340 0.771291 0.923239 -0.595469
O65   O     O_3   0.781183 0.152133 0.960847 -0.531821
C105  C     C_3   0.855030 0.162780 0.952097 -0.071350
H61   H     H_    0.872621 0.256321 0.941562 0.079785
H62   H     H_    0.883066 0.126409 0.999531 0.140252
H63   H     H_    0.871605 0.111142 0.904676 0.145325
O66   O     O_3   0.127931 0.360781 0.074083 -0.470766
C106  C     C_3   0.098942 0.244279 0.087635 0.001771
H64   H     H_    0.138444 0.171003 0.093442 0.109423
H65   H     H_    0.060180 0.218074 0.046547 0.156649
H66   H     H_    0.069876 0.248629 0.138518 0.147721
O67   O     O_3   0.281183 0.652133 0.960847 -0.531821
C107  C     C_3   0.355030 0.662780 0.952097 -0.071350
H67   H     H_    0.383066 0.626409 0.999531 0.140252
H68   H     H_    0.372621 0.756321 0.941562 0.079785
H69   H     H_    0.371605 0.611142 0.904676 0.145325
O68   O     O_3   0.627931 0.860781 0.074083 -0.470766
C108  C     C_3   0.598942 0.744279 0.087635 0.001771
H70   H     H_    0.638444 0.671003 0.093442 0.109423
H71   H     H_    0.560180 0.718074 0.046547 0.156649
H72   H     H_    0.569876 0.748629 0.138518 0.147721
Cl5   Cl    Cl    0.536542 0.934691 0.411321 -0.549583
Cl6   Cl    Cl    0.525251 0.907042 0.575106 -0.601550
Cl7   Cl    Cl    0.036542 0.434691 0.411321 -0.549582
Cl8   Cl    Cl    0.025251 0.407042 0.575106 -0.601551

loop_
_geom_bond_atom_site_label_1
_geom_bond_atom_site_label_2
_ccdc_geom_bond_type
Cr2   O18   S    
C87   C88   S    
Cr6   O26   S    
C105  H62   S    
C58   C62   A    
C55   C59   A    
C64   C80   S    
O57   C97   S    
Cr12  O20   S    
Cr1   O21   S    
C35   C36   A    
C60   O64   S    
C84   C87   D    
Cr5   O5    S    
C59   O63   S    
C32   C75   S    
C76   O8    A    
Cr11  O19   S    
C106  H64   S    
C63   C79   S    
O53   C93   S    
C100  H48   S    
C15   C19   A    
C74   O10   A    
Cr1   O41   S    
C31   C76   S    
Cr2   O2    S    
C97   H38   S    
C2    O22   A    
C32   C36   A    
C56   C60   A    
Cr8   O20   S    
C38   C42   A    
Cr7   O31   S    
C88   O56   S    
C78   O14   A    
C85   C86   S    
C108  H70   S    
C75   O7    A    
C106  H65   S    
C71   O51   A    
Cr4   O24   S    
C107  H69   S    
C65   O37   A    
C1    O25   A    
O64   C104  S    
C96   H35   S    
Cr10  O10   S    
C79   O43   A    
C68   O4    A    
C102  H52   S    
C45   O33   A    
C93   H25   S    
C22   C66   S    
C94   H30   S    
C9    C13   A    
C52   C69   S    
C69   O49   A    
C46   C82   S    
C52   C56   A    
C11   C15   A    
C13   Cl1   S    
C12   C16   A    
C29   C33   A    
C61   C77   S    
C54   O58   S    
C49   C72   S    
Cr7   O27   S    
C98   H42   S    
C85   O53   S    
Cr12  O16   S    
Cr1   O17   S    
C26   C29   A    
C8    C92   A    
C51   C70   S    
Cr5   O25   S    
Cr6   O50   S    
C66   O2    A    
C100  H47   S    
C51   C55   A    
C81   C86   D    
C58   O62   S    
C16   C20   A    
Cr4   O4    S    
C47   O35   A    
Cr8   O28   S    
C44   H4    S    
C83   C88   D    
C7    C91   A    
Cr5   O29   S    
C2    O26   A    
O66   C106  S    
C14   Cl2   S    
O65   C105  S    
C56   O60   S    
Cr3   O3    S    
C36   Cl8   S    
C101  H49   S    
C1    C12   S    
C69   O45   A    
Cr1   O1    S    
C2    C11   S    
C24   C92   A    
C41   C49   A    
C38   H22   S    
C34   Cl6   S    
C7    C11   A    
C37   H21   S    
Cr2   O46   S    
C76   O12   A    
C5    C89   A    
C4    O24   A    
C79   O15   A    
C84   H7    S    
C39   H23   S    
C97   H37   S    
C30   C34   A    
Cr7   O7    S    
C98   H40   S    
C82   H5    S    
C7    H15   S    
C57   O61   S    
C45   O29   A    
O60   C100  S    
C10   C14   A    
C108  H71   S    
C15   Cl3   S    
Cr9   O9    S    
O58   C98   S    
C70   O50   A    
C106  H66   S    
C47   O31   A    
C29   C74   S    
Cr6   O18   S    
C101  H51   S    
C80   O16   A    
C100  H46   S    
C6    C90   A    
C24   C68   S    
C97   H39   S    
C103  H57   S    
C53   O57   S    
C48   C84   S    
Cr4   O20   S    
C107  H68   S    
Cr11  O35   S    
C93   H27   S    
C95   H32   S    
Cr7   O51   S    
C96   H36   S    
C19   C23   A    
C50   C71   S    
C95   H33   S    
C78   O42   A    
C5    C9    A    
O61   C101  S    
Cr11  O11   S    
C65   O1    A    
Cr12  O40   S    
C46   O30   A    
C48   O32   A    
Cr8   O32   S    
Cr5   O49   S    
O59   C99   S    
C89   H9    S    
C17   O65   S    
C4    C9    S    
C8    C12   A    
Cr9   O17   S    
C107  H67   S    
C71   O47   A    
C3    O27   A    
C33   C34   A    
C22   C90   A    
Cr3   O19   S    
C43   H3    S    
Cr11  O39   S    
C99   H43   S    
Cr9   O37   S    
C70   O46   A    
Cr10  O38   S    
C41   H1    S    
C20   O68   S    
C16   Cl4   S    
C19   O67   S    
C4    O28   A    
C42   C50   A    
C86   O54   S    
C47   C83   S    
C25   H17   S    
C104  H59   S    
C46   O34   A    
Cr10  O14   S    
C23   C91   A    
C59   C63   A    
Cr3   O23   S    
C72   O52   A    
O67   C107  S    
Cr8   O52   S    
C68   O40   A    
O63   C103  S    
Cr10  O34   S    
C8    H16   S    
C87   O55   S    
C5    H13   S    
C54   C58   A    
C67   O39   A    
C25   C30   A    
C30   C73   S    
O68   C108  S    
Cr7   O19   S    
C105  H61   S    
C101  H50   S    
C27   H19   S    
C37   C61   A    
Cr4   O48   S    
C93   H26   S    
C102  H53   S    
C27   C32   A    
C18   C22   A    
C99   H45   S    
Cr9   O13   S    
C14   C18   A    
C62   C78   S    
C28   C31   A    
C67   O3    A    
C21   C89   A    
C66   O38   A    
C73   O5    A    
O56   C96   S    
C103  H56   S    
C44   C52   A    
C6    C10   A    
C108  H72   S    
C39   C43   A    
C28   H20   S    
C57   C61   A    
C48   O36   A    
C6    H14   S    
Cr2   O22   S    
C82   C85   D    
C39   C63   A    
Cr6   O6    S    
C3    O23   A    
C92   H12   S    
C13   C17   A    
C60   C64   A    
C21   C65   S    
C95   H31   S    
Cr9   O33   S    
C25   C26   A    
C94   H28   S    
C50   C54   A    
C3    C10   S    
C75   O11   A    
Cr3   O47   S    
Cr2   O42   S    
Cr11  O15   S    
C43   C51   A    
Cr12  O36   S    
C73   O9    A    
C18   O66   S    
C49   C53   A    
C40   C64   A    
C74   O6    A    
C31   C35   A    
Cr1   O45   S    
C103  H55   S    
C91   H11   S    
C53   C57   A    
C45   C81   S    
C90   H10   S    
C37   C41   A    
C96   H34   S    
O55   C95   S    
C72   O48   A    
C17   C21   A    
C94   H29   S    
C23   C67   S    
C99   H44   S    
C55   O59   S    
C42   H2    S    
Cr6   O30   S    
C40   C44   A    
C102  H54   S    
Cr5   O17   S    
C81   H6    S    
C77   O13   A    
C77   O41   A    
O62   C102  S    
Cr4   O44   S    
C104  H60   S    
C33   Cl5   S    
C27   C28   A    
C98   H41   S    
C80   O44   A    
C83   H8    S    
C1    O21   A    
C26   H18   S    
C35   Cl7   S    
O54   C94   S    
C104  H58   S    
Cr3   O43   S    
C20   C24   A    
Cr10  O18   S    
Cr8   O8    S    
Cr12  O12   S    
C38   C62   A    
C105  H63   S    
C40   H24   S    
