data_mof_unit_4727.cif
_audit_creation_date              2012-12-11T14:34:18-0500
_audit_creation_method            fapswitch 2.2
_symmetry_space_group_name_H-M    P1
_symmetry_Int_Tables_number       1
_space_group_crystal_system       triclinic
_cell_length_a                    13.843866
_cell_length_b                    13.977486
_cell_length_c                    27.320811
_cell_angle_alpha                 89.924657
_cell_angle_beta                  90.176807
_cell_angle_gamma                 119.615935
_cell_volume                      4595.96142955

loop_
_atom_site_label
_atom_site_type_symbol
_atom_type_description
_atom_site_fract_x
_atom_site_fract_y
_atom_site_fract_z
_atom_type_partial_charge
C1    C     C_R   0.233945 0.787202 0.568772 0.539663
C2    C     C_1   0.706674 0.862489 0.860192 -0.077344
C3    C     C_1   0.113282 0.881123 0.852479 -0.076726
C4    C     C_1   0.114140 0.230654 0.852170 -0.077105
C5    C     C_1   0.628932 0.814448 0.659031 -0.073462
C6    C     C_1   0.177063 0.819374 0.656286 -0.073305
C7    C     C_1   0.178733 0.358121 0.656327 -0.073578
C8    C     C_1   0.601271 0.796116 0.616735 -0.012153
C9    C     C_1   0.199166 0.806358 0.615162 -0.011728
C10   C     C_1   0.193123 0.393054 0.615193 -0.012337
C11   C     C_R   0.065154 0.150822 0.096048 0.573638
C12   C     C_R   0.212618 0.446467 0.568791 0.543043
C13   C     C_R   0.776524 0.883449 0.087938 0.546229
C14   C     C_R   0.117055 0.893524 0.087921 0.559576
C15   C     C_R   0.069222 0.160335 0.943225 0.538234
C16   C     C_R   0.779534 0.887097 0.950800 0.542280
C17   C     C_R   0.090603 0.929679 0.943347 0.534763
C18   C     C_R   0.610300 0.888840 0.359812 -0.178758
C19   C     C_R   0.102555 0.727394 0.361189 -0.169634
C20   C     C_R   0.263736 0.359941 0.363525 -0.180831
C21   C     C_R   0.631942 0.900916 0.309876 0.003980
C22   C     C_R   0.087471 0.738450 0.311463 0.009954
C23   C     C_R   0.552845 0.765266 0.569019 0.541843
C24   C     C_R   0.240538 0.308746 0.317688 0.009415
C25   C     C_R   0.666789 0.918298 0.208442 0.035571
C26   C     C_R   0.069678 0.754488 0.209824 0.025245
C27   C     C_R   0.201038 0.229843 0.220885 0.019700
C28   C     C_R   0.232075 0.788584 0.431928 0.570114
C29   C     C_R   0.210868 0.443094 0.431896 0.573537
C30   C     C_R   0.556070 0.767309 0.431960 0.572067
C31   C     C_R   0.633159 0.985641 0.232134 -0.079658
C32   C     C_R   0.990748 0.661191 0.234985 -0.102096
C33   C     C_R   0.303871 0.262279 0.243316 -0.113637
C34   C     C_3   0.658974 0.734285 0.790384 -0.212478
C35   C     C_R   0.615730 0.977004 0.282586 -0.116528
C36   C     C_R   0.000361 0.652485 0.285447 -0.115445
C37   C     C_R   0.323855 0.302375 0.291220 -0.124900
C38   C     C_R   0.693896 0.932408 0.158593 -0.137025
C39   C     C_R   0.057870 0.766766 0.159707 -0.127766
C40   C     C_R   0.183767 0.198613 0.171523 -0.126356
C41   C     C_R   0.723163 0.860981 0.135752 -0.034146
C42   C     C_R   0.138751 0.860246 0.135416 -0.033004
C43   C     C_R   0.083613 0.174871 0.148497 -0.034320
C44   C     C_R   0.661873 0.745436 0.364192 0.233680
C45   C     C_3   0.243804 0.953995 0.783163 -0.212142
C46   C     C_R   0.256163 0.915987 0.363803 0.235732
C47   C     C_R   0.070499 0.314636 0.371592 0.235024
C48   C     C_R   0.680134 0.753960 0.313514 -0.015023
C49   C     C_R   0.251823 0.922535 0.312639 -0.022193
C50   C     C_R   0.049332 0.274065 0.323261 -0.023566
C51   C     C_R   0.663368 0.830893 0.286357 0.011144
C52   C     C_R   0.166168 0.833738 0.286612 0.013422
C53   C     C_R   0.134617 0.270578 0.296472 0.015002
C54   C     C_R   0.709942 0.684000 0.289221 -0.117941
C55   C     C_R   0.336540 0.011257 0.286882 -0.128837
C56   C     C_3   0.054976 0.311247 0.785558 -0.212026
C57   C     C_R   0.948361 0.246762 0.299868 -0.124715
C58   C     C_R   0.715709 0.684213 0.238215 0.232527
C59   C     C_R   0.335308 0.014211 0.235706 0.224647
C60   C     C_R   0.931116 0.215946 0.250453 0.239887
C61   C     C_R   0.701847 0.762825 0.211672 0.049628
C62   C     C_R   0.245039 0.929668 0.210301 0.054468
C63   C     C_R   0.013663 0.206340 0.224736 0.058788
C64   C     C_3   0.564843 0.853515 0.737255 -0.213758
C65   C     C_3   0.142030 0.733868 0.738765 -0.215441
C66   C     C_3   0.271991 0.390546 0.737127 -0.215813
C67   C     C_3   0.638958 0.721552 0.734363 -0.213221
C68   C     C_R   0.677462 0.837447 0.235526 0.017280
C69   C     C_R   0.160281 0.839348 0.235598 0.020497
C70   C     C_R   0.115696 0.233697 0.247632 0.019681
C71   C     C_R   0.717026 0.771224 0.161584 -0.093342
C72   C     C_R   0.235813 0.935893 0.159979 -0.104089
C73   C     C_R   0.998301 0.175582 0.175530 -0.098279
C74   C     C_R   0.618289 0.806787 0.386271 0.034598
C75   C     C_R   0.191764 0.812952 0.386492 0.038227
C76   C     C_R   0.180882 0.368775 0.389299 0.036221
C77   C     C_3   0.768757 0.924324 0.723163 -0.215786
C78   C     C_3   0.260214 0.938900 0.728296 -0.212911
C79   C     C_3   0.054127 0.847122 0.713970 -0.213259
C80   C     C_3   0.123924 0.200212 0.712715 -0.213145
C81   C     C_3   0.788330 0.937126 0.779284 -0.215246
C82   C     C_3   0.036525 0.862792 0.768759 -0.217003
C83   C     C_3   0.106429 0.166176 0.767326 -0.219287
C84   C     C_1   0.734093 0.873082 0.902561 -0.026998
C85   C     C_1   0.102487 0.901585 0.894230 -0.022833
C86   C     C_1   0.095710 0.199605 0.893979 -0.026737
C87   C     C_3   0.650525 0.828684 0.711974 0.071348
C88   C     C_3   0.158228 0.834257 0.707897 0.070663
C89   C     C_3   0.072533 0.345708 0.730927 -0.212990
C90   C     C_3   0.162255 0.324111 0.707846 0.071017
C91   C     C_3   0.584732 0.866059 0.793425 -0.215303
C92   C     C_3   0.123966 0.749999 0.793596 -0.212320
C93   C     C_3   0.254324 0.356025 0.791832 -0.212176
C94   C     C_3   0.684433 0.850292 0.807282 0.073006
C95   C     C_3   0.128735 0.862097 0.800911 0.071768
C96   C     C_3   0.132352 0.265505 0.800654 0.071353
Cr1   Cr    Cr6+3 0.164410 0.584450 0.499910 1.054301
Cr2   Cr    Cr6+3 0.415550 0.579960 0.499910 1.040863
Cr3   Cr    Cr6+3 0.420040 0.835590 0.499910 1.049820
Cr4   Cr    Cr6+3 0.155170 0.075460 0.019960 1.027896
Cr5   Cr    Cr6+3 0.924540 0.079710 0.019960 1.017227
Cr6   Cr    Cr6+3 0.920290 0.844830 0.019960 1.019698
H1    H     H_    0.601091 0.949004 0.805122 0.113194
H2    H     H_    0.729616 0.720865 0.799964 0.111622
H3    H     H_    0.252204 0.036311 0.789066 0.104983
H4    H     H_    0.966609 0.247644 0.791537 0.109353
H5    H     H_    0.578268 0.937276 0.377068 0.149435
H6    H     H_    0.049500 0.649625 0.379230 0.147339
H7    H     H_    0.347659 0.397614 0.377959 0.131687
H8    H     H_    0.621218 0.045520 0.211711 0.155060
H9    H     H_    0.922895 0.594267 0.215462 0.142518
H10   H     H_    0.370345 0.260903 0.223138 0.149617
H11   H     H_    0.589565 0.029786 0.300255 0.107957
H12   H     H_    0.042038 0.681868 0.805809 0.115450
H13   H     H_    0.939983 0.578502 0.304089 0.112778
H14   H     H_    0.405407 0.331037 0.307127 0.103922
H15   H     H_    0.726458 0.626821 0.309246 0.111821
H16   H     H_    0.406990 0.076131 0.306021 0.104899
H17   H     H_    0.884912 0.256207 0.318670 0.112335
H18   H     H_    0.832039 0.908173 0.705891 0.110133
H19   H     H_    0.063976 0.919308 0.692631 0.111948
H20   H     H_    0.044893 0.150473 0.692216 0.112481
H21   H     H_    0.779387 0.002487 0.707499 0.113249
H22   H     H_    0.979445 0.773007 0.699486 0.114883
H23   H     H_    0.311744 0.325136 0.802384 0.113727
H24   H     H_    0.187131 0.182376 0.696629 0.113182
H25   H     H_    0.808648 0.021565 0.790558 0.109576
H26   H     H_    0.953426 0.796060 0.780604 0.109297
H27   H     H_    0.161446 0.132578 0.777405 0.107926
H28   H     H_    0.860711 0.926896 0.788882 0.101179
H29   H     H_    0.037003 0.941561 0.773532 0.099404
H30   H     H_    0.019153 0.100559 0.772890 0.101628
H31   H     H_    0.554438 0.651232 0.726825 0.111189
H32   H     H_    0.336800 0.932632 0.723720 0.111372
H33   H     H_    0.098162 0.434569 0.727887 0.110423
H34   H     H_    0.478867 0.785860 0.729734 0.107649
H35   H     H_    0.699912 0.701945 0.717160 0.114027
H36   H     H_    0.272411 0.012600 0.707499 0.114417
H37   H     H_    0.992551 0.298636 0.710773 0.115898
H38   H     H_    0.584162 0.670063 0.809665 0.114158
H39   H     H_    0.310790 0.951761 0.804926 0.116310
H40   H     H_    0.072317 0.383537 0.808689 0.117781
H41   H     H_    0.695827 0.999989 0.138264 0.130574
H42   H     H_    0.983949 0.707199 0.140349 0.138069
H43   H     H_    0.249312 0.196617 0.150712 0.142972
H44   H     H_    0.735361 0.713265 0.143337 0.198103
H45   H     H_    0.216217 0.723145 0.735197 0.106837
H46   H     H_    0.299675 0.006221 0.140454 0.190355
H47   H     H_    0.920476 0.154621 0.157448 0.179445
H48   H     H_    0.736727 0.556250 0.237609 0.314018
H49   H     H_    0.477803 0.150257 0.233309 0.313306
H50   H     H_    0.791012 0.217167 0.248490 0.315259
H51   H     H_    0.571554 0.930485 0.722050 0.113941
H52   H     H_    0.069186 0.657322 0.724837 0.113396
H53   H     H_    0.337961 0.376289 0.721488 0.114155
H54   H     H_    0.638683 0.600239 0.377447 0.313369
H55   H     H_    0.333113 0.072908 0.376759 0.315503
H56   H     H_    0.301449 0.480258 0.734192 0.107231
H57   H     H_    0.918344 0.235822 0.394567 0.316074
H58   H     H_    0.508644 0.804133 0.812753 0.111882
H59   H     H_    0.189011 0.746337 0.816256 0.115215
H60   H     H_    0.275067 0.429062 0.815076 0.116294
O1    O     O_R   0.137150 0.468200 0.553200 -0.504462
O2    O     O_R   0.140110 0.470540 0.446010 -0.440661
O3    O     O_R   0.529460 0.669570 0.446010 -0.463354
O4    O     O_R   0.330430 0.859890 0.446010 -0.442257
O5    O     O_R   0.176710 0.690910 0.450560 -0.520293
O6    O     O_R   0.309090 0.485800 0.450560 -0.522656
O7    O     O_R   0.514200 0.823290 0.450560 -0.518644
O8    O     O_3   0.333333 0.666667 0.499990 -0.287621
O9    O     O_R   0.176750 0.985260 0.074180 -0.529058
O10   O     O_R   0.014740 0.191490 0.074180 -0.489212
O11   O     O_R   0.808510 0.823250 0.074180 -0.515633
O12   O     O_R   0.531800 0.668950 0.553200 -0.503879
O13   O     O_R   0.146100 0.172630 0.068980 -0.473856
O14   O     O_R   0.827370 0.973470 0.068980 -0.515153
O15   O     O_R   0.026530 0.853900 0.068980 -0.483679
O16   O     O_3   0.000000 0.000000 0.020040 -0.289555
O17   O     O_R   0.148270 0.170520 0.969620 -0.489367
O18   O     O_R   0.829480 0.977750 0.969620 -0.520168
O19   O     O_R   0.022250 0.851730 0.969620 -0.481614
O20   O     O_3   0.736267 0.609586 0.213768 -0.731908
O21   O     O_3   0.420667 0.098955 0.209981 -0.739305
O22   O     O_3   0.837203 0.201013 0.225983 -0.729027
O23   O     O_R   0.331050 0.862850 0.553200 -0.504879
O24   O     O_3   0.680787 0.674308 0.392416 -0.675037
O25   O     O_3   0.327288 0.005814 0.391905 -0.681300
O26   O     O_3   0.986359 0.306793 0.401374 -0.679609
O27   O     O_R   0.179100 0.982980 0.967000 -0.502557
O28   O     O_R   0.017020 0.196120 0.967000 -0.481322
O29   O     O_R   0.803880 0.820900 0.967000 -0.510440
O30   O     O_R   0.173970 0.688730 0.549930 -0.501386
O31   O     O_R   0.311270 0.485240 0.549930 -0.501570
O32   O     O_R   0.514760 0.826030 0.549930 -0.499915

loop_
_geom_bond_atom_site_label_1
_geom_bond_atom_site_label_2
_ccdc_geom_bond_type
C92   H59   S    
C60   O22   S    
C13   O14   A    
C64   H34   S    
C26   C32   A    
C89   H33   S    
C32   H9    S    
C55   C59   A    
C65   C92   S    
C18   C21   A    
C38   H41   S    
C2    C84   T    
Cr4   O27   S    
Cr3   O23   S    
C77   H18   S    
Cr4   O16   S    
C6    C9    T    
C13   C41   S    
H48   O20   S    
C37   H14   S    
C80   H20   S    
C27   C33   A    
Cr6   O11   S    
C13   O11   A    
C79   H19   S    
Cr3   O32   S    
C40   H43   S    
C60   C63   A    
C17   C85   S    
C32   C36   A    
C29   O6    A    
C67   H31   S    
C47   C76   A    
C83   H27   S    
C15   O17   A    
C66   H53   S    
C30   C74   S    
C26   C39   A    
C21   C51   A    
C4    C86   T    
C16   O18   A    
C16   C84   S    
C8    C23   S    
C6    C88   S    
C20   C76   A    
Cr5   O10   S    
C12   O31   A    
C7    C10   T    
C39   C42   A    
C18   H5    S    
C79   C88   S    
Cr5   O16   S    
C28   O5    A    
C4    C96   S    
C43   C73   A    
Cr1   O30   S    
C20   C24   A    
Cr1   O1    S    
C11   C43   S    
C45   C78   S    
C52   C69   A    
C46   O25   S    
H50   O22   S    
C64   C87   S    
C28   O4    A    
C57   H17   S    
Cr3   O4    S    
C56   H40   S    
C19   H6    S    
C61   C71   A    
C58   C61   A    
C11   O10   A    
C18   C74   A    
C81   H25   S    
Cr4   O9    S    
C45   H39   S    
Cr6   O19   S    
C29   O2    A    
C25   C68   A    
C80   C83   S    
C53   C70   A    
C78   H36   S    
C46   C75   A    
C45   H3    S    
Cr6   O29   S    
C47   C50   A    
C40   C43   A    
C26   C69   A    
C77   C87   S    
C48   C51   A    
C50   C53   A    
C23   O12   A    
Cr2   O3    S    
C34   C94   S    
C2    C94   S    
C19   C22   A    
C1    C9    S    
C38   C41   A    
C66   C90   S    
Cr5   O28   S    
Cr4   O17   S    
Cr3   O8    S    
C14   O9    A    
C57   C60   A    
C63   C73   A    
C89   H37   S    
C24   C53   A    
C49   C55   A    
C7    C90   S    
C64   H51   S    
C92   C95   S    
C33   C37   A    
Cr1   O8    S    
Cr2   O31   S    
C5    C87   S    
H57   O26   S    
C48   C54   A    
C30   O7    A    
C65   H52   S    
C77   H21   S    
C16   O29   A    
C25   C38   A    
C79   C82   S    
C46   C49   A    
C63   C70   A    
C77   C81   S    
C27   C40   A    
C49   C52   A    
C56   H4    S    
Cr4   O13   S    
C42   C72   A    
C24   C37   A    
C62   C72   A    
C33   H10   S    
C14   C42   S    
C59   O21   S    
C78   H32   S    
C82   H26   S    
C91   H58   S    
C27   C70   A    
C10   C12   S    
C15   C86   S    
C21   C35   A    
Cr1   O5    S    
C56   C89   S    
C15   O28   A    
C93   C96   S    
C1    O23   A    
C66   C93   S    
Cr6   O16   S    
C31   C35   A    
C3    C85   T    
C34   H2    S    
C65   H45   S    
C45   C95   S    
C66   H56   S    
C65   C88   S    
C22   C52   A    
C54   C58   A    
C78   C88   S    
C56   C96   S    
C59   C62   A    
C82   C95   S    
C73   H47   S    
C50   C57   A    
C67   C87   S    
C25   C31   A    
C82   H29   S    
H55   O25   S    
C30   O3    A    
C91   H1    S    
C44   C74   A    
C34   C67   S    
C5    C8    T    
H49   O21   S    
Cr3   O7    S    
H54   O24   S    
C22   C36   A    
C79   H22   S    
C11   O13   A    
C41   C71   A    
C58   O20   S    
Cr1   O2    S    
C17   O27   A    
C19   C75   A    
C47   O26   S    
C83   H30   S    
Cr5   O18   S    
C72   H46   S    
C12   O1    A    
C81   C94   S    
C28   C75   S    
C61   C68   A    
C81   H28   S    
C80   H24   S    
C93   H60   S    
Cr2   O12   S    
C83   C96   S    
C23   O32   A    
C34   H38   S    
C31   H8    S    
C35   H11   S    
C51   C68   A    
C80   C90   S    
C67   H35   S    
C93   H23   S    
C14   O15   A    
C20   H7    S    
Cr2   O8    S    
C1    O30   A    
C17   O19   A    
C71   H44   S    
C29   C76   S    
C39   H42   S    
C62   C69   A    
C54   H15   S    
Cr6   O15   S    
Cr5   O14   S    
C3    C95   S    
C64   C91   S    
C89   C90   S    
C36   H13   S    
C92   H12   S    
Cr2   O6    S    
C44   C48   A    
C44   O24   S    
C91   C94   S    
C55   H16   S    
