data_mof_unit_1271.cif
_audit_creation_date              2013-03-05T16:41:44-0500
_audit_creation_method            fapswitch 2.2
_symmetry_space_group_name_H-M    P1
_symmetry_Int_Tables_number       1
_space_group_crystal_system       triclinic
_cell_length_a                    17.809203
_cell_length_b                    16.406877
_cell_length_c                    11.051587
_cell_angle_alpha                 89.442572
_cell_angle_beta                  90.387086
_cell_angle_gamma                 89.189392
_cell_volume                      3228.64809427

loop_
_atom_site_label
_atom_site_type_symbol
_atom_site_description
_atom_site_fract_x
_atom_site_fract_y
_atom_site_fract_z
_atom_type_partial_charge
O1    O     O_R   0.391240 0.567930 0.499990 -0.590636
O2    O     O_R   0.391240 0.432070 0.499990 -0.628700
C1    C     C_R   0.354976 0.500817 0.494769 0.765797
O3    O     O_R   0.499970 0.567910 0.317690 -0.495619
O4    O     O_R   0.499970 0.432090 0.317690 -0.573343
C2    C     C_R   0.500484 0.500597 0.260175 0.969878
Cu1   Cu    Cu3+1 0.499980 0.580420 0.499990 1.051975
Cu2   Cu    Cu3+1 0.499980 0.419580 0.499990 1.012819
O5    O     O_R   0.608730 0.567880 0.500000 -0.566282
O6    O     O_R   0.608730 0.432120 0.500000 -0.534956
O7    O     O_R   0.500000 0.567910 0.682300 -0.578439
O8    O     O_R   0.500000 0.432090 0.682300 -0.556705
C3    C     C_R   0.644939 0.499319 0.491448 0.905761
C4    C     C_R   0.502087 0.499735 0.741565 0.869103
C5    C     C_3   0.424094 0.525265 0.071026 0.053634
C6    C     C_3   0.521528 0.412210 0.078910 -0.036593
H1    H     H_    0.391878 0.468336 0.077872 0.085132
H2    H     H_    0.473353 0.379861 0.120162 0.108195
C7    C     C_3   0.424553 0.543123 0.928839 0.304641
C8    C     C_3   0.512564 0.403386 0.936380 0.305036
C9    C     C_3   0.569541 0.565418 0.078992 0.469340
C10   C     C_3   0.505882 0.502590 0.124039 -0.388313
C11   C     C_3   0.504719 0.500213 0.880801 -0.263175
C12   C     C_3   0.578407 0.555670 0.931175 0.035217
C13   C     C_R   0.849544 0.564945 0.501965 -0.188617
C14   C     C_R   0.846748 0.418300 0.493758 -0.191880
H3    H     H_    0.881593 0.620582 0.505889 0.181941
H4    H     H_    0.876578 0.360270 0.491024 0.183086
C15   C     C_R   0.771264 0.569497 0.493209 0.319828
C16   C     C_R   0.768477 0.420426 0.484832 0.325236
C17   C     C_R   0.728795 0.496676 0.487036 -0.246986
C18   C     C_R   0.886836 0.489943 0.502121 -0.004258
C19   C     C_1   0.966997 0.486980 0.503542 0.020676
C20   C     C_1   0.034283 0.486693 0.502276 -0.028808
C21   C     C_R   0.149560 0.557404 0.547810 -0.137668
C22   C     C_R   0.155376 0.431700 0.437025 -0.158757
H5    H     H_    0.114484 0.603120 0.590097 0.158067
H6    H     H_    0.125905 0.381613 0.395970 0.151649
C23   C     C_R   0.227845 0.565571 0.541829 0.089927
C24   C     C_R   0.233185 0.439044 0.423175 0.156991
C25   C     C_R   0.271284 0.502413 0.485603 -0.097141
C26   C     C_R   0.114329 0.490417 0.498662 0.040401
C27   C     C_R   0.559894 0.828079 0.549887 0.055181
C28   C     C_R   0.554129 0.169083 0.563517 0.032309
C29   C     C_R   0.557461 0.742171 0.552339 0.112729
C30   C     C_R   0.553953 0.255119 0.560854 0.106001
H7    H     H_    0.602795 0.707934 0.594413 0.153518
H8    H     H_    0.596897 0.287294 0.608858 0.213025
N1    N     N_R   0.499970 0.701220 0.499970 -0.203963
N2    N     N_R   0.499970 0.298780 0.499970 -0.212027
C31   C     C_R   0.442903 0.743393 0.443800 0.142193
C32   C     C_R   0.448221 0.259364 0.431868 0.073452
H9    H     H_    0.399091 0.708948 0.401766 0.168322
H10   H     H_    0.408798 0.294937 0.378467 0.120121
C33   C     C_R   0.440848 0.829921 0.439822 0.046913
C34   C     C_R   0.446295 0.173457 0.427370 0.058917
C35   C     C_R   0.500336 0.873020 0.494499 0.059918
C36   C     C_R   0.499487 0.126876 0.495696 0.078905
C37   C     C_1   0.499956 0.962805 0.494221 -0.042528
C38   C     C_1   0.499601 0.037207 0.494350 -0.029049
N3    N     N_R   0.377957 0.580004 0.147884 0.173285
O9    O     O_R   0.402945 0.648398 0.188993 -0.281974
O10   O     O_R   0.316117 0.552899 0.194531 -0.429801
N4    N     N_R   0.584972 0.365980 0.136459 0.235281
O11   O     O_R   0.654517 0.374885 0.105056 -0.260746
O12   O     O_R   0.569929 0.304007 0.206434 -0.291237
C39   C     C_3   0.264710 0.641717 0.591547 -0.352541
C40   C     C_3   0.213310 0.705202 0.650656 -0.844970
H11   H     H_    0.172440 0.730717 0.583495 0.253104
H12   H     H_    0.183219 0.678207 0.728697 0.252164
H13   H     H_    0.247823 0.756100 0.684647 0.269950
H14   H     H_    0.307280 0.622914 0.659441 0.256586
H15   H     H_    0.293129 0.673156 0.515990 0.218511
C41   C     C_3   0.272927 0.380394 0.337956 -0.377214
C42   C     C_3   0.233193 0.372404 0.215204 -0.804212
H16   H     H_    0.181947 0.335105 0.223597 0.239719
H17   H     H_    0.217740 0.433356 0.177251 0.288367
H18   H     H_    0.271319 0.341244 0.150650 0.227315
H19   H     H_    0.330040 0.401585 0.316150 0.223863
H20   H     H_    0.277123 0.319293 0.381956 0.180701
C43   C     C_3   0.626836 0.869882 0.605352 -0.422853
C44   C     C_3   0.680066 0.900758 0.507918 -0.675684
H21   H     H_    0.700328 0.849257 0.451795 0.300825
H22   H     H_    0.651733 0.946695 0.448360 0.240066
H23   H     H_    0.729232 0.929623 0.551435 0.235969
H24   H     H_    0.607797 0.921152 0.662905 0.209339
H25   H     H_    0.658922 0.827045 0.665188 0.222413
C45   C     C_3   0.612652 0.124426 0.639782 -0.369997
C46   C     C_3   0.578886 0.093044 0.757699 -0.778719
H26   H     H_    0.554663 0.144500 0.809826 0.285594
H27   H     H_    0.534116 0.048338 0.739529 0.240531
H28   H     H_    0.623392 0.062570 0.813350 0.257011
H29   H     H_    0.637478 0.073030 0.588302 0.216875
H30   H     H_    0.659603 0.165529 0.662900 0.255615
C47   C     C_3   0.377229 0.878002 0.378143 -0.428066
C48   C     C_3   0.315477 0.827916 0.319161 -0.768034
H31   H     H_    0.339081 0.789061 0.246750 0.307930
H32   H     H_    0.286726 0.790011 0.387825 0.238733
H33   H     H_    0.273006 0.869808 0.277283 0.245016
H34   H     H_    0.350383 0.918242 0.446196 0.205669
H35   H     H_    0.401652 0.917553 0.306719 0.230931
C49   C     C_3   0.387221 0.134681 0.348412 -0.442295
C50   C     C_3   0.406480 0.144104 0.214637 -0.760086
H36   H     H_    0.408244 0.209565 0.188212 0.241857
H37   H     H_    0.461836 0.114946 0.196040 0.274976
H38   H     H_    0.363031 0.114104 0.158743 0.235239
H39   H     H_    0.380906 0.068951 0.369530 0.210148
H40   H     H_    0.331752 0.164097 0.365609 0.194410
C51   C     C_3   0.352232 0.506635 0.864953 -0.439291
C52   C     C_3   0.276485 0.547690 0.894178 -0.710252
H41   H     H_    0.262966 0.540948 0.991092 0.284314
H42   H     H_    0.274452 0.612837 0.867842 0.293582
H43   H     H_    0.231326 0.517430 0.842086 0.209412
H44   H     H_    0.358615 0.510035 0.765410 0.194217
H45   H     H_    0.341406 0.443524 0.885012 0.196872
C53   C     C_3   0.443711 0.342165 0.921659 -0.422952
C54   C     C_3   0.419753 0.313350 0.796235 -0.726627
H46   H     H_    0.390682 0.361640 0.742617 0.246324
H47   H     H_    0.468668 0.288408 0.747447 0.279926
H48   H     H_    0.379157 0.263011 0.806613 0.208051
H49   H     H_    0.460643 0.284327 0.968453 0.237432
H50   H     H_    0.394189 0.355562 0.977444 0.135102
N5    N     N_R   0.416275 0.632253 0.899938 0.163428
O13   O     O_R   0.377592 0.679811 0.970175 -0.257999
O14   O     O_R   0.416201 0.656692 0.787832 -0.406227
N6    N     N_R   0.577065 0.353985 0.888811 0.158079
O15   O     O_R   0.591885 0.281984 0.934763 -0.320825
O16   O     O_R   0.608418 0.369664 0.786123 -0.394928
N7    N     N_R   0.548245 0.649855 0.118244 0.150205
O17   O     O_R   0.508282 0.700404 0.053425 -0.314421
O18   O     O_R   0.577252 0.679534 0.216809 -0.249773
N8    N     N_R   0.643021 0.548677 0.142184 0.117337
O19   O     O_R   0.696554 0.601661 0.132357 -0.330025
O20   O     O_R   0.648501 0.499304 0.234270 -0.326097
C55   C     C_3   0.587499 0.641991 0.863530 -0.270736
C56   C     C_3   0.650827 0.698802 0.905732 -0.712748
H51   H     H_    0.646725 0.716256 0.001505 0.314278
H52   H     H_    0.707501 0.672929 0.889288 0.249697
H53   H     H_    0.646954 0.756428 0.852583 0.208127
H54   H     H_    0.599660 0.632858 0.767304 0.203007
H55   H     H_    0.536967 0.679632 0.858059 0.275745
C57   C     C_3   0.658210 0.513451 0.903602 -0.263809
C58   C     C_3   0.687519 0.511920 0.773954 -0.802044
H56   H     H_    0.641287 0.501077 0.711974 0.256027
H57   H     H_    0.714541 0.569971 0.747927 0.235149
H58   H     H_    0.730430 0.462625 0.764189 0.269239
H59   H     H_    0.704568 0.543981 0.949479 0.247921
H60   H     H_    0.663335 0.452883 0.941003 0.276134
N9    N     N_R   0.736788 0.648851 0.488837 0.111979
O21   O     O_R   0.755712 0.702808 0.568546 -0.426459
O22   O     O_R   0.702087 0.672976 0.390675 -0.262917
N10   N     N_R   0.731188 0.344297 0.470151 0.130673
O23   O     O_R   0.748374 0.283203 0.541503 -0.388138
O24   O     O_R   0.694882 0.330405 0.370167 -0.236942

loop_
_geom_bond_atom_site_label_1
_geom_bond_atom_site_label_2
_geom_bond_distance
_ccdc_geom_bond_type
C58   H58   1.111364 S    
C14   C18   1.387405 A    
N6    O15   1.304134 A    
C54   H46   1.105448 S    
N5    O13   1.299902 A    
C22   C26   1.387814 A    
C47   C48   1.528380 S    
C20   C26   1.428529 S    
C43   C44   1.526950 S    
C55   C56   1.545773 S    
C23   C25   1.433432 A    
C5    C7    1.595768 S    
C7    N5    1.498802 S    
C24   C41   1.523574 S    
C53   H50   1.100332 S    
C21   H5    1.081059 S    
C54   H47   1.103454 S    
C16   C17   1.428591 A    
O7    C4    1.290635 A    
N5    O14   1.298480 A    
C36   C38   1.471371 S    
C58   H56   1.085185 S    
C2    C10   1.508304 S    
C48   H33   1.110433 S    
C53   C54   1.528847 S    
C58   H57   1.109499 S    
C39   H14   1.101884 S    
N3    O10   1.301352 A    
C21   C26   1.386780 A    
O5    C3    1.293237 A    
C52   H41   1.104219 S    
C5    C10   1.603814 S    
C28   C36   1.416910 A    
C40   H11   1.110850 S    
N1    C31   1.363906 A    
C48   H32   1.108995 S    
N2    C32   1.360511 A    
C11   C12   1.701100 S    
C49   H40   1.111654 S    
C39   H15   1.106435 S    
C46   H27   1.109637 S    
C43   H24   1.110122 S    
C6    C8    1.590389 S    
C13   C18   1.390029 A    
C7    C51   1.591708 S    
C37   C38   1.220641 T    
C41   H20   1.111279 S    
C9    C10   1.620626 S    
C49   C50   1.526823 S    
C56   H53   1.109272 S    
C32   H10   1.076094 S    
Cu1   O7    2.023252 S    
C30   H8    1.075369 S    
C29   H7    1.077319 S    
C13   C15   1.397692 A    
C55   H54   1.097988 S    
C45   H30   1.111601 S    
C41   C42   1.533434 S    
C39   C40   1.530985 S    
C57   H60   1.074991 S    
C22   C24   1.401924 A    
Cu1   N1    1.981944 S    
C33   C47   1.524620 S    
C53   H49   1.113147 S    
C54   H48   1.110924 S    
C12   C57   1.604574 S    
C8    C53   1.604474 S    
C27   C35   1.415538 A    
C47   H34   1.111627 S    
N8    O19   1.303603 A    
C28   C30   1.411553 A    
O3    Cu1   2.027116 S    
O1    C1    1.285981 A    
N4    O12   1.303413 A    
C4    C11   1.539277 S    
C21   C23   1.404442 A    
C42   H16   1.109902 S    
C9    N8    1.499803 S    
C8    N6    1.497638 S    
C27   C29   1.410764 A    
C16   N10   1.432975 S    
C8    C11   1.701217 S    
C29   N1    1.361513 A    
Cu2   O8    2.027226 S    
C48   H31   1.109237 S    
C19   C20   1.198429 T    
C5    N3    1.485449 S    
C49   H39   1.108594 S    
C50   H37   1.110995 S    
C45   C46   1.526844 S    
C46   H28   1.110272 S    
N6    O16   1.293385 A    
C42   H17   1.110956 S    
C52   H43   1.111458 S    
C9    N7    1.500098 S    
C43   H25   1.110080 S    
C51   H44   1.107669 S    
N8    O20   1.296842 A    
C12   C55   1.605745 S    
O3    C2    1.279555 A    
C24   C25   1.430013 A    
N10   O24   1.300156 A    
C14   C16   1.396676 A    
C44   H22   1.109489 S    
C41   H19   1.106888 S    
C33   C35   1.417173 A    
C27   C43   1.512889 S    
C35   C37   1.472994 S    
Cu2   N2    1.981954 S    
C7    C11   1.674784 S    
C56   H52   1.106259 S    
N7    O17   1.293197 A    
C5    H1    1.105293 S    
C45   H29   1.110143 S    
C1    C25   1.493070 S    
C6    C10   1.590541 S    
O1    Cu1   1.950266 S    
C23   C39   1.524938 S    
C57   H59   1.095698 S    
C3    C17   1.494581 S    
Cu2   O6    1.950540 S    
O2    Cu2   1.944500 S    
O8    C4    1.295029 A    
C56   H51   1.101818 S    
O6    C3    1.288110 A    
O4    Cu2   2.023142 S    
C13   H3    1.084482 S    
C44   H23   1.110283 S    
C30   N2    1.361098 A    
C14   H4    1.084472 S    
N4    O11   1.298347 A    
N9    O22   1.300436 A    
O2    C1    1.292388 A    
C34   C49   1.513394 S    
C15   C17   1.424993 A    
N9    O21   1.301111 A    
C18   C19   1.427717 S    
O4    C2    1.286043 A    
C32   C34   1.411717 A    
C40   H13   1.110739 S    
C22   H6    1.083001 S    
C34   C36   1.417843 A    
C50   H38   1.110317 S    
C31   C33   1.419863 A    
N3    O9    1.298051 A    
C42   H18   1.111401 S    
C52   H42   1.105067 S    
Cu1   Cu2   2.638884 S    
C51   H45   1.077146 S    
C15   N9    1.431846 S    
Cu1   O5    1.944751 S    
C55   H55   1.085240 S    
N10   O23   1.301125 A    
C6    H2    1.113142 S    
C44   H21   1.110636 S    
C9    C12   1.651373 S    
C51   C52   1.536950 S    
C50   H36   1.111191 S    
C40   H12   1.110290 S    
C57   C58   1.528559 S    
C6    N4    1.487643 S    
C31   H9    1.075488 S    
C46   H26   1.110499 S    
C28   C45   1.512615 S    
C47   H35   1.111761 S    
N7    O18   1.303989 A    
