data_mof_unit_3561.cif
_audit_creation_date              2012-12-10T17:15:49-0500
_audit_creation_method            fapswitch 2.2
_symmetry_space_group_name_H-M    P1
_symmetry_Int_Tables_number       1
_space_group_crystal_system       triclinic
_cell_length_a                    10.095599
_cell_length_b                    10.807144
_cell_length_c                    10.586565
_cell_angle_alpha                 88.621678
_cell_angle_beta                  95.324586
_cell_angle_gamma                 82.890962
_cell_volume                      1140.47917963

loop_
_atom_site_label
_atom_site_type_symbol
_atom_type_description
_atom_site_fract_x
_atom_site_fract_y
_atom_site_fract_z
_atom_type_partial_charge
C1    C     C_R   0.444125 0.509238 0.265780 0.942779
C2    C     C_2   0.472818 0.424989 0.929547 -0.030390
C3    C     C_2   0.077329 0.479871 0.496008 -0.284275
C4    C     C_R   0.500332 0.260117 0.508105 0.995760
C5    C     C_2   0.936861 0.476571 0.531528 0.548492
C6    C     C_R   0.554647 0.489084 0.735422 0.962769
C7    C     C_R   0.504137 0.739257 0.505501 0.917335
C8    C     C_R   0.727712 0.099260 0.642400 0.394638
C9    C     C_R   0.855764 0.034609 0.647377 -0.396723
C10   C     C_R   0.870079 0.905567 0.633050 0.453212
C11   C     C_R   0.752051 0.848170 0.614650 0.439592
C12   C     C_R   0.621141 0.050535 0.572910 -0.066461
C13   C     C_R   0.628776 0.920386 0.565416 -0.141780
C14   C     C_3   0.986066 0.431847 0.744788 -0.144001
C15   C     C_3   0.094738 0.870961 0.606826 -0.244913
C16   C     C_3   0.729157 0.738055 0.793746 -0.118866
C17   C     C_R   0.502473 0.127084 0.523803 -0.001624
C18   C     C_R   0.388842 0.075834 0.478274 -0.131812
C19   C     C_R   0.393203 0.948900 0.474509 -0.175097
C20   C     C_R   0.511166 0.870667 0.516186 -0.043083
C21   C     C_2   0.414165 0.509984 0.129353 0.064301
C22   C     C_2   0.470750 0.413431 0.065675 0.218482
C23   C     C_2   0.575438 0.465031 0.873452 -0.195529
H1    H     H_    0.297888 0.134145 0.440712 0.163823
H2    H     H_    0.087564 0.460713 0.762336 0.154082
H3    H     H_    0.994299 0.331640 0.720299 0.145734
H4    H     H_    0.940028 0.441351 0.835737 0.205206
H5    H     H_    0.767245 0.105718 0.978403 0.420027
H6    H     H_    0.118799 0.964714 0.634133 0.157605
H7    H     H_    0.071194 0.867967 0.502201 0.146860
H8    H     H_    0.187345 0.806163 0.634009 0.220204
H9    H     H_    0.620553 0.767059 0.800593 0.158885
H10   H     H_    0.790214 0.802424 0.846968 0.201722
H11   H     H_    0.757233 0.645119 0.841292 0.165859
H12   H     H_    0.113693 0.418722 0.423501 0.164545
H13   H     H_    0.405723 0.159096 0.999759 0.368221
H14   H     H_    0.870503 0.427562 0.359881 0.131163
H15   H     H_    0.120042 0.608857 0.618908 0.247287
H16   H     H_    0.938156 0.076610 0.694228 0.198362
H17   H     H_    0.304233 0.911741 0.434468 0.166791
H18   H     H_    0.382019 0.404825 0.874693 0.169214
H19   H     H_    0.668655 0.478263 0.928085 0.138107
H20   H     H_    0.185528 0.706876 0.182626 0.359075
N1    N     N_2   0.157290 0.551390 0.551110 -0.195886
N2    N     N_2   0.842740 0.448550 0.448960 -0.216767
O1    O     O_R   0.568950 0.489660 0.307530 -0.595428
O2    O     O_2   0.225679 0.622141 0.953099 -0.313152
O3    O     O_3   0.263905 0.745750 0.158667 -0.515856
O4    O     O_3   0.904709 0.509814 0.651474 -0.526506
O5    O     O_2   0.776796 0.272867 0.807438 -0.373059
O6    O     O_2   0.547296 0.213259 0.783786 -0.339973
O7    O     O_3   0.737827 0.059376 0.903441 -0.504853
O8    O     O_3   0.990318 0.832408 0.672312 -0.557030
O9    O     O_3   0.755676 0.729226 0.665405 -0.547808
O10   O     O_2   0.656630 0.249655 0.198305 -0.267833
O11   O     O_2   0.422120 0.241101 0.236459 -0.371399
O12   O     O_R   0.348880 0.522640 0.340350 -0.605464
O13   O     O_3   0.502527 0.152101 0.029068 -0.428351
O14   O     O_R   0.610060 0.300270 0.483590 -0.590944
O15   O     O_R   0.389990 0.333260 0.516410 -0.627372
O16   O     O_R   0.651120 0.477360 0.659650 -0.510166
O17   O     O_R   0.431050 0.510340 0.692470 -0.619590
O18   O     O_R   0.610010 0.666740 0.483590 -0.561293
O19   O     O_R   0.389940 0.699730 0.516410 -0.643998
O20   O     O_2   0.433953 0.715389 0.989606 -0.274875
S1    S     S_3+6 0.332909 0.650481 0.052571 0.020512
S2    S     S_3+6 0.694021 0.168189 0.785644 0.017485
S3    S     S_3+6 0.514938 0.262024 0.137400 0.040563
Zn1   Zn    Zn3+2 0.646940 0.477980 0.478090 1.085874
Zn2   Zn    Zn3+2 0.353060 0.522020 0.521910 0.977590

loop_
_geom_bond_atom_site_label_1
_geom_bond_atom_site_label_2
_ccdc_geom_bond_type
C12   C17   A    
C2    C22   S    
C15   H8    S    
C1    C21   S    
H14   N2    S    
O19   Zn2   S    
C16   H10   S    
C16   H9    S    
C11   C13   A    
O5    S2    D    
O2    S1    D    
C19   C20   A    
C13   C20   A    
O15   Zn2   S    
C6    O17   A    
C8    C12   A    
C22   S3    S    
C4    O15   A    
C17   C18   A    
N1    Zn2   S    
O6    S2    D    
C21   C22   D    
C14   H3    S    
H15   N1    S    
C14   H4    S    
H5    O7    S    
C7    O18   A    
C23   H19   S    
O14   Zn1   S    
C18   H1    S    
C6    C23   S    
C15   O8    S    
C6    O16   A    
C11   O9    S    
C15   H6    S    
H13   O13   S    
C19   H17   S    
O20   S1    D    
C14   H2    S    
C1    O1    A    
C16   O9    S    
C3    N1    D    
C5    O4    S    
C14   O4    S    
C10   C11   A    
C4    C17   S    
O12   Zn2   S    
C3    H12   S    
C4    O14   A    
C9    C10   A    
O18   Zn1   S    
C9    H16   S    
O3    S1    S    
C12   C13   A    
O17   Zn2   S    
C15   H7    S    
C7    C20   S    
H20   O3    S    
O13   S3    S    
C2    C23   D    
C10   O8    S    
O10   S3    D    
C18   C19   A    
O1    Zn1   S    
C7    O19   A    
C2    H18   S    
N2    Zn1   S    
C16   H11   S    
O11   S3    D    
O16   Zn1   S    
C5    N2    D    
C8    S2    S    
O7    S2    S    
C8    C9    A    
C3    C5    S    
C21   S1    S    
C1    O12   A    
