data_mof_unit_3356.cif
_audit_creation_date              2013-03-05T16:01:46-0500
_audit_creation_method            fapswitch 2.2
_symmetry_space_group_name_H-M    P1
_symmetry_Int_Tables_number       1
_space_group_crystal_system       triclinic
_cell_length_a                    14.730136
_cell_length_b                    14.722831
_cell_length_c                    27.787934
_cell_angle_alpha                 76.269161
_cell_angle_beta                  102.89052
_cell_angle_gamma                 114.840103
_cell_volume                      5260.23767883

loop_
_atom_site_label
_atom_site_type_symbol
_atom_site_description
_atom_site_fract_x
_atom_site_fract_y
_atom_site_fract_z
_atom_type_partial_charge
O1    O     O_R   0.977900 0.338120 0.517190 -0.504520
O2    O     O_R   0.022100 0.661880 0.482810 -0.517113
O3    O     O_R   0.839850 0.379180 0.495160 -0.589565
O4    O     O_R   0.160150 0.620820 0.504840 -0.585374
C1    C     C_R   0.880485 0.312149 0.507832 0.844341
C2    C     C_R   0.119352 0.687683 0.492781 0.865025
O5    O     O_R   0.069030 0.479490 0.580750 -0.538278
O6    O     O_R   0.930970 0.520510 0.419250 -0.526620
O7    O     O_R   0.930970 0.520550 0.558720 -0.590037
O8    O     O_R   0.069030 0.479450 0.441280 -0.607549
C3    C     C_R   0.001220 0.502456 0.592181 0.848204
C4    C     C_R   0.998531 0.497083 0.407863 0.832661
Cu1   Cu    Cu3+1 0.081740 0.475690 0.513040 1.021435
Cu2   Cu    Cu3+1 0.918260 0.524310 0.486960 1.028888
C5    C     C_R   0.969172 0.408015 0.829464 0.549082
C6    C     C_R   0.034443 0.587644 0.171298 0.547733
O9    O     O_2   0.944247 0.320771 0.812477 -0.533203
O10   O     O_2   0.065774 0.675521 0.188840 -0.535122
N1    N     N_R   0.995620 0.498109 0.797295 -0.459710
N2    N     N_R   0.001435 0.497202 0.202853 -0.457878
C7    C     C_R   0.021542 0.587876 0.813307 0.554084
C8    C     C_R   0.968665 0.406875 0.186122 0.549776
C9    C     C_R   0.090475 0.538039 0.727777 -0.158054
C10   C     C_R   0.907560 0.457908 0.272809 -0.161431
C11   C     C_R   0.094122 0.543293 0.677199 0.295126
C12   C     C_R   0.904604 0.453511 0.323385 0.288100
C13   C     C_R   0.909849 0.466972 0.663300 -0.263456
C14   C     C_R   0.088848 0.530752 0.336589 -0.273357
C15   C     C_R   0.907577 0.463526 0.713544 -0.076926
C16   C     C_R   0.090463 0.532898 0.286420 -0.081381
C17   C     C_R   0.997802 0.498910 0.745882 0.282850
C18   C     C_R   0.999902 0.496834 0.254349 0.281498
C19   C     C_R   0.995985 0.497631 0.897699 -0.042519
C20   C     C_R   0.000593 0.497375 0.102381 -0.042978
C21   C     C_R   0.968797 0.406093 0.880199 -0.024080
C22   C     C_R   0.034781 0.589400 0.120581 -0.024206
C23   C     C_R   0.942934 0.314937 0.913638 -0.136072
C24   C     C_R   0.068465 0.681026 0.087940 -0.137206
C25   C     C_R   0.022346 0.589322 0.863727 -0.029257
C26   C     C_R   0.967387 0.405296 0.135659 -0.026095
C27   C     C_R   0.002441 0.505702 0.644734 -0.157708
C28   C     C_R   0.996609 0.492406 0.355434 -0.165102
H1    H     H_    0.839093 0.437785 0.639000 0.176568
H2    H     H_    0.159849 0.560662 0.360608 0.177469
H3    H     H_    0.835696 0.433601 0.727387 0.165256
H4    H     H_    0.162144 0.562555 0.272405 0.165964
H5    H     H_    0.922789 0.243599 0.901241 0.190113
H6    H     H_    0.096318 0.752895 0.101115 0.190056
C29   C     C_R   0.966560 0.403770 0.033595 0.042326
C30   C     C_R   0.026767 0.590940 0.966163 0.041918
C31   C     C_R   0.031225 0.591099 0.017802 0.042757
C32   C     C_R   0.968326 0.404021 0.982587 0.042708
C33   C     C_R   0.999486 0.497415 0.051041 0.071437
C34   C     C_R   0.996988 0.497521 0.949035 0.071805
C35   C     C_R   0.932373 0.312720 0.068044 -0.195246
C36   C     C_R   0.050540 0.681309 0.930663 -0.194416
C37   C     C_R   0.933118 0.313723 0.117962 -0.134746
C38   C     C_R   0.048582 0.680302 0.880611 -0.131507
O11   O     O_2   0.937954 0.318855 0.218321 -0.526774
O12   O     O_2   0.046170 0.675412 0.780461 -0.513944
C39   C     C_R   0.942854 0.313696 0.963752 -0.195528
C40   C     C_R   0.067104 0.682112 0.037687 -0.195799
H7    H     H_    0.837989 0.428436 0.247799 0.186121
H8    H     H_    0.159744 0.566971 0.753064 0.183602
H9    H     H_    0.906185 0.241807 0.142697 0.191210
H10   H     H_    0.067871 0.751724 0.855095 0.192808
H11   H     H_    0.902882 0.238577 0.057725 0.143954
H12   H     H_    0.069792 0.754705 0.939966 0.144296
H13   H     H_    0.923743 0.240143 0.986797 0.143423
H14   H     H_    0.096313 0.756270 0.015664 0.143865
C41   C     C_R   0.812946 0.204326 0.509746 -0.132306
C42   C     C_R   0.186044 0.795274 0.491989 -0.121017
C43   C     C_R   0.779710 0.028178 0.511302 -0.256418
C44   C     C_R   0.220634 0.966839 0.500866 -0.249604
C45   C     C_R   0.848638 0.128429 0.511667 0.446164
C46   C     C_R   0.151867 0.866682 0.499021 0.449221
C47   C     C_R   0.709159 0.178647 0.506640 -0.260228
C48   C     C_R   0.287716 0.824439 0.487780 -0.276817
C49   C     C_R   0.638487 0.078845 0.504570 0.093214
C50   C     C_R   0.358931 0.922465 0.493708 0.099308
C51   C     C_R   0.675722 0.003324 0.506830 0.092518
C52   C     C_R   0.322654 0.995140 0.497578 0.090123
C53   C     C_R   0.532353 0.051994 0.500547 0.078327
C54   C     C_R   0.464922 0.949581 0.497223 0.079352
C55   C     C_R   0.505895 0.876705 0.500026 -0.155987
C56   C     C_R   0.491364 0.123519 0.500619 -0.164321
C57   C     C_R   0.609167 0.903329 0.504898 -0.118291
C58   C     C_R   0.388834 0.095010 0.499764 -0.122752
H15   H     H_    0.637184 0.844796 0.507306 0.161653
H16   H     H_    0.361178 0.151820 0.501169 0.165780
H17   H     H_    0.309289 0.768379 0.480224 0.158442
H18   H     H_    0.685617 0.239051 0.505300 0.167790
H19   H     H_    0.807628 0.969820 0.513976 0.147786
H20   H     H_    0.195734 0.021460 0.507859 0.153742
H21   H     H_    0.460588 0.797187 0.500197 0.142186
H22   H     H_    0.535949 0.202285 0.502734 0.139562
N3    N     N_R   0.795430 0.560780 0.467350 -0.204980
N4    N     N_R   0.204570 0.439220 0.532650 -0.216974
C59   C     C_R   0.715760 0.669917 0.417203 -0.363876
C60   C     C_R   0.282366 0.327627 0.581771 -0.341796
C61   C     C_R   0.794849 0.635889 0.427891 0.632058
C62   C     C_R   0.202856 0.360967 0.570665 0.648065
C63   C     C_R   0.715479 0.510634 0.493570 -0.042871
C64   C     C_R   0.285761 0.490843 0.507372 -0.054163
C65   C     C_R   0.629697 0.537472 0.482085 -0.034036
C66   C     C_R   0.371350 0.463639 0.518892 -0.030452
C67   C     C_R   0.634001 0.623065 0.444707 -0.016586
C68   C     C_R   0.366252 0.377009 0.555736 -0.024287
C69   C     C_R   0.541273 0.483522 0.506675 0.039140
C70   C     C_R   0.460275 0.518202 0.494724 0.040398
C71   C     C_R   0.471533 0.607616 0.459765 -0.292177
C72   C     C_R   0.530459 0.394636 0.541961 -0.289003
C73   C     C_R   0.556260 0.659823 0.435057 0.352416
C74   C     C_R   0.445274 0.341752 0.566303 0.347120
H23   H     H_    0.280296 0.550983 0.477648 0.140703
H24   H     H_    0.721989 0.451871 0.523918 0.137984
H25   H     H_    0.719818 0.733882 0.387879 0.202759
H26   H     H_    0.277044 0.262529 0.610498 0.207677
H27   H     H_    0.416337 0.641155 0.451536 0.157020
H28   H     H_    0.586409 0.361953 0.550714 0.157318
O13   O     O_3   0.056939 0.834630 0.512513 -0.546827
C75   C     C_3   0.997636 0.878720 0.475822 0.078806
H29   H     H_    0.986608 0.854273 0.439292 0.184757
H30   H     H_    0.032065 0.962931 0.470809 0.121345
C76   C     C_3   0.895300 0.844089 0.492666 -0.721461
H31   H     H_    0.905171 0.873230 0.527630 0.245858
H32   H     H_    0.844892 0.872928 0.463136 0.212051
H33   H     H_    0.860059 0.760088 0.500459 0.258177
O14   O     O_3   0.950894 0.151147 0.515782 -0.541731
C77   C     C_3   0.974017 0.155300 0.468445 0.095574
H34   H     H_    0.947110 0.208328 0.439095 0.158286
H35   H     H_    0.939314 0.078560 0.457524 0.135357
C78   C     C_3   0.088014 0.193539 0.470930 -0.744451
H36   H     H_    0.118528 0.146255 0.501882 0.250227
H37   H     H_    0.106810 0.189788 0.435101 0.192589
H38   H     H_    0.123889 0.273440 0.477404 0.255895
N5    N     N_R   0.562764 0.752102 0.401053 0.114805
O15   O     O_R   0.483036 0.757227 0.370861 -0.346883
O16   O     O_R   0.641732 0.835482 0.406577 -0.388728
N6    N     N_R   0.440295 0.250920 0.601281 0.114405
O17   O     O_R   0.520204 0.248762 0.632251 -0.341742
O18   O     O_R   0.363044 0.166032 0.596255 -0.369406
O19   O     O_3   0.116726 0.307168 0.593509 -0.533171
C79   C     C_3   0.139856 0.311461 0.645305 0.049698
H39   H     H_    0.178943 0.391384 0.652159 0.182401
H40   H     H_    0.187867 0.268503 0.664731 0.147354
C80   C     C_3   0.042147 0.263094 0.668207 -0.693161
H41   H     H_    0.004943 0.181389 0.664789 0.255907
H42   H     H_    0.058665 0.270499 0.708409 0.216413
H43   H     H_    0.989674 0.300819 0.648699 0.233772
O20   O     O_3   0.879181 0.687040 0.403511 -0.579863
C81   C     C_3   0.852456 0.680954 0.351921 0.037901
H44   H     H_    0.803103 0.722749 0.333073 0.146690
H45   H     H_    0.813436 0.600515 0.345947 0.197130
C82   C     C_3   0.947943 0.729503 0.327174 -0.729117
H46   H     H_    0.002025 0.693361 0.346042 0.242367
H47   H     H_    0.928747 0.720271 0.287170 0.224285
H48   H     H_    0.984561 0.811660 0.329655 0.239792
N7    N     N_R   0.808698 0.405036 0.341798 0.121649
O21   O     O_R   0.727573 0.409699 0.312839 -0.361099
O22   O     O_R   0.799254 0.342845 0.384077 -0.367777
N8    N     N_R   0.190466 0.591128 0.659247 0.123427
O23   O     O_R   0.270589 0.583823 0.688196 -0.358663
O24   O     O_R   0.201438 0.654897 0.617483 -0.335427

loop_
_geom_bond_atom_site_label_1
_geom_bond_atom_site_label_2
_geom_bond_distance
_ccdc_geom_bond_type
C41   C45   1.407345 A    
C29   C33   1.421859 A    
C47   H18   1.072452 S    
C13   C15   1.392405 A    
C55   H21   1.076263 S    
C44   H20   1.082944 S    
C80   H41   1.110647 S    
C43   H19   1.079716 S    
C50   C54   1.425919 A    
N1    C17   1.433324 S    
C72   C74   1.395018 A    
O5    C3    1.299713 A    
C65   C67   1.418365 A    
C30   C34   1.421762 A    
C44   C46   1.400315 A    
O1    C1    1.300992 A    
C46   O13   1.383481 S    
C6    N2    1.367603 A    
N1    C7    1.367427 A    
C10   C12   1.401074 A    
N8    O23   1.301386 A    
C32   C39   1.416596 A    
C66   C70   1.436819 A    
C48   C50   1.405061 A    
C79   H40   1.111280 S    
C82   H47   1.110542 S    
C68   C74   1.411864 A    
O19   C79   1.413491 S    
Cu1   N4    2.023919 S    
C40   H14   1.075783 S    
C71   H27   1.076053 S    
C43   C51   1.400481 A    
O4    Cu1   1.940192 S    
C70   C71   1.409114 A    
C67   C73   1.410991 A    
C4    C28   1.468213 S    
C5    N1    1.366976 A    
C38   H10   1.083568 S    
C53   C54   1.426700 A    
C36   C38   1.388160 A    
C78   H38   1.109603 S    
C42   C48   1.398212 A    
O20   C81   1.413377 S    
N7    O22   1.301235 A    
C74   N6    1.439042 S    
C23   H5    1.083576 S    
C24   H6    1.083567 S    
C42   C46   1.408198 A    
C55   C57   1.385063 A    
Cu1   Cu2   2.694405 S    
C82   H48   1.110675 S    
C43   C45   1.397472 A    
O2    C2    1.299575 A    
C31   C40   1.416459 A    
C44   C52   1.399063 A    
C79   C80   1.521855 S    
C5    C21   1.404579 A    
C32   C34   1.421463 A    
N8    O24   1.301288 A    
C47   C49   1.405101 A    
C60   C68   1.404698 A    
C56   C58   1.383400 A    
C16   C18   1.398117 A    
C80   H43   1.109309 S    
C54   C55   1.415971 A    
C7    O12   1.349865 S    
C50   C52   1.415152 A    
C69   C72   1.408822 A    
C11   C27   1.417549 A    
C8    O11   1.349878 S    
C72   H28   1.076158 S    
C29   C35   1.416225 A    
C25   C38   1.395077 A    
C61   O20   1.384387 S    
C30   C36   1.416177 A    
C15   H3    1.082829 S    
C31   C33   1.421351 A    
C9    C17   1.398767 A    
C77   H35   1.112749 S    
O7    Cu2   1.950421 S    
C10   C18   1.399485 A    
C59   H25   1.079167 S    
C64   H23   1.075049 S    
N5    O16   1.301402 A    
C13   C27   1.404424 A    
C35   H11   1.075701 S    
N7    O21   1.301511 A    
C7    C25   1.403590 A    
C81   C82   1.521751 S    
C56   H22   1.074638 S    
C11   N8    1.438141 S    
O6    C4    1.300075 A    
C29   C32   1.422543 A    
C8    C26   1.403764 A    
C60   C62   1.399190 A    
C30   C31   1.422241 A    
C12   N7    1.438381 S    
C71   C73   1.394863 A    
C6    O10   1.349774 S    
C19   C25   1.408007 A    
N6    O17   1.301371 A    
C76   H32   1.110229 S    
O7    C3    1.300397 A    
O13   C75   1.410244 S    
N3    C63   1.363773 A    
O3    Cu2   1.940191 S    
O8    C4    1.299962 A    
O4    C2    1.301190 A    
C9    H8    1.083207 S    
C59   C61   1.400617 A    
C81   H45   1.113242 S    
C10   H7    1.083172 S    
C35   C37   1.388244 A    
C78   H36   1.110224 S    
C63   C65   1.426296 A    
C73   N5    1.438555 S    
C77   C78   1.521141 S    
O1    Cu1   1.954523 S    
C62   O19   1.384309 S    
N2    C8    1.368112 A    
C75   H30   1.111311 S    
C41   C47   1.399503 A    
C59   C67   1.404565 A    
C12   C28   1.417493 A    
Cu2   N3    2.023917 S    
C49   C51   1.415945 A    
O14   C77   1.412181 S    
N2    C18   1.434878 S    
C39   H13   1.075683 S    
C19   C34   1.422907 A    
C5    O9    1.349733 S    
C65   C69   1.436839 A    
O6    Cu2   1.947882 S    
C26   C37   1.395176 A    
C14   C28   1.404133 A    
C21   C23   1.395013 A    
C16   H4    1.082853 S    
C58   H16   1.084395 S    
C79   H39   1.113833 S    
O3    C1    1.301351 A    
O8    Cu1   1.950419 S    
C23   C39   1.388614 A    
C64   C66   1.426756 A    
N6    O18   1.301319 A    
C48   H17   1.076417 S    
C80   H42   1.110559 S    
N5    O15   1.301364 A    
C63   H24   1.075232 S    
C36   H12   1.075813 S    
C75   C76   1.518919 S    
C22   C24   1.395080 A    
C77   H34   1.115899 S    
C15   C17   1.397439 A    
N4    C62   1.361458 A    
C69   C70   1.431438 A    
C6    C22   1.404499 A    
C49   C53   1.427123 A    
C51   C57   1.390249 A    
C76   H31   1.109787 S    
C66   C68   1.419344 A    
C76   H33   1.108825 S    
C52   C58   1.388409 A    
C14   C16   1.392246 A    
C19   C21   1.408525 A    
C14   H2    1.083668 S    
C3    C27   1.468279 S    
C20   C22   1.408340 A    
C9    C11   1.400972 A    
O2    Cu2   1.954523 S    
C13   H1    1.083672 S    
O5    Cu1   1.947882 S    
C53   C56   1.417455 A    
C60   H26   1.078671 S    
C81   H44   1.111033 S    
C20   C33   1.422958 A    
C1    C41   1.472834 S    
C82   H46   1.109074 S    
C78   H37   1.110354 S    
C57   H15   1.084682 S    
C20   C26   1.407752 A    
C24   C40   1.388481 A    
C75   H29   1.112255 S    
C2    C42   1.469838 S    
N4    C64   1.363473 A    
N3    C61   1.361387 A    
C45   O14   1.382662 S    
C37   H9    1.083572 S    
