data_mof_unit_2013.cif
_audit_creation_date              2012-12-11T15:48:49-0500
_audit_creation_method            fapswitch 2.2
_symmetry_space_group_name_H-M    P1
_symmetry_Int_Tables_number       1
_space_group_crystal_system       triclinic
_cell_length_a                    10.995371
_cell_length_b                    10.988924
_cell_length_c                    18.808632
_cell_angle_alpha                 90.629667
_cell_angle_beta                  90.427389
_cell_angle_gamma                 60.229427
_cell_volume                      1972.53586451

loop_
_atom_site_label
_atom_site_type_symbol
_atom_type_description
_atom_site_fract_x
_atom_site_fract_y
_atom_site_fract_z
_atom_type_partial_charge
C1    C     C_R   0.239838 0.645027 0.610249 0.537804
C2    C     C_R   0.584759 0.130616 0.707386 -0.172657
C3    C     C_R   0.583425 0.129572 0.780508 -0.159276
C4    C     C_R   0.652758 0.620733 0.601853 0.535724
C5    C     C_3   0.928495 0.104172 0.787290 -0.275000
C6    C     C_3   0.924302 0.111751 0.706917 -0.280990
C7    C     C_R   0.674541 0.164368 0.671653 0.016241
C8    C     C_R   0.186112 0.666811 0.836938 0.015494
C9    C     C_R   0.195295 0.555279 0.796685 0.019525
C10   C     C_R   0.202454 0.552235 0.724463 0.022164
C11   C     C_R   0.204391 0.768024 0.725515 -0.185265
C12   C     C_3   0.732567 0.521461 0.797095 -0.244600
C13   C     C_R   0.203616 0.767659 0.799823 -0.181192
C14   C     C_3   0.190802 0.422084 0.800134 -0.279945
C15   C     C_3   0.201243 0.417643 0.718370 -0.279513
C16   C     C_R   0.629915 0.226280 0.601780 0.541493
C17   C     C_R   0.204471 0.658494 0.685568 0.013969
C18   C     C_R   0.684250 0.688283 0.176870 0.020712
C19   C     C_R   0.804029 0.607352 0.218634 0.034417
C20   C     C_R   0.791097 0.596806 0.290853 0.002685
C21   C     C_R   0.547236 0.771317 0.285055 -0.163100
C22   C     C_R   0.556832 0.776223 0.211005 -0.176219
C23   C     C_3   0.697440 0.672962 0.813609 0.058570
C24   C     C_3   0.907817 0.453345 0.211555 -0.258397
C25   C     C_3   0.882238 0.441447 0.289161 -0.123133
C26   C     C_R   0.662718 0.672945 0.324825 -0.000189
C27   C     C_R   0.638545 0.188301 0.169111 0.022499
C28   C     C_R   0.221566 0.648429 0.401722 0.548460
C29   C     C_R   0.517541 0.215500 0.205799 0.016775
C30   C     C_R   0.515609 0.222094 0.278823 0.030264
C31   C     C_R   0.744081 0.198385 0.280721 -0.164720
C32   C     C_R   0.743534 0.199320 0.206442 -0.160945
C33   C     C_3   0.435125 0.140672 0.204863 -0.271558
C34   C     C_3   0.668851 0.646138 0.677774 0.052288
C35   C     C_3   0.435504 0.146897 0.284937 -0.283876
C36   C     C_R   0.632155 0.202175 0.317766 0.025402
C37   C     C_R   0.120996 0.689348 0.187711 0.027415
C38   C     C_R   0.073895 0.808719 0.230572 0.052557
C39   C     C_R   0.087104 0.799113 0.302973 0.013389
C40   C     C_R   0.642464 0.624718 0.393199 0.539697
C41   C     C_R   0.181385 0.549189 0.292755 -0.151793
C42   C     C_R   0.167211 0.559536 0.219180 -0.166533
C43   C     C_3   0.114185 0.919728 0.227279 -0.268612
C44   C     C_3   0.123840 0.912784 0.307034 -0.278980
C45   C     C_3   0.779718 0.690885 0.689235 -0.252251
C46   C     C_R   0.151269 0.668216 0.334586 0.011182
C47   C     C_R   0.702484 0.098054 0.894919 0.541346
C48   C     C_R   0.721609 0.686793 0.889261 0.543932
C49   C     C_R   0.120174 0.704893 0.906699 0.539887
C50   C     C_R   0.673288 0.111328 0.102436 0.549843
C51   C     C_R   0.703586 0.695352 0.100993 0.551219
C52   C     C_R   0.613870 0.234341 0.393179 0.544670
C53   C     C_R   0.090114 0.711689 0.113420 0.546274
C54   C     C_3   0.543817 0.773833 0.791097 -0.243053
C55   C     C_3   0.528443 0.760382 0.710585 -0.232349
C56   C     C_3   0.713899 0.506539 0.717727 -0.212728
C57   C     C_3   0.794532 0.709854 0.769578 -0.218226
C58   C     C_R   0.005175 0.379315 0.340279 0.045906
C59   C     C_R   0.093830 0.233806 0.338616 -0.139933
C60   C     C_R   0.185510 0.165116 0.395149 -0.138915
C61   C     C_R   0.191969 0.241975 0.453138 -0.091164
C62   C     C_R   0.106396 0.387347 0.454890 -0.079931
C63   C     C_R   0.014352 0.456169 0.398701 -0.051493
C64   C     C_R   0.683122 0.146118 0.821275 0.018181
C65   C     C_R   0.773416 0.179323 0.785523 -0.006610
C66   C     C_R   0.768127 0.189797 0.711501 0.015402
Cr1   Cr    Cr6+3 0.392960 0.397920 0.502240 0.988879
Cr2   Cr    Cr6+3 0.398340 0.708480 0.501250 0.992867
Cr3   Cr    Cr6+3 0.708670 0.393570 0.496460 1.014147
Cr4   Cr    Cr6+3 0.937650 0.938540 0.007610 1.005271
Cr5   Cr    Cr6+3 0.625330 0.937370 0.994520 1.000181
Cr6   Cr    Cr6+3 0.937940 0.625230 0.001190 1.005117
H1    H     H_    0.512846 0.884415 0.803934 0.130900
H2    H     H_    0.963940 0.008464 0.680010 0.143232
H3    H     H_    0.209803 0.852850 0.699798 0.134675
H4    H     H_    0.472043 0.748198 0.820386 0.119007
H5    H     H_    0.205068 0.853772 0.827620 0.132725
H6    H     H_    0.089874 0.436400 0.820256 0.145214
H7    H     H_    0.285308 0.337485 0.826524 0.138688
H8    H     H_    0.301476 0.331564 0.697562 0.159957
H9    H     H_    0.106107 0.429309 0.691291 0.116556
H10   H     H_    0.447062 0.835210 0.310049 0.120784
H11   H     H_    0.464035 0.843691 0.180406 0.114104
H12   H     H_    0.815128 0.421696 0.696548 0.142030
H13   H     H_    0.015065 0.431536 0.199718 0.139416
H14   H     H_    0.870236 0.397398 0.175988 0.125009
H15   H     H_    0.816617 0.392431 0.295278 0.149220
H16   H     H_    0.448508 0.729350 0.701117 0.149895
H17   H     H_    0.832388 0.191855 0.309241 0.117856
H18   H     H_    0.831080 0.194391 0.178376 0.113845
H19   H     H_    0.495822 0.032649 0.184017 0.176620
H20   H     H_    0.329200 0.204607 0.181164 0.123313
H21   H     H_    0.331088 0.215981 0.306957 0.157658
H22   H     H_    0.496658 0.043283 0.310856 0.144968
H23   H     H_    0.905282 0.642982 0.785420 0.135027
H24   H     H_    0.230523 0.446375 0.315794 0.153310
H25   H     H_    0.200089 0.466319 0.186931 0.115915
H26   H     H_    0.030084 0.020493 0.207485 0.138436
H27   H     H_    0.492779 0.863320 0.684669 0.116155
H28   H     H_    0.217229 0.882413 0.201065 0.134026
H29   H     H_    0.231485 0.878906 0.325124 0.159685
H30   H     H_    0.041168 0.005705 0.335237 0.134596
H31   H     H_    0.767561 0.820174 0.780576 0.129399
H32   H     H_    0.747994 0.791054 0.661255 0.114440
H33   H     H_    0.842692 0.445619 0.812219 0.131268
H34   H     H_    0.881842 0.610541 0.666806 0.118326
H35   H     H_    0.662980 0.494753 0.827875 0.120261
H36   H     H_    0.633119 0.474712 0.709631 0.133029
H37   H     H_    0.089766 0.174044 0.293643 0.099263
H38   H     H_    0.253109 0.052605 0.393622 0.110509
H39   H     H_    0.263245 0.188951 0.496674 0.105385
H40   H     H_    0.109905 0.446785 0.500336 0.121652
H41   H     H_    0.946497 0.568508 0.402707 0.109803
H42   H     H_    0.509305 0.112139 0.678913 0.121628
H43   H     H_    0.508819 0.105190 0.804244 0.134510
H44   H     H_    0.969182 0.997325 0.808089 0.172186
H45   H     H_    0.970385 0.167360 0.812999 0.126393
H46   H     H_    0.966954 0.176838 0.685670 0.128512
O1    O     O_R   0.507380 0.255700 0.581440 -0.535264
O2    O     O_R   0.837170 0.593410 0.915250 -0.532060
O3    O     O_R   0.065200 0.635530 0.931570 -0.503040
O4    O     O_R   0.280320 0.527350 0.578930 -0.510906
O5    O     O_R   0.068260 0.828890 0.091840 -0.521764
O6    O     O_R   0.798870 0.057410 0.079340 -0.506292
O7    O     O_R   0.584930 0.080350 0.076780 -0.526132
O8    O     O_R   0.626960 0.809650 0.067060 -0.509033
O9    O     O_R   0.816040 0.596610 0.076510 -0.521479
O10   O     O_R   0.045610 0.638500 0.081060 -0.508176
O11   O     O_3   0.833640 0.833710 0.001100 -0.252140
O12   O     O_R   0.524480 0.695810 0.424040 -0.510762
O13   O     O_R   0.260510 0.739590 0.584590 -0.533585
O14   O     O_R   0.532300 0.695080 0.573820 -0.512347
O15   O     O_R   0.744840 0.503500 0.576370 -0.530738
O16   O     O_R   0.699120 0.276560 0.571960 -0.500055
O17   O     O_R   0.498940 0.256500 0.419860 -0.519497
O18   O     O_R   0.272500 0.528080 0.429150 -0.515973
O19   O     O_R   0.252060 0.740380 0.423010 -0.525809
O20   O     O_R   0.736390 0.504290 0.414790 -0.518680
O21   O     O_R   0.691300 0.277290 0.422170 -0.506312
O22   O     O_3   0.499990 0.499990 0.499980 -0.246424
O23   O     O_R   0.089400 0.825690 0.930570 -0.532828
O24   O     O_R   0.818460 0.054440 0.929850 -0.502551
O25   O     O_R   0.606060 0.077150 0.915510 -0.535740
O26   O     O_R   0.646550 0.806680 0.917570 -0.510501

loop_
_geom_bond_atom_site_label_1
_geom_bond_atom_site_label_2
_ccdc_geom_bond_type
Cr3   O21   S    
C21   C26   A    
C34   C56   S    
C8    C13   A    
C29   C33   S    
Cr6   O3    S    
C27   C29   A    
C11   C13   A    
C41   C42   A    
C2    C7    A    
C43   H26   S    
C43   C44   S    
C16   O16   A    
Cr6   O11   S    
C15   H9    S    
C3    C64   A    
C12   C23   S    
C45   C57   S    
C37   C38   A    
C30   C35   S    
Cr6   O10   S    
C53   O10   A    
C10   C15   S    
C33   H19   S    
C12   H33   S    
C41   H24   S    
C20   C25   S    
C10   C17   A    
C47   O25   A    
C25   H15   S    
C52   O21   A    
C48   O26   A    
C18   C19   A    
C37   C42   A    
Cr2   O14   S    
C1    O4    A    
C56   H36   S    
C59   H37   S    
Cr4   O5    S    
C32   H18   S    
C15   H8    S    
C8    C9    A    
C31   H17   S    
C40   O20   A    
C41   C46   A    
Cr5   O8    S    
C56   H12   S    
C29   C30   A    
C24   H13   S    
C31   C36   A    
C36   C52   S    
C27   C50   S    
C37   C53   S    
Cr3   O22   S    
C59   C60   A    
C18   C22   A    
C21   C22   A    
Cr2   O19   S    
C18   C51   S    
C6    H2    S    
C4    C34   S    
C35   H21   S    
C38   C39   A    
C57   H31   S    
C13   H5    S    
Cr4   O24   S    
Cr6   O9    S    
C50   O6    A    
C43   H28   S    
C48   O2    A    
C53   O5    A    
C42   H25   S    
C55   H16   S    
C47   C64   S    
C50   O7    A    
C44   H30   S    
C58   C59   A    
Cr4   O11   S    
C5    H45   S    
C60   C61   A    
Cr2   O13   S    
Cr1   O17   S    
C9    C14   S    
C62   C63   A    
C45   H32   S    
C4    O14   A    
Cr5   O11   S    
C54   H1    S    
C31   C32   A    
C47   O24   A    
C49   O3    A    
Cr6   O2    S    
C34   C55   S    
C34   C45   S    
C14   H7    S    
C24   C25   S    
Cr2   O12   S    
Cr1   O22   S    
C12   C56   S    
C39   C46   A    
C54   H4    S    
C5    C65   S    
C7    C16   S    
C5    H44   S    
C33   H20   S    
C25   C58   S    
C61   H39   S    
Cr1   O4    S    
C45   H34   S    
C23   C54   S    
Cr5   O25   S    
C9    C10   A    
C35   H22   S    
Cr3   O20   S    
C23   C57   S    
C40   O12   A    
C54   C55   S    
C11   C17   A    
Cr4   O23   S    
Cr3   O15   S    
C23   C48   S    
C27   C32   A    
C28   O18   A    
C51   O8    A    
C28   O19   A    
C58   C63   A    
C1    O13   A    
C12   H35   S    
C44   H29   S    
C39   C44   S    
C49   O23   A    
C4    O15   A    
C1    C17   S    
C30   C36   A    
C28   C46   S    
C51   O9    A    
C64   C65   A    
C19   C20   A    
Cr1   O1    S    
C19   C24   S    
C38   C43   S    
Cr3   O16   S    
C3    H43   S    
C22   H11   S    
C7    C66   A    
C2    H42   S    
C26   C40   S    
C5    C6    S    
C20   C26   A    
C60   H38   S    
C33   C35   S    
C2    C3    A    
C14   H6    S    
C61   C62   A    
Cr1   O18   S    
Cr2   O22   S    
C63   H41   S    
Cr4   O6    S    
C6    C66   S    
C62   H40   S    
C21   H10   S    
C65   C66   A    
C57   H23   S    
C55   H27   S    
C52   O17   A    
C14   C15   S    
Cr5   O7    S    
C11   H3    S    
C24   H14   S    
C8    C49   S    
C6    H46   S    
C16   O1    A    
Cr5   O26   S    
