data_mof_unit_996.cif
_audit_creation_date              2012-12-10T16:55:01-0500
_audit_creation_method            fapswitch 2.2
_symmetry_space_group_name_H-M    P1
_symmetry_Int_Tables_number       1
_space_group_crystal_system       triclinic
_cell_length_a                    9.79123
_cell_length_b                    10.927487
_cell_length_c                    15.431956
_cell_angle_alpha                 88.76769
_cell_angle_beta                  74.15852
_cell_angle_gamma                 90.209371
_cell_volume                      1587.9658315

loop_
_atom_site_label
_atom_site_type_symbol
_atom_type_description
_atom_site_fract_x
_atom_site_fract_y
_atom_site_fract_z
_atom_type_partial_charge
C1    C     C_R   0.999607 0.265669 0.499012 0.881769
C2    C     C_R   0.689036 0.539778 0.914461 0.023665
C3    C     C_R   0.771835 0.464801 0.956502 0.106399
C4    C     C_R   0.551848 0.575759 0.968321 0.063219
C5    C     C_R   0.486484 0.510172 0.050655 0.003182
C6    C     C_R   0.566628 0.418357 0.081584 -0.040013
C7    C     C_R   0.711690 0.409687 0.040492 -0.197728
C8    C     C_R   0.476848 0.674378 0.943285 -0.120555
C9    C     C_R   0.331491 0.685235 0.979900 -0.153772
C10   C     C_R   0.262539 0.613939 0.054771 0.131110
C11   C     C_R   0.343042 0.538732 0.097254 0.097537
C12   C     C_R   0.917717 0.505965 0.672033 0.827330
C13   C     C_R   0.115388 0.622088 0.090978 -0.189884
C14   C     C_R   0.048992 0.565901 0.174358 -0.108940
C15   C     C_R   0.280148 0.504547 0.187466 -0.129419
C16   C     C_2   0.898880 0.932400 0.497848 -0.309583
C17   C     C_2   0.015159 0.863228 0.470155 0.240590
C18   C     C_2   0.898995 0.063715 0.479420 0.005278
C19   C     C_2   0.995011 0.133304 0.504627 -0.273500
C20   C     C_2   0.406393 0.414255 0.537905 0.044460
C21   C     C_2   0.550644 0.431431 0.553394 -0.050964
C22   C     C_R   0.003242 0.733868 0.493694 0.785960
C23   C     C_R   0.083230 0.501723 0.327322 0.822649
C24   C     C_R   0.874761 0.512725 0.771558 -0.121296
C25   C     C_R   0.133972 0.518465 0.227762 -0.127802
C26   C     C_R   0.910699 0.433647 0.910689 -0.183416
C27   C     C_R   0.961407 0.456963 0.819034 -0.168663
C28   C     C_R   0.743446 0.564490 0.819202 -0.052508
Cu1   Cu    Cu3+1 0.138640 0.500020 0.499980 1.034086
Cu2   Cu    Cu3+1 0.861360 0.499980 0.500020 1.062954
H1    H     H_    0.773997 0.344686 0.067453 0.183071
H2    H     H_    0.052190 0.669712 0.053322 0.164849
H3    H     H_    0.798769 0.891376 0.536266 0.186142
H4    H     H_    0.070098 0.090442 0.535928 0.185838
H5    H     H_    0.391897 0.584591 0.494071 0.198245
H6    H     H_    0.346658 0.473554 0.228690 0.162896
H7    H     H_    0.274302 0.753946 0.952488 0.159070
H8    H     H_    0.976071 0.381143 0.944155 0.159074
H9    H     H_    0.064621 0.422039 0.784162 0.219453
H10   H     H_    0.528441 0.744083 0.894848 0.157463
N1    N     N_2   0.346430 0.498660 0.500980 -0.309121
N2    N     N_2   0.652550 0.498630 0.501000 -0.287788
O1    O     O_R   0.117050 0.321960 0.499980 -0.562143
O2    O     O_R   0.882890 0.321920 0.500020 -0.530660
O3    O     O_R   0.052910 0.500040 0.629810 -0.551106
O4    O     O_R   0.818750 0.499990 0.629840 -0.570174
O5    O     O_R   0.117110 0.678080 0.499980 -0.571573
O6    O     O_R   0.882950 0.678040 0.500020 -0.568014
O7    O     O_R   0.181250 0.500010 0.370160 -0.566612
O8    O     O_R   0.947090 0.499960 0.370190 -0.564827
S1    S     S_3+6 0.177267 0.915384 0.393285 0.050131
O9    O     O_2   0.151461 0.017124 0.332730 -0.239794
O10   O     O_2   0.276158 0.960783 0.445145 -0.245287
O11   O     O_3   0.254368 0.799028 0.328407 -0.507152
H11   H     H_    0.327489 0.766933 0.356112 0.372007
C29   C     C_2   0.793287 0.110374 0.433893 0.983053
O12   O     O_2   0.674373 0.064552 0.452582 -0.512366
O13   O     O_R   0.831398 0.201319 0.366339 -0.737108
H12   H     H_    0.749899 0.223976 0.340504 0.381886
C30   C     C_2   0.333564 0.296752 0.569690 0.944957
O14   O     O_2   0.378634 0.202841 0.530744 -0.514718
O15   O     O_R   0.218917 0.292220 0.646977 -0.753914
H13   H     H_    0.179573 0.206208 0.662868 0.318481
C31   C     C_2   0.568118 0.369467 0.636424 0.926739
O16   O     O_2   0.480882 0.387523 0.708371 -0.553720
O17   O     O_R   0.671487 0.280797 0.632218 -0.738949
H14   H     H_    0.668474 0.243603 0.693483 0.322850
C32   C     C_2   0.640142 0.542887 0.415887 1.027067
O18   O     O_2   0.683304 0.645858 0.389680 -0.545901
O19   O     O_R   0.582755 0.468634 0.361490 -0.719627
H15   H     H_    0.571710 0.513815 0.305758 0.356778
C33   C     C_2   0.893065 0.552871 0.200601 0.902869
O20   O     O_2   0.819268 0.640514 0.194028 -0.517245
O21   O     O_R   0.829135 0.438548 0.226749 -0.711364
H16   H     H_    0.900443 0.370502 0.222732 0.318746
C34   C     C_2   0.665730 0.636560 0.765563 0.827581
O22   O     O_2   0.546979 0.605051 0.763223 -0.546749
O23   O     O_R   0.731541 0.738918 0.715205 -0.776978
H17   H     H_    0.669167 0.780074 0.680724 0.336549
C35   C     C_2   0.502441 0.316717 0.145409 0.841388
O24   O     O_2   0.561783 0.279424 0.200951 -0.520776
O25   O     O_R   0.376658 0.260585 0.139711 -0.742572
H18   H     H_    0.343697 0.192432 0.186497 0.376911

loop_
_geom_bond_atom_site_label_1
_geom_bond_atom_site_label_2
_ccdc_geom_bond_type
C8    C9    A    
C22   O6    A    
C13   H2    S    
C24   C27   A    
C4    C8    A    
C17   S1    S    
C20   N1    D    
Cu1   O7    S    
C26   C27   A    
Cu1   Cu2   S    
Cu1   O5    S    
Cu2   O6    S    
C34   O23   S    
C5    C11   A    
C3    C7    A    
C5    C6    A    
C35   O24   D    
C15   C25   A    
C29   O12   D    
C30   O15   S    
C18   C19   D    
C21   C31   S    
C32   O18   D    
C11   C15   A    
C1    O1    A    
C27   H9    S    
C16   C17   D    
O19   H15   S    
C20   C30   S    
C9    C10   A    
C18   C29   S    
C33   O20   D    
C22   O5    A    
Cu2   O8    S    
C13   C14   A    
Cu1   O1    S    
N2    C32   S    
Cu2   O2    S    
C1    C19   S    
C7    H1    S    
O21   H16   S    
S1    O9    D    
C34   O22   D    
C33   O21   S    
O23   H17   S    
C4    C5    A    
C23   O8    A    
O13   H12   S    
C19   H4    S    
Cu1   O3    S    
C30   O14   D    
S1    O10   D    
C31   O17   S    
C2    C4    A    
O15   H13   S    
C16   H3    S    
C1    O2    A    
C6    C35   S    
C9    H7    S    
C12   O4    A    
C28   C34   S    
C15   H6    S    
O11   H11   S    
Cu1   N1    S    
C14   C33   S    
Cu2   O4    S    
C3    C26   A    
C26   H8    S    
C24   C28   A    
C12   O3    A    
C10   C13   A    
C6    C7    A    
C12   C24   S    
C17   C22   S    
S1    O11   S    
C31   O16   D    
C2    C3    A    
C35   O25   S    
C29   O13   S    
O17   H14   S    
C23   C25   S    
C14   C25   A    
H5    N1    S    
C23   O7    A    
C10   C11   A    
C21   N2    D    
C20   C21   S    
C16   C18   S    
O25   H18   S    
C32   O19   S    
Cu2   N2    S    
C2    C28   A    
C8    H10   S    
