data_mof_unit_4472.cif
_audit_creation_date              2012-10-26T18:34:00-0400
_audit_creation_method            fapswitch 2.2
_symmetry_space_group_name_H-M    P1
_symmetry_Int_Tables_number       1
_space_group_crystal_system       triclinic
_cell_length_a                    11.194292
_cell_length_b                    10.764518
_cell_length_c                    9.60916
_cell_angle_alpha                 89.49873
_cell_angle_beta                  101.527006
_cell_angle_gamma                 92.051991
_cell_volume                      1133.83144347

loop_
_atom_site_label
_atom_site_type_symbol
_atom_type_description
_atom_site_fract_x
_atom_site_fract_y
_atom_site_fract_z
_atom_type_partial_charge
C1    C     C_R   0.499401 0.262821 0.500330 0.587199
C2    C     C_2   0.870548 0.504453 0.581170 0.006792
C3    C     C_2   0.063560 0.530312 0.493062 0.094592
C4    C     C_2   0.931876 0.499926 0.471481 0.096050
C5    C     C_R   0.398277 0.062062 0.424857 0.049578
C6    C     C_R   0.602570 0.937865 0.574752 0.052404
C7    C     C_R   0.398886 0.932223 0.422261 -0.056400
C8    C     C_R   0.602277 0.067804 0.576526 -0.054964
C9    C     C_R   0.500637 0.871187 0.498439 0.018306
C10   C     C_R   0.500027 0.128780 0.501397 0.017515
C11   C     C_1   0.934770 0.516077 0.727637 0.240232
C12   C     C_R   0.500902 0.737169 0.499701 0.588720
C13   C     C_1   0.090519 0.372697 0.316482 0.247572
C14   C     C_1   0.294459 0.862302 0.343173 0.184878
C15   C     C_1   0.707890 0.137996 0.652503 0.192890
C16   C     C_R   0.264745 0.496845 0.443652 0.537562
C17   C     C_R   0.736541 0.499034 0.555803 0.546026
C18   C     C_R   0.431074 0.414317 0.060748 0.242817
C19   C     C_R   0.568774 0.585822 0.939344 0.242993
C20   C     C_R   0.431761 0.412794 0.912960 0.183267
C21   C     C_R   0.565953 0.588940 0.086612 0.176037
C22   C     C_2   0.134618 0.472683 0.416002 0.015519
Cu1   Cu    Cu3+1 0.500000 0.500020 0.640660 0.999365
Cu2   Cu    Cu3+1 0.500000 0.499980 0.359340 0.996786
H1    H     H_    0.823561 0.544636 0.279494 0.263583
H2    H     H_    0.421936 0.246174 0.812350 0.255900
H3    H     H_    0.670401 0.668870 0.265612 0.278319
H4    H     H_    0.560129 0.759315 0.171216 0.252656
H5    H     H_    0.218963 0.098794 0.397730 0.246622
H6    H     H_    0.275034 0.102382 0.246580 0.252095
H7    H     H_    0.781789 0.900197 0.601691 0.244401
H8    H     H_    0.726026 0.898088 0.753050 0.245709
H9    H     H_    0.820195 0.387014 0.323973 0.264166
H10   H     H_    0.170261 0.600788 0.675323 0.264006
H11   H     H_    0.156630 0.697644 0.531749 0.250715
H12   H     H_    0.383065 0.236690 0.098965 0.227514
H13   H     H_    0.265856 0.335288 0.067580 0.251578
H14   H     H_    0.615476 0.763429 0.898920 0.228969
H15   H     H_    0.733745 0.666313 0.934703 0.243449
H16   H     H_    0.308108 0.345911 0.740059 0.279471
N1    N     N_R   0.500030 0.500030 0.852080 -0.220261
N2    N     N_3   0.625590 0.694009 0.164797 -0.650731
N3    N     N_3   0.293682 0.127405 0.353792 -0.598211
N4    N     N_3   0.707070 0.872387 0.646042 -0.602139
N5    N     N_1   0.211210 0.806559 0.279731 -0.280434
N6    N     N_1   0.792177 0.194054 0.713120 -0.280264
N7    N     N_R   0.499970 0.499970 0.147920 -0.221850
N8    N     N_3   0.872302 0.469998 0.327851 -0.610689
N9    N     N_3   0.110548 0.633101 0.585711 -0.618029
N10   N     N_3   0.356519 0.325747 0.119410 -0.521348
N11   N     N_3   0.643454 0.674391 0.880869 -0.523010
N12   N     N_1   0.985609 0.525109 0.844652 -0.260518
N13   N     N_1   0.055738 0.293023 0.236940 -0.268143
N14   N     N_3   0.363005 0.313653 0.832355 -0.645091
O1    O     O_R   0.499990 0.319660 0.618740 -0.521364
O2    O     O_R   0.500010 0.680340 0.381260 -0.523153
O3    O     O_R   0.499990 0.319630 0.381170 -0.458595
O4    O     O_R   0.500010 0.680370 0.618830 -0.458046
O5    O     O_R   0.320690 0.500020 0.575130 -0.543756
O6    O     O_R   0.679310 0.499980 0.424870 -0.542198
O7    O     O_R   0.320680 0.499990 0.337560 -0.453704
O8    O     O_R   0.679320 0.500010 0.662440 -0.453353

loop_
_geom_bond_atom_site_label_1
_geom_bond_atom_site_label_2
_ccdc_geom_bond_type
H11   N9    S    
Cu1   O4    S    
C2    C4    D    
Cu1   Cu2   S    
C20   N14   S    
Cu1   O1    S    
Cu2   O7    S    
H14   N11   S    
C1    O3    A    
C17   O8    A    
Cu2   O2    S    
C5    C7    A    
C3    C22   D    
H16   N14   S    
Cu1   N1    S    
Cu2   O6    S    
C12   O4    A    
C18   N7    A    
C6    C9    A    
C20   N1    A    
C5    N3    S    
C19   N1    A    
C5    C10   A    
C6    N4    S    
H5    N3    S    
C2    C17   S    
Cu1   O5    S    
H13   N10   S    
H3    N2    S    
C12   O2    A    
C2    C11   S    
H2    N14   S    
H4    N2    S    
C19   C21   A    
C13   C22   S    
C1    O1    A    
C14   N5    T    
C13   N13   T    
Cu1   O8    S    
H8    N4    S    
C9    C12   S    
H6    N3    S    
C16   O7    A    
C17   O6    A    
C21   N2    S    
C3    N9    S    
C19   N11   S    
H12   N10   S    
C18   N10   S    
C18   C20   A    
C8    C10   A    
H7    N4    S    
C4    N8    S    
C7    C9    A    
H9    N8    S    
H10   N9    S    
C6    C8    A    
C11   N12   T    
C15   N6    T    
H15   N11   S    
Cu2   N7    S    
H1    N8    S    
C8    C15   S    
C7    C14   S    
C1    C10   S    
C3    C4    S    
C16   C22   S    
Cu2   O3    S    
C21   N7    A    
C16   O5    A    
