data_mof_unit_2005.cif
_audit_creation_date              2012-12-10T17:50:40-0500
_audit_creation_method            fapswitch 2.2
_symmetry_space_group_name_H-M    P1
_symmetry_Int_Tables_number       1
_space_group_crystal_system       triclinic
_cell_length_a                    15.708689
_cell_length_b                    10.632146
_cell_length_c                    9.933732
_cell_angle_alpha                 89.912688
_cell_angle_beta                  89.922845
_cell_angle_gamma                 91.659076
_cell_volume                      1658.40382591

loop_
_atom_site_label
_atom_site_type_symbol
_atom_type_description
_atom_site_fract_x
_atom_site_fract_y
_atom_site_fract_z
_atom_type_partial_charge
C1    C     C_R   0.502182 0.260763 0.500115 0.845215
C2    C     C_R   0.711434 0.074176 0.684796 -0.137613
C3    C     C_R   0.711529 0.943310 0.684552 -0.143655
C4    C     C_R   0.338018 0.499550 0.500072 0.890562
C5    C     C_R   0.644928 0.874878 0.624023 -0.189099
C6    C     C_R   0.576216 0.937211 0.563816 0.095050
C7    C     C_R   0.576084 0.069094 0.564121 0.097878
C8    C     C_R   0.508011 0.128676 0.499937 -0.084025
C9    C     C_R   0.443832 0.061924 0.432305 -0.218309
C10   C     C_R   0.443975 0.933409 0.432019 -0.201322
C11   C     C_R   0.508288 0.871988 0.499363 -0.097224
C12   C     C_3   0.082543 0.497302 0.500667 0.211303
C13   C     C_R   0.388903 0.334342 0.140260 -0.145179
C14   C     C_R   0.334409 0.252381 0.070409 -0.199770
C15   C     C_R   0.334406 0.252377 0.931067 -0.190761
C16   C     C_R   0.502468 0.739403 0.499866 0.865583
C17   C     C_R   0.388928 0.334291 0.860689 -0.142046
C18   C     C_R   0.445339 0.418301 0.927996 0.165245
C19   C     C_R   0.445339 0.418345 0.072462 0.169209
C20   C     C_R   0.552299 0.578181 0.071171 -0.109524
C21   C     C_R   0.552279 0.578155 0.928198 -0.109302
C22   C     C_R   0.661974 0.500291 0.499954 0.878848
C23   C     C_3   0.973829 0.600034 0.566044 -0.167722
C24   C     C_3   0.969486 0.393194 0.562707 -0.167183
C25   C     C_3   0.026026 0.395023 0.435023 -0.166840
C26   C     C_1   0.248949 0.498487 0.500324 -0.188538
C27   C     C_1   0.750986 0.499416 0.499925 -0.191084
C28   C     C_3   0.027831 0.495465 0.628355 -0.164357
C29   C     C_3   0.917303 0.497786 0.500393 0.211962
C30   C     C_3   0.030316 0.601856 0.438379 -0.163678
C31   C     C_3   0.972018 0.499603 0.372728 -0.160391
C32   C     C_1   0.173534 0.497690 0.500552 -0.086498
C33   C     C_1   0.826356 0.498553 0.500124 -0.085644
C34   C     C_R   0.644707 0.137075 0.624590 -0.172330
H1    H     H_    0.049576 0.311260 0.381503 0.129216
H2    H     H_    0.942355 0.307962 0.613474 0.128530
H3    H     H_    0.947017 0.501307 0.268276 0.132458
H4    H     H_    0.057354 0.687120 0.387578 0.130916
H5    H     H_    0.950273 0.683811 0.619544 0.128597
H6    H     H_    0.052847 0.493750 0.732798 0.133488
H7    H     H_    0.392596 0.109589 0.382144 0.136584
H8    H     H_    0.648300 0.238706 0.624211 0.152854
H9    H     H_    0.763648 0.127188 0.730544 0.132276
H10   H     H_    0.763806 0.894653 0.730137 0.130546
H11   H     H_    0.648683 0.773512 0.623116 0.141365
H12   H     H_    0.392818 0.881439 0.381737 0.151925
H13   H     H_    0.595060 0.642164 0.124496 0.148167
H14   H     H_    0.384759 0.329183 0.247011 0.196585
H15   H     H_    0.291779 0.188655 0.124935 0.142092
H16   H     H_    0.291752 0.188665 0.876966 0.146922
H17   H     H_    0.384860 0.329125 0.753930 0.201406
H18   H     H_    0.595010 0.642146 0.874397 0.145304
N1    N     N_R   0.499210 0.498800 0.142780 -0.121692
N2    N     N_R   0.499180 0.498720 0.857170 -0.121224
O1    O     O_R   0.500000 0.316780 0.614690 -0.641263
O2    O     O_R   0.499990 0.316750 0.385360 -0.629250
O3    O     O_R   0.376780 0.500000 0.614650 -0.627335
O4    O     O_R   0.376770 0.499980 0.385310 -0.632212
O5    O     O_R   0.500010 0.683250 0.614640 -0.614840
O6    O     O_R   0.500000 0.683220 0.385310 -0.612055
O7    O     O_R   0.623230 0.500020 0.614690 -0.626574
O8    O     O_R   0.623220 0.500000 0.385350 -0.605353
Zn1   Zn    Zn3+2 0.500010 0.500020 0.653130 0.932866
Zn2   Zn    Zn3+2 0.499990 0.499980 0.346870 0.940939

loop_
_geom_bond_atom_site_label_1
_geom_bond_atom_site_label_2
_ccdc_geom_bond_type
C4    O3    A    
C10   H12   S    
C13   H14   S    
C4    C26   S    
O2    Zn2   S    
C26   C32   T    
C6    C7    A    
C22   O8    A    
C1    C8    S    
C9    C10   A    
C12   C25   S    
O5    Zn1   S    
C34   H8    S    
C2    H9    S    
O6    Zn2   S    
C20   C21   A    
C17   H17   S    
C14   C15   A    
C17   C18   A    
C1    O1    A    
C7    C8    A    
C29   C31   S    
C13   C14   A    
C27   C33   T    
C22   O7    A    
C30   C31   S    
C19   N1    A    
C24   H2    S    
C5    H11   S    
C25   H1    S    
C23   H5    S    
C5    C6    A    
C23   C29   S    
N1    Zn2   S    
C1    O2    A    
C12   C28   S    
O3    Zn1   S    
C2    C3    A    
C22   C27   S    
O4    Zn2   S    
C21   N2    A    
C7    C34   A    
C3    H10   S    
C14   H15   S    
C10   C11   A    
C28   H6    S    
C20   H13   S    
C23   C30   S    
C29   C33   S    
C24   C29   S    
C24   C25   S    
C30   H4    S    
O7    Zn1   S    
C18   C19   A    
C11   C16   S    
C15   H16   S    
C4    O4    A    
C6    C11   A    
C15   C17   A    
C18   N2    A    
N2    Zn1   S    
C8    C9    A    
C13   C19   A    
O8    Zn2   S    
C12   C30   S    
C2    C34   A    
C23   C28   S    
C16   O6    A    
C9    H7    S    
C25   C31   S    
C21   H18   S    
C12   C32   S    
C24   C28   S    
C31   H3    S    
C20   N1    A    
C3    C5    A    
C16   O5    A    
O1    Zn1   S    
