data_mof_unit_935.cif
_audit_creation_date              2012-12-11T16:51:16-0500
_audit_creation_method            fapswitch 2.2
_symmetry_space_group_name_H-M    P1
_symmetry_Int_Tables_number       1
_space_group_crystal_system       triclinic
_cell_length_a                    24.118779
_cell_length_b                    17.026519
_cell_length_c                    15.456426
_cell_angle_alpha                 89.880202
_cell_angle_beta                  128.307123
_cell_angle_gamma                 89.737423
_cell_volume                      4980.58549325

loop_
_atom_site_label
_atom_site_type_symbol
_atom_type_description
_atom_site_fract_x
_atom_site_fract_y
_atom_site_fract_z
_atom_type_partial_charge
C1    C     C_R   0.832169 0.895721 0.196887 -0.077368
C2    C     C_R   0.168670 0.897697 0.803789 -0.047248
C3    C     C_R   0.332492 0.394571 0.197430 -0.064225
C4    C     C_R   0.667681 0.391764 0.801025 -0.090948
C5    C     C_R   0.884317 0.101740 0.592610 -0.069974
C6    C     C_R   0.115414 0.102111 0.407278 -0.065924
C7    C     C_R   0.384024 0.601024 0.592382 -0.083470
C8    C     C_R   0.615878 0.600823 0.407494 -0.098148
C9    C     C_R   0.814321 0.115652 0.502476 0.112377
C10   C     C_R   0.185281 0.115877 0.497531 0.112791
C11   C     C_R   0.313828 0.613983 0.502140 0.127797
C12   C     C_R   0.685650 0.614996 0.497542 0.127028
C13   C     C_R   0.880613 0.182625 0.204380 0.014328
C14   C     C_R   0.114375 0.185439 0.785793 -0.036726
C15   C     C_R   0.392944 0.693916 0.235875 -0.030190
C16   C     C_R   0.614048 0.685791 0.785053 -0.039896
C17   C     C_R   0.861259 0.688725 0.595155 -0.033590
C18   C     C_R   0.137921 0.687877 0.404904 -0.030762
C19   C     C_R   0.360666 0.190308 0.595540 -0.020018
C20   C     C_R   0.638166 0.189503 0.404233 -0.014182
C21   C     C_R   0.841915 0.726616 0.499513 -0.073534
C22   C     C_R   0.157645 0.725091 0.501010 -0.083577
C23   C     C_R   0.341559 0.227142 0.499583 -0.079145
C24   C     C_R   0.657195 0.225945 0.500039 -0.088379
C25   C     C_R   0.787160 0.689389 0.399552 0.328024
C26   C     C_R   0.212225 0.686021 0.600486 0.335709
C27   C     C_R   0.287162 0.189293 0.400041 0.327120
C28   C     C_R   0.711235 0.187188 0.599563 0.348664
C29   C     C_R   0.235907 0.144843 0.397246 0.397406
C30   C     C_R   0.763297 0.143152 0.603152 0.396164
C31   C     C_R   0.735689 0.645087 0.396361 0.377752
C32   C     C_R   0.263264 0.640651 0.602882 0.378172
C33   C     C_R   0.245294 0.132472 0.496741 -0.065520
C34   C     C_R   0.754152 0.131505 0.503584 -0.073634
C35   C     C_R   0.745531 0.631361 0.495984 -0.040163
C36   C     C_R   0.253630 0.629003 0.503410 -0.039165
C37   C     C_R   0.314186 0.143456 0.594175 -0.149442
C38   C     C_R   0.684950 0.142196 0.405963 -0.147394
C39   C     C_R   0.814823 0.640830 0.592885 -0.170921
C40   C     C_R   0.184352 0.639606 0.406721 -0.169022
C41   C     C_3   0.854895 0.644447 0.714764 0.236268
C42   C     C_3   0.144689 0.644587 0.285109 0.231618
C43   C     C_3   0.354767 0.147936 0.716596 0.243070
C44   C     C_3   0.645267 0.149464 0.283809 0.230836
C45   C     C_R   0.085267 0.852329 0.408902 -0.075067
C46   C     C_R   0.914842 0.852494 0.591818 -0.070162
C47   C     C_R   0.585329 0.352886 0.408444 -0.064043
C48   C     C_R   0.414318 0.352821 0.591556 -0.062749
C49   C     C_3   0.907010 0.699444 0.717387 0.306020
C50   C     C_3   0.092596 0.700066 0.282643 0.317934
C51   C     C_3   0.406548 0.202201 0.717240 0.315813
C52   C     C_3   0.593282 0.203953 0.282995 0.322926
C53   C     C_2   0.201020 0.868665 0.990887 -0.277247
C54   C     C_2   0.802998 0.863457 0.015229 -0.399581
C55   C     C_2   0.695073 0.342739 0.978882 -0.316329
C56   C     C_2   0.303909 0.361531 0.016512 -0.403631
C57   C     C_2   0.262470 0.830571 0.035644 0.432826
C58   C     C_2   0.761046 0.800969 0.983681 0.511087
C59   C     C_2   0.764266 0.359969 0.048922 0.493108
C60   C     C_2   0.262096 0.298972 0.984495 0.506635
C61   C     C_2   0.852813 0.255602 0.137157 0.395039
C62   C     C_2   0.142857 0.256372 0.854865 0.502403
C63   C     C_2   0.374670 0.775775 0.191793 0.463273
C64   C     C_2   0.642216 0.757063 0.853575 0.505386
C65   C     C_2   0.811132 0.305307 0.142491 0.261537
C66   C     C_2   0.197717 0.291843 0.869718 0.334553
C67   C     C_2   0.311513 0.806301 0.153917 0.359560
C68   C     C_2   0.697111 0.792728 0.868651 0.330899
C69   C     C_R   0.161725 0.854287 0.591851 -0.042056
C70   C     C_R   0.838263 0.855206 0.408789 -0.045582
C71   C     C_R   0.661599 0.354276 0.591313 -0.016206
C72   C     C_R   0.338070 0.355350 0.408589 -0.007717
C73   C     C_R   0.078301 0.900177 0.806959 0.540120
C74   C     C_R   0.922723 0.901006 0.193932 0.586316
C75   C     C_R   0.576950 0.394080 0.803920 0.550583
C76   C     C_R   0.423330 0.399040 0.194937 0.570900
C77   C     C_R   0.852217 0.881846 0.131959 -0.003202
C78   C     C_R   0.150143 0.882323 0.870664 0.087683
C79   C     C_R   0.352994 0.379378 0.133312 -0.001692
C80   C     C_R   0.647975 0.373262 0.865424 0.074477
C81   C     C_R   0.134986 0.806546 0.500556 0.074689
C82   C     C_R   0.865066 0.807391 0.500386 0.073211
C83   C     C_R   0.634775 0.307059 0.499771 0.072782
C84   C     C_R   0.364681 0.307717 0.500122 0.067911
C85   C     C_R   0.810718 0.101907 0.410651 -0.132568
C86   C     C_R   0.189037 0.101807 0.589379 -0.139518
C87   C     C_R   0.310461 0.600981 0.410475 -0.111100
C88   C     C_R   0.689081 0.601912 0.589476 -0.102980
C89   C     C_R   0.940883 0.140313 0.238963 -0.119840
C90   C     C_R   0.056000 0.142081 0.754800 -0.111164
C91   C     C_R   0.447935 0.647042 0.257565 -0.093086
C92   C     C_R   0.555773 0.642294 0.754255 -0.109145
C93   C     C_R   0.148800 0.141902 0.755581 -0.039369
C94   C     C_R   0.848168 0.140030 0.238375 -0.037189
C95   C     C_R   0.648624 0.642113 0.755221 -0.019382
C96   C     C_R   0.355309 0.646537 0.256011 -0.063277
H1    H     H_    0.778309 0.899668 0.167941 0.183494
H2    H     H_    0.221591 0.907043 0.831130 0.154345
H3    H     H_    0.278516 0.398645 0.167934 0.182071
H4    H     H_    0.720863 0.392449 0.827125 0.201077
H5    H     H_    0.826162 0.676754 0.738633 0.018733
H6    H     H_    0.173615 0.676789 0.261725 0.022259
H7    H     H_    0.326159 0.180704 0.740394 0.022600
H8    H     H_    0.674598 0.182598 0.261843 0.028149
H9    H     H_    0.904478 0.759863 0.741733 0.006703
H10   H     H_    0.095324 0.760630 0.258759 0.008168
H11   H     H_    0.403932 0.262897 0.740637 0.002481
H12   H     H_    0.596584 0.264969 0.261200 -0.001012
H13   H     H_    0.187791 0.889939 0.042147 0.123177
H14   H     H_    0.794299 0.906472 0.955847 0.168457
H15   H     H_    0.673903 0.297775 0.000996 0.153542
H16   H     H_    0.294771 0.405286 0.957580 0.170815
H17   H     H_    0.053236 0.835048 0.324358 0.179586
H18   H     H_    0.946769 0.834944 0.676581 0.179735
H19   H     H_    0.553404 0.336326 0.323767 0.176123
H20   H     H_    0.445692 0.335554 0.676171 0.178258
H21   H     H_    0.202832 0.840031 0.677210 0.185559
H22   H     H_    0.796900 0.841986 0.323732 0.186759
H23   H     H_    0.702945 0.339581 0.676123 0.168612
H24   H     H_    0.296706 0.342106 0.323523 0.183752
H25   H     H_    0.764138 0.098253 0.326948 0.153544
H26   H     H_    0.235628 0.098217 0.673255 0.153873
H27   H     H_    0.264051 0.597484 0.326302 0.151418
H28   H     H_    0.735355 0.599492 0.673973 0.149560
H29   H     H_    0.978554 0.155520 0.225739 0.121321
H30   H     H_    0.017664 0.157220 0.766747 0.111567
H31   H     H_    0.488051 0.663860 0.250596 0.106571
H32   H     H_    0.517277 0.657528 0.765827 0.109815
H33   H     H_    0.198007 0.154859 0.771022 0.143733
H34   H     H_    0.798558 0.152650 0.222176 0.153894
H35   H     H_    0.697798 0.655177 0.770645 0.137987
H36   H     H_    0.308489 0.661125 0.246857 0.156765
H37   H     H_    0.906443 0.096978 0.677924 0.178289
H38   H     H_    0.093199 0.098072 0.321924 0.176627
H39   H     H_    0.406274 0.596511 0.677775 0.176563
H40   H     H_    0.593937 0.595404 0.322402 0.184502
N1    N     N_R   0.888400 0.921830 0.294620 -0.088322
N2    N     N_R   0.111600 0.921830 0.705380 -0.094432
N3    N     N_R   0.388400 0.421830 0.294620 -0.090591
N4    N     N_R   0.611600 0.421830 0.705380 -0.091833
N5    N     N_R   0.079940 0.922160 0.443410 -0.052209
N6    N     N_R   0.920060 0.922160 0.556590 -0.051545
N7    N     N_R   0.579940 0.422160 0.443410 -0.054001
N8    N     N_R   0.420060 0.422160 0.556590 -0.053922
N9    N     N_R   0.125650 0.922400 0.556620 -0.062988
N10   N     N_R   0.874350 0.922400 0.443380 -0.062722
N11   N     N_R   0.625650 0.422400 0.556620 -0.058945
N12   N     N_R   0.374350 0.422400 0.443380 -0.061345
N13   N     N_R   0.054230 0.922730 0.705400 -0.084652
N14   N     N_R   0.945770 0.922730 0.294600 -0.086713
N15   N     N_R   0.554230 0.422730 0.705400 -0.084973
N16   N     N_R   0.445770 0.422730 0.294600 -0.084770
N17   N     N_R   0.873790 0.077030 0.443380 -0.049929
N18   N     N_R   0.126210 0.077030 0.556620 -0.050023
N19   N     N_R   0.373790 0.577030 0.443380 -0.057161
N20   N     N_R   0.626210 0.577030 0.556620 -0.056268
N21   N     N_R   0.945200 0.076700 0.294600 -0.051719
N22   N     N_R   0.054800 0.076700 0.705400 -0.049358
N23   N     N_R   0.445200 0.576700 0.294600 -0.049617
N24   N     N_R   0.554800 0.576700 0.705400 -0.048739
N25   N     N_R   0.111030 0.077600 0.705380 -0.064570
N26   N     N_R   0.888970 0.077600 0.294620 -0.065267
N27   N     N_R   0.611030 0.577600 0.705380 -0.059896
N28   N     N_R   0.388970 0.577600 0.294620 -0.062731
N29   N     N_R   0.919490 0.077280 0.556590 -0.059036
N30   N     N_R   0.080510 0.077280 0.443410 -0.058881
N31   N     N_R   0.419490 0.577280 0.556590 -0.061404
N32   N     N_R   0.580510 0.577280 0.443410 -0.063458
Ni1   Ni    Ni4+2 0.882160 0.999430 0.370180 0.253456
Ni2   Ni    Ni4+2 0.117840 0.999430 0.629820 0.249604
Ni3   Ni    Ni4+2 0.382160 0.499430 0.370180 0.260321
Ni4   Ni    Ni4+2 0.617840 0.499430 0.629820 0.272831
Ni5   Ni    Ni4+2 0.012460 0.999430 0.370180 0.280199
Ni6   Ni    Ni4+2 0.987540 0.999430 0.629820 0.280884
Ni7   Ni    Ni4+2 0.512460 0.499430 0.370180 0.280228
Ni8   Ni    Ni4+2 0.487540 0.499430 0.629820 0.282978
O1    O     O_3   0.178864 0.111550 0.301052 -0.738410
H41   H     H_    0.168131 0.141341 0.237310 0.351528
O2    O     O_3   0.821025 0.110241 0.700101 -0.738113
H42   H     H_    0.829044 0.137434 0.763413 0.378229
O3    O     O_3   0.678006 0.613247 0.299507 -0.738507
H43   H     H_    0.667256 0.644029 0.236437 0.352759
O4    O     O_3   0.319875 0.604893 0.698203 -0.737633
H44   H     H_    0.331437 0.633813 0.762738 0.357831
S1    S     S_3+6 0.884038 0.547546 0.776393 0.083887
O5    O     O_2   0.929761 0.554993 0.899427 -0.108452
O6    O     O_2   0.821840 0.497446 0.739506 -0.320236
O7    O     O_3   0.929453 0.500805 0.742247 -0.400060
H45   H     H_    0.894154 0.489709 0.662495 0.358598
S2    S     S_3+6 0.115641 0.548336 0.223164 0.081406
O8    O     O_2   0.070431 0.557020 0.100219 -0.110880
O9    O     O_2   0.177886 0.497160 0.260617 -0.324565
O10   O     O_3   0.069674 0.501986 0.256232 -0.401367
H46   H     H_    0.104673 0.489950 0.335984 0.359495
S3    S     S_3+6 0.384397 0.051380 0.779551 0.082227
O11   O     O_2   0.458138 0.054179 0.885981 -0.089502
O12   O     O_2   0.337531 0.020830 0.804964 -0.321796
O13   O     O_3   0.382265 0.988096 0.694028 -0.433510
H47   H     H_    0.331814 0.974251 0.638475 0.341882
S4    S     S_3+6 0.614979 0.054687 0.217434 0.085334
O14   O     O_2   0.541781 0.060917 0.110161 -0.089611
O15   O     O_2   0.662328 0.024153 0.192698 -0.314506
O16   O     O_3   0.615155 0.989459 0.299582 -0.431182
H48   H     H_    0.665392 0.974306 0.356071 0.340451
S5    S     S_3+6 0.996204 0.666231 0.782665 0.062999
O17   O     O_2   0.040243 0.734868 0.798232 -0.308857
O18   O     O_2   0.028536 0.630875 0.893840 -0.166179
O19   O     O_3   0.997340 0.600275 0.702865 -0.449997
H49   H     H_    0.047984 0.587910 0.742447 0.404665
S6    S     S_3+6 0.003293 0.668239 0.216044 0.051678
O20   O     O_2   0.959471 0.737610 0.200511 -0.344840
O21   O     O_2   0.971370 0.634254 0.104727 -0.165705
O22   O     O_3   0.001276 0.601733 0.294695 -0.452107
H50   H     H_    0.950499 0.590565 0.254508 0.399966
S7    S     S_3+6 0.495659 0.169481 0.781369 0.060756
O23   O     O_2   0.527767 0.220894 0.744111 -0.293177
O24   O     O_2   0.539111 0.175569 0.904480 -0.241637
O25   O     O_3   0.497165 0.076577 0.746200 -0.395707
H51   H     H_    0.547943 0.062989 0.789788 0.392833
S8    S     S_3+6 0.503745 0.173144 0.216854 0.055226
O26   O     O_2   0.471985 0.223483 0.255880 -0.310949
O27   O     O_2   0.460687 0.182926 0.094125 -0.244591
O28   O     O_3   0.500965 0.079295 0.247933 -0.392019
H52   H     H_    0.450009 0.067204 0.203604 0.393702
O29   O     O_3   0.804822 0.297879 0.225152 -0.770628
H53   H     H_    0.771347 0.338851 0.213374 0.334848
O30   O     O_3   0.199466 0.299939 0.782273 -0.772608
H54   H     H_    0.247879 0.314972 0.811561 0.320884
O31   O     O_3   0.288715 0.796960 0.216352 -0.778597
H55   H     H_    0.236527 0.798673 0.167627 0.318261
O32   O     O_3   0.699435 0.800114 0.781714 -0.773185
H56   H     H_    0.747872 0.815364 0.811373 0.320542
O33   O     O_3   0.274704 0.799840 0.966662 -0.689407
H57   H     H_    0.312850 0.831817 0.977803 0.368673
O34   O     O_3   0.774460 0.742005 0.056795 -0.666500
H58   H     H_    0.825370 0.740577 0.120647 0.393572
O35   O     O_3   0.791617 0.420735 0.026677 -0.691698
H59   H     H_    0.842962 0.423708 0.088607 0.363754
O36   O     O_3   0.275933 0.239289 0.057011 -0.671036
H60   H     H_    0.327085 0.237432 0.119915 0.392393
O37   O     O_3   0.864088 0.270475 0.061075 -0.731256
H61   H     H_    0.889941 0.225437 0.060409 0.343750
O38   O     O_3   0.129733 0.272128 0.928594 -0.707526
H62   H     H_    0.092853 0.236213 0.914483 0.321260
O39   O     O_3   0.412840 0.813613 0.164896 -0.747213
H63   H     H_    0.460035 0.788785 0.205960 0.336625
O40   O     O_3   0.628535 0.773299 0.926542 -0.710268
H64   H     H_    0.591838 0.737191 0.912673 0.321112
O41   O     O_3   0.040258 0.912412 0.844894 -0.762890
H65   H     H_    0.067933 0.890758 0.920630 0.330834
O42   O     O_3   0.960133 0.914635 0.155272 -0.761768
H66   H     H_    0.930940 0.896876 0.077696 0.336767
O43   O     O_3   0.539827 0.404023 0.843846 -0.764069
H67   H     H_    0.569095 0.383033 0.920159 0.334105
O44   O     O_3   0.460586 0.412187 0.155905 -0.764834
H68   H     H_    0.432015 0.392418 0.079326 0.337383
S9    S     S_3+6 0.791115 0.683463 0.288833 -0.014251
O45   O     O_2   0.861137 0.711866 0.323480 -0.240895
O46   O     O_2   0.782139 0.599254 0.253287 -0.247358
O47   O     O_3   0.725499 0.738297 0.182448 -0.525200
H69   H     H_    0.693899 0.700664 0.122589 0.394273
S10   S     S_3+6 0.209291 0.679631 0.712013 -0.001435
O48   O     O_2   0.142155 0.714306 0.682917 -0.217218
O49   O     O_2   0.213660 0.594562 0.742322 -0.253598
O50   O     O_3   0.279397 0.727529 0.819656 -0.538848
H70   H     H_    0.305064 0.688743 0.880849 0.386992
S11   S     S_3+6 0.291382 0.183081 0.289596 -0.005466
O51   O     O_2   0.361334 0.211796 0.324295 -0.223503
O52   O     O_2   0.282864 0.098751 0.254715 -0.240987
O53   O     O_3   0.225659 0.237447 0.182665 -0.523509
H71   H     H_    0.194126 0.199506 0.123256 0.391641
S12   S     S_3+6 0.703957 0.178105 0.706735 -0.019749
O54   O     O_2   0.632439 0.206069 0.667383 -0.242599
O55   O     O_2   0.713295 0.093307 0.740806 -0.228284
O56   O     O_3   0.767167 0.230968 0.816398 -0.556705
H72   H     H_    0.751607 0.235122 0.862346 0.389749

loop_
_geom_bond_atom_site_label_1
_geom_bond_atom_site_label_2
_ccdc_geom_bond_type
C65   O29   S    
C25   C31   A    
N32   Ni7   S    
C71   N11   A    
O16   H48   S    
C6    N30   A    
C26   C32   A    
S2    O8    D    
C28   S12   S    
C55   C59   D    
C8    H40   S    
C1    C77   A    
N6    N10   A    
C32   O4    S    
C35   C39   A    
O56   H72   S    
C76   C79   A    
N7    Ni7   S    
N8    N12   A    
C3    C79   A    
S10   O50   S    
S8    O27   D    
C74   O42   S    
C44   H8    S    
O25   H51   S    
O42   H66   S    
C39   C41   S    
C89   H29   S    
O22   H50   S    
N7    N11   A    
O10   H46   S    
N26   Ni1   S    
C54   H14   S    
O41   H65   S    
C94   H34   S    
C56   C79   S    
C91   H31   S    
N19   Ni3   S    
C64   C68   D    
C67   O31   S    
C11   C36   S    
C59   O35   S    
C24   C83   S    
C4    C80   A    
S7    O24   D    
C54   C58   D    
O43   H67   S    
S11   O53   S    
C96   N28   A    
S1    O6    D    
N2    Ni2   S    
N20   N32   A    
C51   S7    S    
O38   H62   S    
C14   C62   S    
C29   C33   A    
N3    N16   A    
N12   Ni3   S    
C69   N9    A    
C27   C29   A    
C48   N8    A    
C43   S3    S    
O37   H61   S    
C17   C39   A    
C76   O44   S    
C18   C40   A    
C14   C90   A    
C7    N31   A    
C19   C37   A    
N22   N25   A    
C9    C85   A    
C43   C51   S    
C46   C82   A    
N16   Ni7   S    
N22   Ni6   S    
C27   S11   S    
O36   H60   S    
C11   C87   A    
S4    O14   D    
N30   Ni5   S    
C74   C77   A    
C66   O30   S    
C86   H26   S    
S12   O55   D    
O34   H58   S    
N3    Ni3   S    
O13   H47   S    
C70   N10   A    
C46   H18   S    
C47   C83   A    
C8    C12   A    
C8    N32   A    
C75   C80   A    
C94   N26   A    
C14   C93   A    
C91   N23   A    
S2    O10   S    
C68   O32   S    
C88   H28   S    
C96   H36   S    
C54   C77   S    
C25   S9    S    
C44   C52   S    
C40   C42   S    
C60   C66   S    
N4    Ni4   S    
N23   Ni7   S    
O39   H63   S    
C31   O3    S    
N5    Ni5   S    
N24   Ni8   S    
C72   H24   S    
C57   C67   S    
C93   H33   S    
C92   H32   S    
C75   N15   A    
C41   C49   S    
S8    O26   D    
C7    C11   A    
C71   C83   A    
S5    O18   D    
N2    N13   A    
C61   O37   S    
C63   O39   S    
C63   C67   D    
C52   S8    S    
C23   C84   S    
C30   C34   A    
C95   H35   S    
C48   H20   S    
C2    N2    A    
N24   N27   A    
C20   C24   A    
C36   C40   A    
C69   C81   A    
O28   H52   S    
N6    Ni6   S    
C58   O34   S    
S7    O25   S    
C17   C49   S    
C15   C96   A    
C62   C66   D    
O19   H49   S    
S1    O7    S    
S10   O49   D    
S3    O11   D    
N29   Ni6   S    
O3    H43   S    
C73   C78   A    
N20   Ni4   S    
C33   C37   A    
C48   C84   A    
C72   C84   A    
O7    H45   S    
S9    O46   D    
C34   C38   A    
C45   N5    A    
C90   N22   A    
C19   C23   A    
S7    O23   D    
C22   C81   S    
O4    H44   S    
C38   C44   S    
O31   H55   S    
C2    C78   A    
C95   N27   A    
S12   O56   S    
C4    N4    A    
C20   C38   A    
C42   S2    S    
O30   H54   S    
N23   N28   A    
C93   N25   A    
C30   O2    S    
C12   C88   A    
N8    Ni8   S    
O29   H53   S    
C5    H37   S    
C41   S1    S    
C89   N21   A    
C60   O36   S    
C85   N17   A    
C45   H17   S    
N13   Ni6   S    
C12   C35   S    
C85   H25   S    
N27   Ni4   S    
N4    N15   A    
C2    H2    S    
C47   H19   S    
C73   N13   A    
C42   C50   S    
N25   Ni2   S    
S5    O17   D    
S4    O15   D    
C49   S5    S    
C44   S4    S    
C23   C27   A    
C4    H4    S    
C9    C34   S    
C31   C35   A    
N1    N14   A    
C55   H15   S    
C3    N3    A    
S12   O54   D    
C1    H1    S    
O44   H68   S    
C88   N20   A    
S9    O45   D    
C1    N1    A    
N11   Ni4   S    
C18   C50   S    
O50   H70   S    
S5    O19   S    
C53   H13   S    
C37   C43   S    
C21   C25   A    
N9    Ni2   S    
C10   C86   A    
C16   C95   A    
S2    O9    D    
N15   Ni8   S    
N17   N29   A    
C18   C22   A    
N1    Ni1   S    
C73   O41   S    
C45   C81   A    
C24   C28   A    
C47   N7    A    
C5    C9    A    
O47   H69   S    
C75   O43   S    
C53   C57   D    
C6    C10   A    
C57   O33   S    
O40   H64   S    
C32   C36   A    
C16   C92   A    
S10   O48   D    
C26   S10   S    
C71   H23   S    
C76   N16   A    
C13   C89   A    
S6    O22   S    
S6    O21   D    
S4    O16   S    
C13   C94   A    
C92   N24   A    
S11   O51   D    
S9    O47   S    
C28   C30   A    
C53   C78   S    
C86   N18   A    
C74   N14   A    
C20   C52   S    
C72   N12   A    
C42   H6    S    
C87   H27   S    
C55   C80   S    
S11   O52   D    
N18   Ni2   S    
C58   C68   S    
S1    O5    D    
C64   O40   S    
N19   N31   A    
C70   H22   S    
C19   C51   S    
O35   H59   S    
C69   H21   S    
N5    N9    A    
C46   N6    A    
C41   H5    S    
C56   C60   D    
C10   C33   S    
C87   N19   A    
C5    N29   A    
S6    O20   D    
C61   C65   D    
C70   C82   A    
C43   H7    S    
C62   O38   S    
C7    H39   S    
C15   C91   A    
O2    H42   S    
S3    O13   S    
C3    H3    S    
C90   H30   S    
C6    H38   S    
N14   Ni5   S    
C13   C61   S    
C21   C82   S    
C50   S6    S    
C51   H11   S    
O1    H41   S    
C22   C26   A    
N10   Ni1   S    
N17   Ni1   S    
O32   H56   S    
C50   H10   S    
C15   C63   S    
O53   H71   S    
N18   N30   A    
C52   H12   S    
C29   O1    S    
C16   C64   S    
C49   H9    S    
N28   Ni3   S    
N21   N26   A    
C56   H16   S    
S8    O28   S    
C59   C65   S    
O33   H57   S    
N21   Ni5   S    
N31   Ni8   S    
S3    O12   D    
C17   C21   A    
