data_mof_unit_4713.cif
_audit_creation_date              2012-12-10T17:14:06-0500
_audit_creation_method            fapswitch 2.2
_symmetry_space_group_name_H-M    P1
_symmetry_Int_Tables_number       1
_space_group_crystal_system       triclinic
_cell_length_a                    15.876127
_cell_length_b                    13.030083
_cell_length_c                    11.811889
_cell_angle_alpha                 99.839241
_cell_angle_beta                  93.961249
_cell_angle_gamma                 92.881253
_cell_volume                      2397.00659952

loop_
_atom_site_label
_atom_site_type_symbol
_atom_type_description
_atom_site_fract_x
_atom_site_fract_y
_atom_site_fract_z
_atom_type_partial_charge
C1    C     C_R   0.499531 0.299522 0.478602 0.922659
C2    C     C_3   0.956486 0.508257 0.617138 0.137329
C3    C     C_3   0.915854 0.494934 0.490361 -0.224314
C4    C     C_3   0.951310 0.587106 0.432178 0.619637
C5    C     C_3   0.048462 0.573056 0.420717 -0.015458
C6    C     C_1   0.823908 0.497313 0.495438 0.183509
C7    C     C_1   0.175183 0.493573 0.496391 0.171012
C8    C     C_1   0.250874 0.497130 0.499059 -0.071458
C9    C     C_R   0.497416 0.813628 0.533014 -0.090044
C10   C     C_R   0.495373 0.185777 0.465936 -0.191790
C11   C     C_R   0.431578 0.018564 0.367986 -0.256088
C12   C     C_R   0.340456 0.499600 0.499919 0.794159
C13   C     C_R   0.439993 0.126883 0.377345 0.385372
C14   C     C_R   0.540852 0.136263 0.546450 0.305859
C15   C     C_R   0.521261 0.029705 0.545887 -0.010567
C16   C     C_R   0.472638 0.968908 0.450397 -0.029328
C17   C     C_R   0.464449 0.859502 0.441250 0.415634
C18   C     C_R   0.534026 0.876228 0.634091 -0.240046
C19   C     C_R   0.546924 0.982791 0.639983 -0.071077
C20   C     C_R   0.402441 0.424482 0.026009 -0.262950
C21   C     C_R   0.415328 0.427698 0.146486 0.065346
C22   C     C_R   0.544723 0.530862 0.153751 0.541665
C23   C     C_R   0.498015 0.700288 0.521304 0.899780
C24   C     C_R   0.536928 0.517709 0.030555 -0.097373
C25   C     C_R   0.463317 0.471105 0.966573 0.015090
C26   C     C_R   0.454342 0.471132 0.844722 0.021441
C27   C     C_R   0.588579 0.563189 0.855217 0.507415
C28   C     C_R   0.601658 0.551951 0.969448 -0.223133
C29   C     C_R   0.659502 0.500490 0.499951 0.916360
C30   C     C_3   0.054641 0.518264 0.618256 0.207699
C31   C     C_3   0.041567 0.376754 0.435043 0.629311
C32   C     C_3   0.940418 0.385342 0.422286 0.056883
C33   C     C_1   0.748777 0.499323 0.498901 0.020317
C34   C     C_3   0.082436 0.489520 0.492215 -0.212994
Cu1   Cu    Cu3+1 0.506190 0.507730 0.615930 1.055245
Cu2   Cu    Cu3+1 0.493810 0.492270 0.384070 1.090980
H1    H     H_    0.075306 0.600872 0.653957 0.127742
H2    H     H_    0.935867 0.580777 0.669317 0.205728
H3    H     H_    0.555705 0.842690 0.707707 0.214715
H4    H     H_    0.389083 0.974595 0.299185 0.170774
H5    H     H_    0.575418 0.028005 0.719975 0.215603
H6    H     H_    0.398626 0.432556 0.794247 0.145104
H7    H     H_    0.345428 0.384881 0.979717 0.171602
H8    H     H_    0.664463 0.572382 0.009894 0.260642
H9    H     H_    0.368054 0.389730 0.189644 0.172656
H10   H     H_    0.911106 0.325847 0.467013 0.165263
H11   H     H_    0.055200 0.542452 0.329301 0.247955
N1    N     N_R   0.515490 0.519350 0.790130 -0.233900
N2    N     N_R   0.484510 0.480650 0.209890 -0.244260
O1    O     O_R   0.504390 0.354460 0.582000 -0.554125
O2    O     O_R   0.493940 0.341410 0.386200 -0.544256
O3    O     O_R   0.384660 0.506540 0.597940 -0.614874
O4    O     O_R   0.374210 0.493480 0.402140 -0.573676
O5    O     O_R   0.506060 0.658590 0.613800 -0.580724
O6    O     O_R   0.495610 0.645540 0.418000 -0.489538
O7    O     O_R   0.625790 0.506520 0.597860 -0.517645
O8    O     O_R   0.615340 0.493460 0.402060 -0.525605
O9    O     O_3   0.930346 0.424093 0.669956 -0.655944
H12   H     H_    0.873745 0.438067 0.697756 0.358100
O10   O     O_3   0.909292 0.577823 0.321568 -0.611695
H13   H     H_    0.936100 0.630494 0.281506 0.380419
O11   O     O_3   0.423683 0.796225 0.345294 -0.699335
H14   H     H_    0.441007 0.822525 0.275962 0.338162
O12   O     O_3   0.393649 0.176884 0.301943 -0.708131
H15   H     H_    0.357706 0.124570 0.245865 0.335345
S1    S     S_3+6 0.629191 0.202876 0.636247 0.036034
O13   O     O_2   0.599134 0.256352 0.747924 -0.273305
O14   O     O_2   0.693987 0.127632 0.660903 -0.238521
O15   O     O_3   0.676313 0.291695 0.569961 -0.552544
H16   H     H_    0.725616 0.321968 0.623327 0.377155
O16   O     O_3   0.091837 0.456459 0.692689 -0.601166
H17   H     H_    0.149355 0.488446 0.719864 0.327037
S2    S     S_3+6 0.674263 0.637119 0.810220 0.056541
O17   O     O_2   0.742940 0.565210 0.776803 -0.272863
O18   O     O_2   0.651848 0.693698 0.713304 -0.284556
O19   O     O_3   0.714540 0.727193 0.922946 -0.449501
H18   H     H_    0.668793 0.775274 0.939442 0.359484
S3    S     S_3+6 0.632900 0.619655 0.224833 0.057457
O20   O     O_2   0.711971 0.561605 0.209416 -0.226761
O21   O     O_2   0.638557 0.710620 0.161923 -0.303387
O22   O     O_3   0.636513 0.674962 0.363940 -0.505344
H19   H     H_    0.691100 0.717045 0.379561 0.402753
S4    S     S_3+6 0.091526 0.322310 0.304131 0.109682
O23   O     O_2   0.046128 0.221026 0.246678 -0.158622
O24   O     O_2   0.097404 0.394415 0.218125 -0.278869
O25   O     O_3   0.190544 0.294558 0.343614 -0.497150
H20   H     H_    0.215941 0.269296 0.270482 0.373613
O26   O     O_3   0.062968 0.305502 0.508944 -0.618255
H21   H     H_    0.021049 0.301513 0.566295 0.385798
S5    S     S_3+6 0.885871 0.345968 0.278477 0.122127
O27   O     O_2   0.882475 0.229031 0.247092 -0.188301
O28   O     O_2   0.796175 0.377502 0.277220 -0.225194
O29   O     O_3   0.933266 0.398469 0.177052 -0.421418
H22   H     H_    0.900746 0.367628 0.103482 0.400857
O30   O     O_3   0.097301 0.668920 0.441548 -0.636787
H23   H     H_    0.114582 0.688261 0.524771 0.364533
S6    S     S_3+6 0.930611 0.716943 0.509185 0.051714
O31   O     O_2   0.951418 0.796257 0.434963 -0.180823
O32   O     O_2   0.838661 0.721340 0.531248 -0.260802
O33   O     O_3   0.989001 0.750714 0.635640 -0.584926
H24   H     H_    0.972052 0.821137 0.668221 0.412128

loop_
_geom_bond_atom_site_label_1
_geom_bond_atom_site_label_2
_ccdc_geom_bond_type
C27   N1    A    
S1    O14   D    
O29   H22   S    
S2    O17   D    
O30   H23   S    
C3    C6    S    
S6    O33   S    
C21   N2    A    
C30   O16   S    
C7    C8    T    
C15   C19   A    
C5    H11   S    
S5    O29   S    
S3    O21   D    
S1    O15   S    
C20   C25   A    
C15   C16   A    
C29   C33   S    
C31   S4    S    
C18   C19   A    
Cu2   O4    S    
S6    O32   D    
C32   S5    S    
C31   C32   S    
C16   C17   A    
C1    O1    A    
C12   O4    A    
C26   N1    A    
O26   H21   S    
S1    O13   D    
C4    S6    S    
Cu1   O5    S    
S2    O18   D    
O15   H16   S    
Cu1   N1    S    
C12   O3    A    
S6    O31   D    
C21   H9    S    
C30   C34   S    
O19   H18   S    
C22   S3    S    
Cu2   O8    S    
C10   C14   A    
S3    O20   D    
C9    C23   S    
O9    H12   S    
C28   H8    S    
O22   H19   S    
C30   H1    S    
O10   H13   S    
Cu1   Cu2   S    
C18   H3    S    
O11   H14   S    
C17   O11   S    
C11   C16   A    
C2    H2    S    
S5    O28   D    
S4    O23   D    
C8    C12   S    
C5    C34   S    
C4    O10   S    
Cu1   O1    S    
C14   S1    S    
C31   C34   S    
C3    C32   S    
C24   C25   A    
C1    O2    A    
Cu2   O2    S    
C22   N2    A    
C9    C17   A    
S4    O24   D    
C29   O8    A    
S2    O19   S    
C22   C24   A    
C3    C4    S    
Cu1   O3    S    
C20   H7    S    
C26   H6    S    
C23   O5    A    
C31   O26   S    
Cu1   O7    S    
O25   H20   S    
C32   H10   S    
C1    C10   S    
C24   C28   A    
C4    C5    S    
C10   C13   A    
C2    O9    S    
C23   O6    A    
C29   O7    A    
C6    C33   T    
C2    C30   S    
O12   H15   S    
C2    C3    S    
C25   C26   A    
O16   H17   S    
Cu2   O6    S    
C11   C13   A    
S3    O22   S    
S5    O27   D    
C5    O30   S    
C13   O12   S    
O33   H24   S    
C7    C34   S    
C11   H4    S    
C9    C18   A    
S4    O25   S    
C20   C21   A    
C27   C28   A    
C14   C15   A    
C27   S2    S    
Cu2   N2    S    
C19   H5    S    
