data_mof_unit_2827.cif
_audit_creation_date              2013-03-05T16:46:52-0500
_audit_creation_method            fapswitch 2.2
_symmetry_space_group_name_H-M    P1
_symmetry_Int_Tables_number       1
_space_group_crystal_system       triclinic
_cell_length_a                    18.159416
_cell_length_b                    18.24506
_cell_length_c                    18.416909
_cell_angle_alpha                 120.259704
_cell_angle_beta                  90.098587
_cell_angle_gamma                 119.740244
_cell_volume                      4310.87175632

loop_
_atom_site_label
_atom_site_type_symbol
_atom_site_description
_atom_site_fract_x
_atom_site_fract_y
_atom_site_fract_z
_atom_type_partial_charge
Zn1   Zn    Zn3+2 0.456040 0.586770 0.543190 1.017113
Zn2   Zn    Zn3+2 0.456820 0.413240 0.543960 0.972478
Zn3   Zn    Zn3+2 0.631110 0.586750 0.543190 0.968757
Zn4   Zn    Zn3+2 0.456040 0.413240 0.369660 0.985079
O1    O     O_3   0.500000 0.500000 0.500000 -0.486164
O2    O     O_R   0.383400 0.268380 0.323710 -0.654390
O3    O     O_R   0.555060 0.731630 0.615290 -0.598425
O4    O     O_R   0.383950 0.439280 0.616600 -0.650627
O5    O     O_R   0.677590 0.560710 0.444390 -0.654484
O6    O     O_R   0.556370 0.439260 0.616600 -0.636570
O7    O     O_R   0.382640 0.439290 0.322940 -0.636394
O8    O     O_R   0.678360 0.560700 0.616060 -0.656779
O9    O     O_R   0.382640 0.560750 0.444390 -0.645156
O10   O     O_R   0.383400 0.560740 0.616060 -0.622445
O11   O     O_R   0.555060 0.439270 0.322940 -0.621364
O12   O     O_R   0.383950 0.268380 0.445700 -0.629894
O13   O     O_R   0.677590 0.731610 0.615290 -0.652047
C1    C     C_R   0.360908 0.220227 0.360683 0.775848
C2    C     C_R   0.640961 0.781078 0.640345 0.781208
C3    C     C_R   0.358428 0.499843 0.639878 0.798063
C4    C     C_R   0.640545 0.498535 0.359367 0.834105
C5    C     C_R   0.641857 0.498830 0.638707 0.797286
C6    C     C_R   0.358111 0.500194 0.359246 0.761533
C7    C     C_3   0.280159 0.420940 0.200888 -0.381381
H1    H     H_    0.246079 0.341531 0.184337 0.177135
H2    H     H_    0.344193 0.441586 0.185995 0.199139
C8    C     C_3   0.219595 0.420110 0.141720 -0.395501
H3    H     H_    0.254111 0.439674 0.098159 0.193710
H4    H     H_    0.156409 0.340562 0.097437 0.177103
H5    H     H_    0.173750 0.390274 0.304272 0.150994
H6    H     H_    0.084168 0.390242 0.216333 0.150730
C9    C     C_3   0.209139 0.468654 0.318421 -0.404506
C10   C     C_3   0.347515 0.608861 0.321097 -0.392568
C11   C     C_3   0.300088 0.499761 0.301302 0.192614
H7    H     H_    0.362490 0.667275 0.392543 0.181060
H8    H     H_    0.412834 0.632408 0.308645 0.178522
C12   C     C_3   0.197427 0.499135 0.199881 0.204968
C13   C     C_3   0.148767 0.468622 0.259055 -0.401421
C14   C     C_3   0.287031 0.608553 0.261568 -0.402021
H9    H     H_    0.323154 0.632650 0.220767 0.156375
H10   H     H_    0.273019 0.666609 0.304806 0.181340
H11   H     H_    0.221540 0.524217 0.389628 0.190417
H12   H     H_    0.132255 0.524162 0.302218 0.173503
C15   C     C_3   0.675274 0.940534 0.655788 -0.361528
H13   H     H_    0.602626 0.908894 0.639154 0.218241
H14   H     H_    0.688703 0.914943 0.591410 0.163730
C16   C     C_3   0.732629 0.060479 0.717745 -0.385709
H15   H     H_    0.770137 0.092023 0.681554 0.150681
H16   H     H_    0.687310 0.086382 0.735550 0.197969
H17   H     H_    0.702306 0.089340 0.874630 0.213976
C17   C     C_3   0.687280 0.939721 0.794188 0.206419
C18   C     C_3   0.799790 0.941095 0.714615 -0.455976
C19   C     C_3   0.698508 0.897646 0.699882 0.064971
H18   H     H_    0.820450 0.912428 0.745765 0.180896
H19   H     H_    0.811675 0.913621 0.649455 0.200139
C20   C     C_3   0.799638 0.102670 0.803501 0.147071
C21   C     C_3   0.745179 0.060334 0.853834 -0.451412
C22   C     C_3   0.858720 0.060639 0.775296 -0.390934
H20   H     H_    0.898938 0.090192 0.739160 0.180087
H21   H     H_    0.906987 0.088638 0.835484 0.180808
H22   H     H_    0.713862 0.915749 0.826312 0.077899
H23   H     H_    0.792124 0.090738 0.916208 0.126546
C23   C     C_3   0.644820 0.392875 0.207409 -0.400677
H24   H     H_    0.584752 0.379438 0.172794 0.215304
H25   H     H_    0.618208 0.328859 0.215643 0.175041
C24   C     C_3   0.705949 0.389195 0.148925 -0.018926
H26   H     H_    0.672890 0.374171 0.087462 0.176319
H27   H     H_    0.733091 0.552267 0.162353 0.196919
C25   C     C_3   0.730825 0.590650 0.294464 0.124955
C26   C     C_3   0.781785 0.511919 0.342419 -0.481781
C27   C     C_3   0.697387 0.498251 0.301401 0.029978
H28   H     H_    0.819067 0.583363 0.411848 0.202303
H29   H     H_    0.761367 0.445072 0.345079 0.189116
C28   C     C_3   0.799228 0.498447 0.199954 0.072211
C29   C     C_3   0.779998 0.582143 0.224227 -0.130707
C30   C     C_3   0.845200 0.521169 0.287191 -0.427662
H30   H     H_    0.864022 0.466695 0.271557 0.166258
H31   H     H_    0.908821 0.600352 0.328353 0.185477
H32   H     H_    0.780169 0.662203 0.361630 0.107684
H33   H     H_    0.579534 0.240198 0.625664 0.123659
C31   C     C_R   0.547432 0.215765 0.499565 -0.119321
H34   H     H_    0.617065 0.265109 0.507192 0.111732
C32   C     C_R   0.478772 0.166304 0.422938 -0.131716
H35   H     H_    0.496209 0.177677 0.371538 0.097675
C33   C     C_R   0.388038 0.102993 0.412997 0.143841
C34   C     C_R   0.367406 0.088497 0.480189 -0.141880
H36   H     H_    0.298019 0.039937 0.473779 0.127235
C35   C     C_R   0.436375 0.138096 0.556728 -0.140706
H37   H     H_    0.420146 0.127345 0.608629 0.131337
C36   C     C_R   0.526252 0.201785 0.566441 -0.094453
C37   C     C_R   0.255606 0.944430 0.278962 -0.257321
H38   H     H_    0.261915 0.900711 0.299143 0.159740
C38   C     C_R   0.192087 0.892446 0.197344 -0.043989
C39   C     C_R   0.186273 0.948559 0.168451 0.019656
C40   C     C_R   0.243897 0.056032 0.222890 -0.252724
H39   H     H_    0.238158 0.099602 0.202124 0.164068
C41   C     C_R   0.306889 0.107888 0.304584 -0.043673
C42   C     C_R   0.315022 0.052009 0.332298 -0.000005
C43   C     C_R   0.152872 0.908494 0.016380 -0.223164
H40   H     H_    0.224767 0.954171 0.029591 0.176329
C44   C     C_R   0.092325 0.858958 0.933375 0.359957
C45   C     C_R   0.999274 0.799368 0.917655 -0.184394
H41   H     H_    0.951012 0.760195 0.854468 0.162332
C46   C     C_R   0.967613 0.789702 0.983563 -0.176623
H42   H     H_    0.895883 0.743509 0.970780 0.139765
C47   C     C_R   0.028244 0.839015 0.065695 -0.131570
H43   H     H_    0.002931 0.830852 0.116087 0.112128
C48   C     C_R   0.121248 0.898117 0.082393 0.085876
H44   H     H_    0.963100 0.609563 0.484155 0.127170
C49   C     C_R   0.878096 0.491141 0.503242 -0.152763
H45   H     H_    0.882347 0.432658 0.447772 0.123976
C50   C     C_R   0.828239 0.467346 0.555169 -0.186031
H46   H     H_    0.795448 0.390695 0.540340 0.122481
C51   C     C_R   0.823561 0.543390 0.627977 0.114207
C52   C     C_R   0.868681 0.643155 0.647634 -0.022126
H47   H     H_    0.867332 0.703298 0.704656 0.124158
C53   C     C_R   0.917962 0.666440 0.595143 -0.069625
H48   H     H_    0.952997 0.743554 0.610706 0.139432
C54   C     C_R   0.923818 0.590969 0.523903 -0.138205
C55   C     C_R   0.833927 0.522665 0.747628 -0.247979
H49   H     H_    0.899863 0.539864 0.744814 0.179492
C56   C     C_R   0.799672 0.499031 0.806324 -0.055242
C57   C     C_R   0.713323 0.474128 0.808856 -0.031221
C58   C     C_R   0.663545 0.475281 0.753118 -0.251862
H50   H     H_    0.597622 0.457929 0.756102 0.171617
C59   C     C_R   0.698049 0.499671 0.694722 -0.049144
C60   C     C_R   0.783983 0.522967 0.691184 -0.026559
C61   C     C_R   0.621743 0.347656 0.844318 -0.080619
H51   H     H_    0.613195 0.285679 0.780401 0.107264
C62   C     C_R   0.580314 0.324664 0.900811 -0.139051
H52   H     H_    0.540364 0.245465 0.880724 0.136854
C63   C     C_R   0.589597 0.403750 0.982782 -0.134002
H53   H     H_    0.556454 0.385545 0.025837 0.161157
C64   C     C_R   0.641311 0.506139 0.008926 -0.156476
H54   H     H_    0.647851 0.567222 0.072087 0.174346
C65   C     C_R   0.683630 0.529643 0.953101 -0.186877
H55   H     H_    0.722870 0.609061 0.973589 0.122082
C66   C     C_R   0.673869 0.450415 0.870441 0.152024
H56   H     H_    0.234717 0.713500 0.543568 0.140498
C67   C     C_R   0.309790 0.733783 0.650390 -0.068914
H57   H     H_    0.362366 0.814263 0.679272 0.180067
C68   C     C_R   0.313468 0.687271 0.690263 -0.072493
H58   H     H_    0.368778 0.732967 0.750688 0.194244
C69   C     C_R   0.245960 0.582607 0.653006 0.071235
C70   C     C_R   0.172455 0.524789 0.575419 0.212474
C71   C     C_R   0.169125 0.573647 0.537246 -0.183178
H59   H     H_    0.113578 0.531240 0.478158 0.127378
C72   C     C_R   0.237697 0.677121 0.574110 -0.171945
C73   C     C_R   0.197304 0.538056 0.757246 -0.255608
H60   H     H_    0.157623 0.568285 0.761938 0.176563
C74   C     C_R   0.195076 0.497646 0.805312 -0.056043
C75   C     C_R   0.246350 0.457187 0.797874 0.005701
C76   C     C_R   0.298756 0.459489 0.743160 -0.245488
H61   H     H_    0.338938 0.429896 0.738764 0.171490
C77   C     C_R   0.301227 0.500250 0.695432 -0.046266
C78   C     C_R   0.248990 0.539208 0.701819 0.014578
C79   C     C_R   0.332650 0.470290 0.914446 -0.194588
H62   H     H_    0.389134 0.544434 0.931511 0.141019
C80   C     C_R   0.342352 0.427622 0.956354 0.214364
C81   C     C_R   0.269515 0.329975 0.931613 -0.178856
H63   H     H_    0.275480 0.295450 0.962872 0.138258
C82   C     C_R   0.188817 0.275379 0.865198 -0.160823
H64   H     H_    0.133285 0.199686 0.845807 0.139549
C83   C     C_R   0.180375 0.317065 0.822186 -0.071271
H65   H     H_    0.118523 0.272440 0.768788 0.123869
C84   C     C_R   0.251557 0.415905 0.847951 0.094134
Zn5   Zn    Zn3+2 0.041710 0.413240 0.959030 0.951863
Zn6   Zn    Zn3+2 0.866640 0.413270 0.959030 0.953782
Zn7   Zn    Zn3+2 0.040930 0.586780 0.958260 0.979207
Zn8   Zn    Zn3+2 0.041710 0.586770 0.132560 0.942844
O14   O     O_3   0.997750 0.500010 0.002220 -0.474933
O15   O     O_R   0.942690 0.560750 0.179280 -0.645313
O16   O     O_R   0.114340 0.439270 0.886160 -0.645308
O17   O     O_R   0.820160 0.268410 0.886930 -0.644298
O18   O     O_R   0.113800 0.731630 0.056520 -0.623981
O19   O     O_R   0.819390 0.439310 0.886160 -0.641119
O20   O     O_R   0.115110 0.560720 0.179280 -0.651125
O21   O     O_R   0.941380 0.560750 0.885620 -0.638668
O22   O     O_R   0.115110 0.439270 0.057830 -0.643129
O23   O     O_R   0.942690 0.268390 0.886930 -0.653348
O24   O     O_R   0.114340 0.731630 0.178520 -0.646895
O25   O     O_R   0.820160 0.439310 0.057830 -0.649319
O26   O     O_R   0.113800 0.560730 0.885620 -0.638668
C85   C     C_R   0.857046 0.498737 0.142738 0.790992
C86   C     C_R   0.139301 0.500034 0.862288 0.793960
C87   C     C_R   0.856937 0.219016 0.862037 0.757048
C88   C     C_R   0.136981 0.779904 0.141525 0.789892
C89   C     C_R   0.855926 0.500731 0.863069 0.796147
C90   C     C_R   0.139528 0.499527 0.142739 0.748335
N1    N     N_R   0.592903 0.896507 0.789562 0.215544
O27   O     O_R   0.547913 0.922505 0.765121 -0.440766
O28   O     O_R   0.555024 0.836252 0.815573 -0.433482
C91   C     C_3   0.714077 0.297741 0.119139 -0.404390
C92   C     C_3   0.629290 0.193167 0.044268 -0.831264
H66   H     H_    0.569475 0.177515 0.066072 0.261225
H67   H     H_    0.617771 0.192268 0.984470 0.265058
H68   H     H_    0.637721 0.130298 0.025496 0.260154
H69   H     H_    0.771438 0.307329 0.094101 0.204529
H70   H     H_    0.726812 0.294956 0.176462 0.209333
N2    N     N_R   0.658471 0.600010 0.275234 0.197527
O29   O     O_R   0.591628 0.528459 0.200177 -0.468934
O30   O     O_R   0.661636 0.682059 0.333635 -0.435613
C93   C     C_3   0.863946 0.691756 0.257333 -0.402175
C94   C     C_3   0.879411 0.706102 0.182433 -0.858682
H71   H     H_    0.889582 0.649127 0.130028 0.255850
H72   H     H_    0.821335 0.698624 0.151512 0.250004
H73   H     H_    0.940463 0.785120 0.211185 0.237155
H74   H     H_    0.855021 0.752689 0.305705 0.223913
H75   H     H_    0.925826 0.709278 0.293157 0.224011
N3    N     N_R   0.125225 0.868812 0.865542 0.202134
O31   O     O_R   0.211284 0.921887 0.879291 -0.402375
O32   O     O_R   0.069491 0.824816 0.789333 -0.433670
C95   C     C_3   0.097148 0.412128 0.532371 -0.438941
C96   C     C_3   0.124510 0.340975 0.473720 -0.859919
H76   H     H_    0.145263 0.354392 0.422518 0.245840
H77   H     H_    0.180878 0.354700 0.514494 0.251847
H78   H     H_    0.066498 0.258799 0.439359 0.248783
H79   H     H_    0.077046 0.398751 0.583699 0.211008
H80   H     H_    0.036237 0.390254 0.489999 0.199277
C97   C     C_3   0.432035 0.482816 0.022279 -0.424504
C98   C     C_3   0.458100 0.584873 0.107333 -0.832471
H81   H     H_    0.462402 0.638235 0.092106 0.244985
H82   H     H_    0.408217 0.570361 0.141747 0.251087
H83   H     H_    0.524912 0.623106 0.153078 0.291752
H84   H     H_    0.431140 0.433127 0.040830 0.226585
H85   H     H_    0.484267 0.498849 0.990314 0.216774

loop_
_geom_bond_atom_site_label_1
_geom_bond_atom_site_label_2
_geom_bond_distance
_ccdc_geom_bond_type
C12   C90   1.491383 S    
C93   C94   1.530532 S    
C23   H25   1.113321 S    
C69   C78   1.482766 S    
N1    O27   1.301339 A    
C3    C77   1.459266 S    
C8    H4    1.113448 S    
C35   C36   1.397827 A    
Zn5   O22   1.950838 S    
C40   H39   1.085136 S    
C17   H22   1.115159 S    
C7    C8    1.536197 S    
C61   H51   1.082646 S    
C67   C72   1.394064 A    
C50   C51   1.404461 A    
C41   C42   1.412538 A    
C95   H80   1.112158 S    
C55   C60   1.382277 A    
C57   C58   1.381569 A    
C16   H16   1.112995 S    
C95   C96   1.525615 S    
O6    C5    1.278605 A    
H27   C29   1.109593 S    
Zn6   O17   1.925310 S    
C43   C48   1.403645 A    
C96   H76   1.110629 S    
C57   C66   1.475382 S    
C39   C48   1.482764 S    
C79   H62   1.083783 S    
C28   C30   1.559105 S    
C4    C27   1.486175 S    
C32   H35   1.083151 S    
Zn1   O1    1.939885 S    
C83   H65   1.083298 S    
C73   C78   1.388805 A    
C30   H31   1.110781 S    
C71   H59   1.083361 S    
C98   H83   1.110364 S    
C53   C54   1.397777 A    
C80   C81   1.404618 A    
C33   C34   1.405269 A    
C96   H77   1.108104 S    
C5    C59   1.438966 S    
C92   H68   1.110585 S    
C28   C85   1.488853 S    
C47   H43   1.080564 S    
C22   H21   1.113402 S    
C52   H47   1.083012 S    
C24   C28   1.575565 S    
O8    C5    1.273057 A    
C10   H8    1.113003 S    
C34   C35   1.399418 A    
C20   C21   1.549460 S    
O9    C6    1.281117 A    
Zn6   O19   1.950923 S    
O7    C6    1.274177 A    
C25   C27   1.558452 S    
C61   C66   1.403961 A    
C49   H45   1.082377 S    
Zn7   O26   1.938023 S    
Zn3   O8    1.951068 S    
C49   C50   1.397942 A    
O13   C2    1.283314 A    
C15   C19   1.554525 S    
Zn6   O14   1.947392 S    
C16   H15   1.112954 S    
C55   C56   1.395492 A    
N2    O29   1.300673 A    
C52   C53   1.398422 A    
C25   N2    1.470688 S    
C74   C75   1.418135 A    
C7    H1    1.113413 S    
Zn3   O13   1.925311 S    
C26   C27   1.552004 S    
C33   C42   1.486075 S    
C1    C41   1.448524 S    
C9    C13   1.546579 S    
C76   C77   1.397723 A    
Zn2   O12   1.926844 S    
C82   C83   1.397107 A    
C15   C16   1.547185 S    
Zn5   O16   1.947604 S    
O21   C89   1.277954 A    
C35   H37   1.082398 S    
C2    C19   1.502762 S    
Zn5   O23   1.929027 S    
C23   C24   1.549865 S    
C79   C80   1.404961 A    
C94   H71   1.107323 S    
Zn7   O14   1.959320 S    
C45   H41   1.081629 S    
C46   C47   1.396285 A    
C97   C98   1.525887 S    
C31   C32   1.398088 A    
C15   H14   1.113212 S    
C70   C71   1.406237 A    
C71   C72   1.395924 A    
O24   C88   1.286646 A    
C10   C11   1.550337 S    
O2    C1    1.284601 A    
H56   C72   1.082437 S    
C77   C78   1.415621 A    
O20   C90   1.277104 A    
C28   C29   1.579628 S    
Zn8   O20   1.944120 S    
C80   C97   1.508090 S    
C44   C45   1.406955 A    
O10   C3    1.274571 A    
C21   H23   1.113246 S    
C24   H26   1.112891 S    
C30   H30   1.111967 S    
C65   C66   1.401970 A    
C37   H38   1.084812 S    
C29   C93   1.561534 S    
C34   H36   1.083078 S    
C63   H53   1.081693 S    
C64   C65   1.397007 A    
C22   H20   1.113401 S    
C91   H70   1.111514 S    
C31   H34   1.082434 S    
C17   C19   1.568513 S    
C9    C11   1.549635 S    
C12   C14   1.552002 S    
C79   C84   1.404373 A    
C62   C63   1.397113 A    
C12   C13   1.550851 S    
Zn3   O5    1.944461 S    
O23   C87   1.279129 A    
C37   C38   1.400471 A    
O26   C86   1.286600 A    
O15   C85   1.278678 A    
C56   C89   1.438382 S    
C43   H40   1.083194 S    
O22   C90   1.277466 A    
C94   H73   1.109412 S    
O11   C4    1.276343 A    
C6    C11   1.492799 S    
O16   C86   1.273250 A    
C26   H29   1.113108 S    
C40   C41   1.397499 A    
C92   H67   1.111081 S    
Zn7   O18   1.926742 S    
C97   H85   1.109942 S    
C38   C39   1.413685 A    
C10   C14   1.546572 S    
C18   C19   1.555563 S    
C67   H57   1.082022 S    
Zn4   O7    1.944124 S    
C45   C46   1.397343 A    
C16   C20   1.551257 S    
C23   C27   1.556714 S    
C17   N1    1.468765 S    
C18   C22   1.541045 S    
C70   C95   1.512867 S    
C31   C36   1.396742 A    
C38   C88   1.450812 S    
C92   H66   1.109944 S    
Zn4   O2    1.929910 S    
C32   C33   1.407194 A    
O4    C3    1.284877 A    
C94   H72   1.109965 S    
N3    O31   1.301613 A    
O3    C2    1.281364 A    
Zn8   O24   1.929864 S    
C26   C30   1.540588 S    
C68   C69   1.405067 A    
C25   H32   1.115989 S    
Zn2   O1    1.959172 S    
Zn1   O9    1.950941 S    
C20   C87   1.499771 S    
Zn2   O6    1.945058 S    
Zn7   O21   1.944956 S    
C14   H9    1.112116 S    
C24   C91   1.558536 S    
C55   H49   1.085656 S    
H44   C54   1.082489 S    
C58   C59   1.398303 A    
C82   H64   1.082439 S    
C74   C86   1.459523 S    
O19   C89   1.272972 A    
N1    O28   1.301078 A    
O25   C85   1.279301 A    
C43   C44   1.406609 A    
Zn1   O3    1.929129 S    
H17   C21   1.112826 S    
O12   C1    1.282641 A    
Zn2   O4    1.937979 S    
C15   H13   1.110091 S    
C7    H2    1.113525 S    
C67   C68   1.395697 A    
C65   H55   1.083206 S    
Zn3   O1    1.947392 S    
C96   H78   1.110233 S    
C61   C62   1.397831 A    
C49   C54   1.396997 A    
C98   H81   1.110148 S    
C75   C84   1.482297 S    
C95   H79   1.109828 S    
C18   H19   1.113516 S    
C51   C52   1.403827 A    
C64   H54   1.082079 S    
C44   N3    1.439543 S    
C93   H74   1.112178 S    
N3    O32   1.300854 A    
H6    C13   1.112962 S    
Zn5   O14   1.939885 S    
C69   C70   1.418990 A    
C81   H63   1.083022 S    
Zn4   O11   1.941426 S    
C73   C74   1.398977 A    
C62   H52   1.082326 S    
C76   H61   1.085130 S    
C13   H12   1.113141 S    
C98   H82   1.107028 S    
C73   H60   1.085069 S    
O17   C87   1.284576 A    
H5    C9    1.112641 S    
C51   C60   1.478118 S    
O5    C4    1.280749 A    
C47   C48   1.402449 A    
C8    C12   1.552129 S    
C59   C60   1.410794 A    
C83   C84   1.403878 A    
C10   H7    1.113125 S    
C20   C22   1.557472 S    
C97   H84   1.111970 S    
C25   C29   1.560082 S    
C50   H46   1.083173 S    
C37   C42   1.390574 A    
H33   C36   1.081746 S    
C39   C40   1.387231 A    
Zn6   O25   1.944461 S    
C7    C11   1.555656 S    
O18   C88   1.282208 A    
C23   H24   1.109566 S    
C17   C21   1.555304 S    
Zn4   O1    1.953278 S    
C75   C76   1.388917 A    
C14   H10   1.113038 S    
C63   C64   1.398180 A    
C91   C92   1.529353 S    
Zn8   O14   1.953278 S    
C8    H3    1.110067 S    
C18   H18   1.113438 S    
C9    H11   1.109429 S    
C68   H58   1.082861 S    
C93   H75   1.108459 S    
C26   H28   1.110902 S    
Zn1   O10   1.947705 S    
Zn8   O15   1.941422 S    
C56   C57   1.407883 A    
C53   H48   1.082260 S    
N2    O30   1.301083 A    
C91   H69   1.109244 S    
C46   H42   1.082700 S    
C81   C82   1.397664 A    
C58   H50   1.085396 S    
