data_mof_unit_1854.cif
_audit_creation_date              2013-03-05T15:46:20-0500
_audit_creation_method            fapswitch 2.2
_symmetry_space_group_name_H-M    P1
_symmetry_Int_Tables_number       1
_space_group_crystal_system       triclinic
_cell_length_a                    10.244013
_cell_length_b                    10.634116
_cell_length_c                    10.740079
_cell_angle_alpha                 91.416165
_cell_angle_beta                  96.006053
_cell_angle_gamma                 81.755508
_cell_volume                      1151.47806019

loop_
_atom_site_label
_atom_site_type_symbol
_atom_site_description
_atom_site_fract_x
_atom_site_fract_y
_atom_site_fract_z
_atom_type_partial_charge
O1    O     O_R   0.568950 0.489660 0.307530 -0.620616
O2    O     O_R   0.348880 0.522640 0.340350 -0.596100
C1    C     C_R   0.443906 0.512506 0.267163 0.909777
O3    O     O_R   0.610060 0.300270 0.483590 -0.610713
O4    O     O_R   0.389990 0.333260 0.516410 -0.608946
C2    C     C_R   0.498747 0.261081 0.497692 0.849845
Zn1   Zn    Zn3+2 0.646940 0.477980 0.478090 0.925150
Zn2   Zn    Zn3+2 0.353060 0.522020 0.521910 0.939276
O5    O     O_R   0.651120 0.477360 0.659650 -0.624297
O6    O     O_R   0.431050 0.510340 0.692470 -0.618867
O7    O     O_R   0.610010 0.666740 0.483590 -0.641928
O8    O     O_R   0.389940 0.699730 0.516410 -0.605501
C3    C     C_R   0.555944 0.490581 0.733020 0.884458
C4    C     C_R   0.499601 0.739165 0.495711 0.860223
H1    H     H_    0.424923 0.127788 0.671581 0.153198
C5    C     C_R   0.559922 0.119804 0.273056 -0.247855
H2    H     H_    0.549338 0.222107 0.266065 0.166673
C6    C     C_R   0.600938 0.048371 0.170406 -0.234775
H3    H     H_    0.623023 0.096809 0.089516 0.180310
C7    C     C_R   0.616531 0.915842 0.173296 0.396484
C8    C     C_R   0.582565 0.855706 0.277804 -0.276205
H4    H     H_    0.589116 0.753471 0.274970 0.184878
C9    C     C_R   0.539017 0.927359 0.382469 0.040352
C10   C     C_R   0.532185 0.059894 0.381355 0.107643
C11   C     C_R   0.494494 0.129217 0.488393 -0.084665
C12   C     C_R   0.454590 0.072441 0.590444 -0.210144
H5    H     H_    0.425656 0.899528 0.670076 0.163743
C13   C     C_R   0.455725 0.943745 0.589770 -0.178900
C14   C     C_R   0.499345 0.871765 0.488210 -0.077521
H6    H     H_    0.411750 0.612156 0.891378 0.167742
H7    H     H_    0.612303 0.555117 0.115082 0.227241
C15   C     C_2   0.413226 0.533795 0.133990 -0.393174
C16   C     C_2   0.513295 0.551643 0.069542 -0.139984
C17   C     C_2   0.585990 0.481637 0.867881 -0.053686
C18   C     C_2   0.498542 0.552389 0.935592 -0.139495
H8    H     H_    0.313651 0.531083 0.088752 0.166030
H9    H     H_    0.107692 0.407467 0.433106 0.152074
N1    N     N_2   0.157290 0.551390 0.551110 -0.204977
C19   C     C_2   0.072709 0.484026 0.495345 -0.132225
H10   H     H_    0.877756 0.387857 0.379794 0.148803
N2    N     N_2   0.842740 0.448550 0.448960 -0.208880
C20   C     C_2   0.929464 0.506895 0.516940 0.139412
H11   H     H_    0.126388 0.630608 0.602447 0.178782
C21   C     C_3   0.890211 0.598331 0.622310 -0.309683
C22   C     C_3   0.949207 0.545434 0.751069 -0.468511
C23   C     C_3   0.904985 0.635839 0.856073 -0.746795
H12   H     H_    0.940956 0.728577 0.847128 0.264562
H13   H     H_    0.795143 0.651726 0.852520 0.295941
H14   H     H_    0.946705 0.594361 0.948087 0.257600
H15   H     H_    0.917425 0.451451 0.762371 0.241940
H16   H     H_    0.059051 0.529953 0.759858 0.228325
H17   H     H_    0.920077 0.692612 0.607119 0.160771
H18   H     H_    0.784258 0.620409 0.624428 0.270260
N3    N     N_R   0.668828 0.842361 0.071277 0.196021
O9    O     O_R   0.656715 0.890083 0.959544 -0.449359
O10   O     O_R   0.742032 0.733157 0.092591 -0.457080
C24   C     C_3   0.701315 0.386119 0.924367 -0.421573
C25   C     C_3   0.699911 0.252891 0.865713 -0.369527
C26   C     C_3   0.820991 0.161443 0.917622 -0.819900
H19   H     H_    0.913235 0.194347 0.893273 0.249062
H20   H     H_    0.824885 0.155065 0.021029 0.258688
H21   H     H_    0.815727 0.065380 0.876150 0.283172
H22   H     H_    0.608273 0.215683 0.885599 0.227337
H23   H     H_    0.700859 0.256272 0.762567 0.240213
H24   H     H_    0.795327 0.420492 0.911155 0.219974
H25   H     H_    0.700361 0.376015 0.026737 0.215917

loop_
_geom_bond_atom_site_label_1
_geom_bond_atom_site_label_2
_geom_bond_distance
_ccdc_geom_bond_type
O4    Zn2   1.989189 S    
C9    C10   1.401363 A    
H7    C16   1.084112 S    
C7    N3    1.434786 S    
C17   C24   1.527025 S    
N2    C20   1.306612 D    
N3    O9    1.301482 A    
C12   C13   1.366788 A    
C24   H25   1.108532 S    
Zn2   O8    1.983046 S    
C15   C16   1.332946 D    
C21   H17   1.109918 S    
C8    C9    1.417157 A    
O2    C1    1.304957 A    
C11   C12   1.389310 A    
N1    H11   1.025168 S    
C5    C10   1.413236 A    
O1    Zn1   1.919852 S    
C22   C23   1.526344 S    
C7    C8    1.403885 A    
Zn1   O7    1.989190 S    
C23   H14   1.110360 S    
C24   C25   1.537562 S    
N1    C19   1.292599 D    
C20   C21   1.522028 S    
H6    C18   1.088314 S    
O3    Zn1   1.983046 S    
C22   H15   1.107776 S    
C5    C6    1.390326 A    
H10   N2    1.030884 S    
C16   C18   1.430839 S    
O8    C4    1.295848 A    
C17   C18   1.346631 D    
C19   C20   1.494090 S    
C6    C7    1.396151 A    
Zn1   N2    2.040936 S    
C25   H23   1.110370 S    
O4    C2    1.290275 A    
C9    C14   1.415302 A    
O7    C4    1.290498 A    
N3    O10   1.300310 A    
C26   H20   1.110544 S    
O3    C2    1.293218 A    
C22   H16   1.107969 S    
C4    C14   1.413978 S    
C2    C11   1.409927 S    
C23   H13   1.110376 S    
C15   H8    1.086930 S    
C26   H19   1.111225 S    
C10   C11   1.408345 A    
H9    C19   1.085179 S    
C6    H3    1.080711 S    
H5    C13   1.084920 S    
Zn1   O5    1.946107 S    
O5    C3    1.306634 A    
C23   H12   1.110817 S    
C13   C14   1.392118 A    
H1    C12   1.084852 S    
C3    C17   1.451486 S    
C1    C15   1.448209 S    
O1    C1    1.299059 A    
C25   C26   1.526795 S    
C8    H4    1.079465 S    
C21   H18   1.079584 S    
Zn2   O6    1.919853 S    
O2    Zn2   1.946107 S    
C21   C22   1.536254 S    
C25   H22   1.111782 S    
C24   H24   1.101523 S    
C5    H2    1.081397 S    
C26   H21   1.110471 S    
O6    C3    1.296745 A    
Zn2   N1    2.040820 S    
