data_mof_unit_1048.cif
_audit_creation_date              2013-03-05T15:49:19-0500
_audit_creation_method            fapswitch 2.2
_symmetry_space_group_name_H-M    P1
_symmetry_Int_Tables_number       1
_space_group_crystal_system       triclinic
_cell_length_a                    23.801912
_cell_length_b                    25.794263
_cell_length_c                    8.596826
_cell_angle_alpha                 90.352025
_cell_angle_beta                  99.053204
_cell_angle_gamma                 90.078677
_cell_volume                      5212.18174929

loop_
_atom_site_label
_atom_site_type_symbol
_atom_site_description
_atom_site_fract_x
_atom_site_fract_y
_atom_site_fract_z
_atom_type_partial_charge
P1    P     P_3+3 0.883430 0.443490 0.026090 0.453205
P2    P     P_3+3 0.883430 0.556510 0.526090 0.502493
P3    P     P_3+3 0.383430 0.943490 0.026090 0.453183
P4    P     P_3+3 0.383430 0.056510 0.526090 0.502439
O1    O     O_2   0.888900 0.426190 0.854560 -0.355191
O2    O     O_2   0.888900 0.573810 0.354560 -0.367454
O3    O     O_2   0.388900 0.926190 0.854560 -0.355203
O4    O     O_2   0.388900 0.073810 0.354560 -0.367362
O5    O     O_3   0.935290 0.474120 0.115310 -0.438489
O6    O     O_3   0.935290 0.525880 0.615310 -0.373174
O7    O     O_3   0.435290 0.974120 0.115310 -0.438475
O8    O     O_3   0.435290 0.025880 0.615310 -0.373164
O9    O     O_3   0.980700 0.380570 0.633410 -0.356109
O10   O     O_3   0.980700 0.619430 0.133410 -0.351390
O11   O     O_3   0.480700 0.880570 0.633410 -0.356162
O12   O     O_3   0.480700 0.119430 0.133410 -0.352146
O13   O     O_2   0.882522 0.344560 0.711205 -0.404494
O14   O     O_2   0.883931 0.657479 0.200904 -0.381225
O15   O     O_2   0.382539 0.844548 0.711295 -0.404489
O16   O     O_2   0.383698 0.157242 0.200427 -0.381310
O17   O     O_3   0.828623 0.488845 0.977760 -0.588810
O18   O     O_3   0.820974 0.518629 0.491553 -0.593168
O19   O     O_3   0.328634 0.988856 0.977756 -0.588841
O20   O     O_3   0.320971 0.018633 0.491538 -0.593143
O21   O     O_3   0.947783 0.273104 0.635977 -0.605329
O22   O     O_3   0.957548 0.727819 0.164304 -0.568469
O23   O     O_3   0.447772 0.773105 0.635869 -0.605343
O24   O     O_3   0.456978 0.227877 0.164238 -0.569094
C1    C     C_3   0.940030 0.203503 0.450244 -0.965772
C2    C     C_3   0.962273 0.814271 0.062785 -1.060734
C3    C     C_3   0.439874 0.703571 0.449864 -0.965485
C4    C     C_3   0.463846 0.314257 0.063856 -1.061896
H1    H     H_    0.936852 0.175650 0.546550 0.241608
H2    H     H_    0.979213 0.828959 0.182579 0.256854
H3    H     H_    0.436580 0.675725 0.546110 0.241589
H4    H     H_    0.480491 0.328468 0.184380 0.256866
H5    H     H_    0.896591 0.214649 0.395269 0.217844
H6    H     H_    0.915286 0.819196 0.043482 0.222025
H7    H     H_    0.396481 0.714803 0.394736 0.217765
H8    H     H_    0.417031 0.320231 0.042712 0.222414
P5    P     P_3+3 0.116320 0.442910 0.663460 0.469392
P6    P     P_3+3 0.116320 0.557090 0.163460 0.491465
P7    P     P_3+3 0.616320 0.942910 0.663460 0.469247
P8    P     P_3+3 0.616320 0.057090 0.163460 0.491510
P9    P     P_3+3 0.078611 0.338692 0.098716 0.400916
P10   P     P_3+3 0.073009 0.666072 0.603321 0.411050
P11   P     P_3+3 0.578623 0.838692 0.098718 0.400987
P12   P     P_3+3 0.573044 0.166041 0.603365 0.409805
O25   O     O_2   0.110790 0.425640 0.834940 -0.346367
O26   O     O_2   0.110790 0.574360 0.334940 -0.367530
O27   O     O_2   0.610790 0.925640 0.834940 -0.346111
O28   O     O_2   0.610790 0.074360 0.334940 -0.367991
O29   O     O_3   0.018840 0.380480 0.055970 -0.427342
O30   O     O_3   0.018840 0.619520 0.555970 -0.338583
O31   O     O_3   0.518840 0.880480 0.055970 -0.427459
O32   O     O_3   0.518840 0.119520 0.555970 -0.339134
O33   O     O_2   0.107581 0.331278 0.950658 -0.404157
O34   O     O_2   0.119601 0.653284 0.502680 -0.412123
O35   O     O_2   0.607653 0.831360 0.950741 -0.404014
O36   O     O_2   0.619551 0.153374 0.502332 -0.413039
O37   O     O_3   0.174896 0.484797 0.698062 -0.571394
O38   O     O_3   0.180265 0.522590 0.182263 -0.521058
O39   O     O_3   0.674919 0.984770 0.698105 -0.571750
O40   O     O_3   0.680235 0.022542 0.182295 -0.520938
O41   O     O_3   0.051703 0.276894 0.129325 -0.624257
O42   O     O_3   0.047200 0.725990 0.528086 -0.587570
O43   O     O_3   0.551776 0.776850 0.129039 -0.624182
O44   O     O_3   0.547192 0.226032 0.528885 -0.588729
C5    C     C_3   0.008146 0.260443 0.009964 1.111654
C6    C     C_3   0.010794 0.748263 0.624784 1.078121
C7    C     C_3   0.508121 0.760480 0.009847 1.111474
C8    C     C_3   0.510602 0.248030 0.625534 1.078148
H9    H     H_    0.996219 0.290804 0.918790 0.082317
H10   H     H_    0.017514 0.732742 0.746617 -0.042939
H11   H     H_    0.496214 0.790857 0.918706 0.082305
H12   H     H_    0.517093 0.232189 0.746965 -0.042523
C9    C     C_3   0.030574 0.212787 0.933068 -0.887578
C10   C     C_3   0.949280 0.736907 0.553123 -0.861280
C11   C     C_3   0.530394 0.712784 0.932795 -0.887503
C12   C     C_3   0.449167 0.236820 0.552823 -0.861674
H13   H     H_    0.997946 0.196670 0.838937 0.238485
H14   H     H_    0.942541 0.694649 0.535532 0.235331
H15   H     H_    0.497689 0.696729 0.838757 0.238540
H16   H     H_    0.442434 0.194606 0.534048 0.236056
H17   H     H_    0.069069 0.223327 0.882089 0.259956
H18   H     H_    0.938531 0.756483 0.437782 0.276242
H19   H     H_    0.568878 0.723254 0.881674 0.259936
H20   H     H_    0.438625 0.256728 0.437971 0.276122
C13   C     C_3   0.175596 0.476440 0.261257 0.341475
C14   C     C_3   0.158261 0.534255 0.739333 0.289971
C15   C     C_3   0.675559 0.976434 0.261493 0.341553
C16   C     C_3   0.658292 0.034265 0.739041 0.289753
H21   H     H_    0.155454 0.482997 0.367739 0.088722
H22   H     H_    0.136481 0.532228 0.843919 0.095319
H23   H     H_    0.655302 0.983015 0.367744 0.088686
H24   H     H_    0.636457 0.032318 0.843541 0.095452
C17   C     C_3   0.234947 0.454732 0.314977 0.170920
C18   C     C_3   0.211600 0.567951 0.776668 0.117404
C19   C     C_3   0.734910 0.954825 0.315769 0.170906
C20   C     C_3   0.711645 0.067949 0.776336 0.116388
Ba1   Ba    Ba6+2 0.999910 0.463090 0.844860 1.554438
Ba2   Ba    Ba6+2 0.999910 0.536910 0.344860 1.558731
Ba3   Ba    Ba6+2 0.499910 0.963090 0.844860 1.554320
Ba4   Ba    Ba6+2 0.499910 0.036910 0.344860 1.558394
C21   C     C_3   0.807295 0.505272 0.112657 0.378731
C22   C     C_3   0.830378 0.465632 0.521852 0.431194
C23   C     C_3   0.307321 0.005305 0.112657 0.378843
C24   C     C_3   0.330366 0.965637 0.521859 0.431232
H25   H     H_    0.799288 0.547608 0.102562 0.099421
H26   H     H_    0.829037 0.444910 0.409206 0.044149
H27   H     H_    0.299373 0.047651 0.102591 0.099613
H28   H     H_    0.329006 0.944910 0.409213 0.044158
H29   H     H_    0.837890 0.499591 0.221044 0.140598
H30   H     H_    0.871232 0.456740 0.595708 0.175400
H31   H     H_    0.337901 0.999586 0.221055 0.140601
H32   H     H_    0.371226 0.956740 0.595686 0.175373
C25   C     C_3   0.751050 0.478302 0.122920 -1.029125
C26   C     C_3   0.781489 0.444194 0.596862 -0.948367
C27   C     C_3   0.251038 0.978399 0.122880 -1.029176
C28   C     C_3   0.281483 0.944213 0.596918 -0.948489
H33   H     H_    0.720715 0.484410 0.012529 0.267747
H34   H     H_    0.740905 0.448071 0.514137 0.238068
H35   H     H_    0.220717 0.984541 0.012485 0.267747
H36   H     H_    0.240895 0.948080 0.514201 0.238030
H37   H     H_    0.732452 0.494575 0.223261 0.250978
H38   H     H_    0.788657 0.402549 0.624799 0.244930
H39   H     H_    0.232457 0.994690 0.223224 0.251015
H40   H     H_    0.288654 0.902571 0.624907 0.244922
O45   O     O_3   0.064650 0.525760 0.074400 -0.441651
O46   O     O_3   0.064650 0.474240 0.574400 -0.423082
O47   O     O_3   0.564650 0.025760 0.074400 -0.441491
O48   O     O_3   0.564650 0.974240 0.574400 -0.423123
P13   P     P_3+3 0.927995 0.668562 0.090797 0.474149
P14   P     P_3+3 0.922848 0.335909 0.589715 0.432086
P15   P     P_3+3 0.427850 0.168475 0.090726 0.474214
P16   P     P_3+3 0.422836 0.835918 0.589718 0.431987
C29   C     C_3   0.974268 0.251260 0.515316 1.129905
C30   C     C_3   0.976678 0.756998 0.043717 1.110731
C31   C     C_3   0.474200 0.751262 0.515093 1.129938
C32   C     C_3   0.476861 0.256705 0.044180 1.110022
H41   H     H_    0.960750 0.183857 0.359109 0.248696
H42   H     H_    0.980157 0.837894 0.974378 0.251363
H43   H     H_    0.460598 0.683882 0.358816 0.248723
H44   H     H_    0.482898 0.337547 0.976963 0.251912
H45   H     H_    0.194075 0.650167 0.231197 0.157938
H46   H     H_    0.194839 0.348681 0.731111 0.147875
H47   H     H_    0.694325 0.149990 0.230903 0.157811
H48   H     H_    0.694841 0.848687 0.731167 0.147909
H49   H     H_    0.825033 0.275453 0.411321 0.163243
H50   H     H_    0.834742 0.733154 0.902457 0.162600
H51   H     H_    0.324895 0.775560 0.411519 0.163339
H52   H     H_    0.334638 0.233085 0.902426 0.162959
C33   C     C_R   0.893452 0.380337 0.293000 0.225961
C34   C     C_R   0.902739 0.628218 0.780609 0.251076
C35   C     C_R   0.393421 0.880352 0.293022 0.226033
C36   C     C_R   0.402713 0.128206 0.780536 0.250922
C37   C     C_R   0.865150 0.385382 0.138389 0.193494
C38   C     C_R   0.870839 0.619141 0.631855 0.198614
C39   C     C_R   0.365100 0.885409 0.138437 0.193288
C40   C     C_R   0.370828 0.119136 0.631778 0.198569
C41   C     C_R   0.821284 0.349487 0.080801 -0.394313
C42   C     C_R   0.826531 0.654346 0.576555 -0.328620
C43   C     C_R   0.321165 0.849567 0.080947 -0.394521
C44   C     C_R   0.326510 0.154329 0.576451 -0.328578
C45   C     C_R   0.806519 0.308886 0.178543 0.111554
C46   C     C_R   0.814361 0.697078 0.671526 0.111018
C47   C     C_R   0.306358 0.809000 0.178750 0.111532
C48   C     C_R   0.314312 0.197045 0.671437 0.110565
C49   C     C_R   0.836053 0.305497 0.333978 -0.342946
C50   C     C_R   0.844887 0.702131 0.826130 -0.365496
C51   C     C_R   0.335933 0.805585 0.334136 -0.343283
C52   C     C_R   0.344810 0.202081 0.826069 -0.365611
C53   C     C_R   0.880059 0.340609 0.389849 0.101721
C54   C     C_R   0.889015 0.667414 0.881768 0.062862
C55   C     C_R   0.380004 0.840646 0.389911 0.101839
C56   C     C_R   0.388948 0.167375 0.881691 0.063686
C57   C     C_R   0.168810 0.655830 0.116400 -0.231628
C58   C     C_R   0.176392 0.347791 0.607692 -0.236211
C59   C     C_R   0.669051 0.155668 0.116126 -0.231082
C60   C     C_R   0.676384 0.847783 0.607756 -0.236602
C61   C     C_R   0.124946 0.619733 0.059951 0.341166
C62   C     C_R   0.135830 0.385772 0.547820 0.322082
C63   C     C_R   0.625060 0.119675 0.059870 0.340834
C64   C     C_R   0.635812 0.885756 0.547873 0.322148
C65   C     C_R   0.106651 0.666810 0.812847 0.188652
C66   C     C_R   0.128665 0.347365 0.286098 0.296961
C67   C     C_R   0.606811 0.166706 0.812730 0.190348
C68   C     C_R   0.628646 0.847340 0.286171 0.297106
C69   C     C_R   0.149997 0.702552 0.869080 -0.245098
C70   C     C_R   0.168611 0.309064 0.344958 -0.289077
C71   C     C_R   0.650261 0.202367 0.868777 -0.246039
C72   C     C_R   0.668601 0.809045 0.345037 -0.289109
C73   C     C_R   0.180917 0.698329 0.022278 0.083239
C74   C     C_R   0.193784 0.309336 0.505769 0.056438
C75   C     C_R   0.681223 0.198117 0.021902 0.083147
C76   C     C_R   0.693778 0.809325 0.505848 0.056523
C77   C     C_1   0.225431 0.737156 0.078298 -0.036866
C78   C     C_1   0.235700 0.269238 0.565020 -0.033869
C79   C     C_1   0.725714 0.236957 0.077938 -0.036694
C80   C     C_1   0.735717 0.769246 0.565110 -0.033828
C81   C     C_1   0.762189 0.269967 0.121914 -0.014699
C82   C     C_1   0.770973 0.735967 0.612527 0.010444
C83   C     C_1   0.261953 0.770132 0.122216 -0.014701
C84   C     C_1   0.270938 0.235944 0.612427 0.010674
C85   C     C_R   0.092986 0.627212 0.910819 -0.428715
C86   C     C_R   0.116028 0.386029 0.386883 -0.589419
C87   C     C_R   0.593071 0.127179 0.910807 -0.427283
C88   C     C_R   0.616000 0.885999 0.386947 -0.589503
H53   H     H_    0.160658 0.732777 0.791885 0.125097
H54   H     H_    0.177922 0.277897 0.268015 0.157322
H55   H     H_    0.660944 0.232566 0.791523 0.125487
H56   H     H_    0.677922 0.777882 0.268095 0.157338
H57   H     H_    0.798685 0.353427 0.961940 0.181867
H58   H     H_    0.801650 0.648408 0.461101 0.174555
H59   H     H_    0.298544 0.853524 0.962116 0.181851
H60   H     H_    0.301646 0.148393 0.460973 0.174688
O49   O     O_3   0.029045 0.234779 0.585530 -0.647011
C89   C     C_3   0.068231 0.238771 0.479940 -0.228947
H61   H     H_    0.072341 0.279749 0.446079 0.157243
H62   H     H_    0.055796 0.213749 0.374476 0.174129
H63   H     H_    0.110367 0.225522 0.539999 0.177670
O50   O     O_3   0.035769 0.750384 0.040957 -0.703729
C90   C     C_3   0.068128 0.749566 0.193229 -0.061458
H64   H     H_    0.053904 0.778571 0.274610 0.161216
H65   H     H_    0.112827 0.759326 0.184156 0.121415
H66   H     H_    0.067417 0.709919 0.242324 0.214992
O51   O     O_3   0.528952 0.734677 0.585198 -0.647026
C91   C     C_3   0.568149 0.738709 0.479640 -0.228898
H67   H     H_    0.572308 0.779707 0.446007 0.157129
H68   H     H_    0.555687 0.713750 0.374030 0.174283
H69   H     H_    0.610271 0.725399 0.539641 0.177641
O52   O     O_3   0.535751 0.248861 0.041506 -0.704484
C92   C     C_3   0.568054 0.247907 0.193836 -0.059239
H70   H     H_    0.554331 0.277276 0.274890 0.160588
H71   H     H_    0.612885 0.257028 0.184814 0.121173
H72   H     H_    0.566655 0.208385 0.243354 0.216137
O53   O     O_3   0.265132 0.488669 0.428001 -0.562397
C93   C     C_3   0.317711 0.466181 0.490536 -0.182355
H73   H     H_    0.343819 0.457949 0.396634 0.128984
H74   H     H_    0.311389 0.430264 0.556797 0.128066
H75   H     H_    0.341776 0.494064 0.574667 0.147916
O54   O     O_3   0.242613 0.554585 0.925262 -0.565014
C94   C     C_3   0.291542 0.525865 0.907022 -0.074556
H76   H     H_    0.313288 0.514203 0.025288 0.141339
H77   H     H_    0.321829 0.549893 0.851969 0.102848
H78   H     H_    0.280391 0.489880 0.837000 0.147088
O55   O     O_3   0.764962 0.988900 0.428584 -0.562420
C95   C     C_3   0.817273 0.966296 0.492852 -0.182883
H79   H     H_    0.843575 0.957425 0.399902 0.128909
H80   H     H_    0.810494 0.930742 0.560242 0.128352
H81   H     H_    0.841357 0.994364 0.576278 0.147970
O56   O     O_3   0.742415 0.054901 0.925522 -0.565374
C96   C     C_3   0.791276 0.025891 0.908568 -0.074123
H82   H     H_    0.812830 0.014507 0.027304 0.141906
H83   H     H_    0.821753 0.049594 0.853209 0.102468
H84   H     H_    0.780061 0.989737 0.839460 0.146452
H85   H     H_    0.230441 0.415643 0.365781 0.026494
H86   H     H_    0.198738 0.608961 0.782886 0.069589
H87   H     H_    0.730400 0.915771 0.366815 0.026367
H88   H     H_    0.698804 0.108995 0.781474 0.070060
H89   H     H_    0.257167 0.450828 0.210739 0.082774
H90   H     H_    0.236631 0.565755 0.677260 0.118936
H91   H     H_    0.757252 0.950849 0.211808 0.082346
H92   H     H_    0.736874 0.065478 0.677404 0.119775
H93   H     H_    0.757644 0.436152 0.141685 0.250531
H94   H     H_    0.777749 0.465859 0.706338 0.289599
H95   H     H_    0.257575 0.936241 0.141620 0.250595
H96   H     H_    0.277748 0.965893 0.706369 0.289623
H97   H     H_    0.975591 0.278376 0.414979 -0.056991
H98   H     H_    0.954205 0.746499 0.925004 -0.065485
H99   H     H_    0.475562 0.778411 0.414858 -0.057059
H100  H     H_    0.454110 0.246685 0.925369 -0.064495
H101  H     H_    0.042388 0.182166 0.022558 0.228209
H102  H     H_    0.920270 0.751708 0.632277 0.184519
H103  H     H_    0.542182 0.682140 0.022225 0.228231
H104  H     H_    0.420013 0.251373 0.631904 0.184579
O57   O     O_3   0.931503 0.417730 0.357196 -0.642678
C97   C     C_3   0.986005 0.402458 0.332819 0.166069
H105  H     H_    0.003200 0.430149 0.257358 0.169397
H106  H     H_    0.990736 0.360827 0.301235 0.017715
H107  H     H_    0.015867 0.408879 0.437723 0.140001
O58   O     O_3   0.946858 0.596149 0.832285 -0.662726
C98   C     C_3   0.925585 0.557155 0.919399 0.150954
H108  H     H_    0.900938 0.527996 0.844114 0.132414
H109  H     H_    0.897560 0.570501 0.003565 0.076091
H110  H     H_    0.963599 0.540404 0.987419 0.227162
O59   O     O_3   0.431487 0.917737 0.357194 -0.642681
C99   C     C_3   0.485983 0.902454 0.332804 0.166026
H111  H     H_    0.503184 0.930141 0.257348 0.169418
H112  H     H_    0.490703 0.860823 0.301206 0.017644
H113  H     H_    0.515846 0.908878 0.437703 0.140048
O60   O     O_3   0.446844 0.096148 0.832232 -0.662630
C100  C     C_3   0.425592 0.057142 0.919353 0.151267
H114  H     H_    0.400959 0.027973 0.844083 0.132401
H115  H     H_    0.397550 0.070467 0.003490 0.076126
H116  H     H_    0.463610 0.040407 0.987399 0.227089
H117  H     H_    0.060808 0.599106 0.864579 0.184907
H118  H     H_    0.091374 0.418046 0.336620 0.109066
H119  H     H_    0.560794 0.099144 0.864711 0.184714
H120  H     H_    0.591349 0.918012 0.336660 0.109037
O61   O     O_3   0.961820 0.245165 0.084559 -0.664141
C101  C     C_3   0.909717 0.250080 0.982688 -0.298430
H121  H     H_    0.909061 0.227360 0.872309 0.176317
H122  H     H_    0.900416 0.291446 0.956726 0.196537
H123  H     H_    0.875470 0.234463 0.042817 0.187645
O62   O     O_3   0.017799 0.802769 0.629388 -0.631175
C102  C     C_3   0.072519 0.816256 0.707612 -0.272900
H124  H     H_    0.105938 0.803363 0.639103 0.158086
H125  H     H_    0.080753 0.800542 0.829069 0.167839
H126  H     H_    0.075259 0.859110 0.717587 0.175009
O63   O     O_3   0.461822 0.745284 0.084663 -0.664253
C103  C     C_3   0.409683 0.750319 0.983033 -0.298664
H127  H     H_    0.408913 0.727645 0.872524 0.176439
H128  H     H_    0.400463 0.791711 0.957296 0.196511
H129  H     H_    0.375450 0.734734 0.043271 0.187652
O64   O     O_3   0.517622 0.302530 0.631553 -0.631184
C104  C     C_3   0.572316 0.315861 0.710289 -0.273345
H130  H     H_    0.605752 0.303338 0.641347 0.158869
H131  H     H_    0.580572 0.299689 0.831167 0.167377
H132  H     H_    0.574993 0.358681 0.721782 0.174910
H133  H     H_    0.151201 0.448651 0.177362 0.012864
H134  H     H_    0.129561 0.551930 0.639496 0.090391
H135  H     H_    0.651283 0.948577 0.177612 0.012726
H136  H     H_    0.629639 0.051893 0.639027 0.090710

loop_
_geom_bond_atom_site_label_1
_geom_bond_atom_site_label_2
_geom_bond_distance
_ccdc_geom_bond_type
C2    C30   1.530671 S    
P1    Ba1   3.425580 S    
C24   C28   1.521329 S    
C90   H64   1.110242 S    
P5    O37   1.749610 S    
C11   H19   1.110232 S    
C90   H66   1.109857 S    
P7    O39   1.749608 S    
C59   C75   1.422270 A    
O61   C101  1.407479 S    
P8    O40   1.750054 S    
P9    O33   1.551037 D    
O58   C98   1.398601 S    
C57   C73   1.422292 A    
O23   P16   1.752480 S    
C34   C38   1.398913 A    
C50   C54   1.408410 A    
O10   Ba2   2.798714 S    
C1    H1    1.110944 S    
C12   H104  1.109377 S    
C2    H6    1.112069 S    
O14   P13   1.546827 D    
C46   C82   1.474537 S    
C6    O62   1.415142 S    
O12   Ba4   2.798714 S    
O28   Ba4   2.823193 S    
C20   H92   1.117222 S    
C6    H10   1.111522 S    
P4    O8    1.564725 S    
Ba3   O48   2.999634 S    
C14   H134  1.110089 S    
C17   H89   1.114023 S    
Ba1   O46   2.999634 S    
C18   H86   1.104953 S    
C19   H91   1.113859 S    
C22   C26   1.521332 S    
P5    O25   1.567787 D    
C91   H67   1.106447 S    
C95   H80   1.112759 S    
P6    C61   1.875936 S    
C45   C49   1.411853 A    
O1    Ba1   2.820953 S    
C99   H113  1.068673 S    
C9    H101  1.111219 S    
C44   C48   1.424628 A    
C29   H97   1.118106 S    
C47   C51   1.411883 A    
O15   P16   1.541148 D    
O64   C104  1.410599 S    
C66   C70   1.411883 A    
C104  H132  1.109163 S    
C10   H14   1.107503 S    
O51   C91   1.404284 S    
O44   C8    1.412111 S    
O19   C23   1.400715 S    
O62   C102  1.410621 S    
O4    Ba4   2.823055 S    
C58   C62   1.417495 A    
C78   C84   1.227114 T    
P5    C62   1.872235 S    
C34   O58   1.358103 S    
C88   H120  1.067208 S    
C72   C76   1.417575 A    
C30   H98   1.106979 S    
P3    Ba3   3.425580 S    
Ba2   O46   2.823247 S    
C64   C88   1.389663 A    
P10   O42   1.753341 S    
C27   H35   1.110528 S    
C17   O53   1.412344 S    
Ba3   O47   2.806894 S    
C70   H54   1.083065 S    
C12   H20   1.109131 S    
O42   C6    1.412167 S    
C51   C55   1.407812 A    
P4    Ba4   3.423880 S    
O2    Ba2   2.823055 S    
C3    H43   1.109599 S    
C4    H44   1.111720 S    
P3    O7    1.558237 S    
P11   O35   1.550985 D    
H47   C59   1.082667 S    
C80   C82   1.227132 T    
C67   C87   1.397790 A    
O40   C15   1.387023 S    
O11   Ba3   2.780713 S    
C91   H69   1.108819 S    
C41   C45   1.424457 A    
C60   C64   1.417494 A    
C71   H55   1.082351 S    
O56   C96   1.409990 S    
C33   C53   1.392143 A    
O24   P15   1.753599 S    
C63   C87   1.398478 A    
C5    C9    1.528361 S    
C7    C11   1.528317 S    
H50   C50   1.083129 S    
C5    O61   1.416626 S    
H49   C49   1.082644 S    
C4    H4    1.109336 S    
C21   H29   1.099289 S    
C96   H82   1.109350 S    
H52   C52   1.083120 S    
C30   O50   1.420905 S    
C16   H24   1.107746 S    
H51   C51   1.082653 S    
C103  H127  1.110227 S    
H46   C58   1.082650 S    
C26   H34   1.110780 S    
C72   H56   1.083065 S    
P5    Ba1   3.425477 S    
Ba4   O47   2.997302 S    
C92   H70   1.109922 S    
P6    O38   1.750033 S    
P8    O28   1.562735 D    
C9    H17   1.110247 S    
O3    Ba3   2.820953 S    
O53   C93   1.409185 S    
P10   O34   1.544878 D    
C98   H110  1.088569 S    
P3    C39   1.875169 S    
C75   C79   1.479133 S    
C101  H122  1.106952 S    
C18   O54   1.415967 S    
C2    H2    1.109416 S    
C35   C39   1.399272 A    
C36   C40   1.398767 A    
O11   P16   1.786633 S    
O49   C89   1.404228 S    
O23   C31   1.410849 S    
C48   C84   1.474506 S    
C62   C86   1.389702 A    
C99   H112  1.116181 S    
O21   C29   1.410831 S    
P2    O18   1.762479 S    
C100  H114  1.096340 S    
C18   H90   1.117241 S    
C89   H62   1.110874 S    
C19   H87   1.113037 S    
C43   C47   1.424492 A    
C94   H78   1.112026 S    
C1    H41   1.109617 S    
P8    C63   1.875489 S    
P6    O26   1.562735 D    
C46   C50   1.416022 A    
P9    O41   1.753790 S    
C10   H102  1.109479 S    
C19   O55   1.412190 S    
O13   P14   1.541154 D    
O37   C14   1.396494 S    
C89   H63   1.108767 S    
C42   H58   1.082692 S    
C21   H25   1.110365 S    
C11   H103  1.111212 S    
C23   H27   1.110368 S    
C36   C56   1.401467 A    
C96   H84   1.111996 S    
C90   H65   1.107705 S    
C65   C69   1.408210 A    
O10   P13   1.783106 S    
C103  H129  1.108214 S    
C68   C72   1.411911 A    
C102  H126  1.109226 S    
P15   C56   1.887635 S    
C8    C12   1.523660 S    
C74   C78   1.474446 S    
C57   C61   1.422950 A    
P6    O45   1.563690 S    
C39   C43   1.421837 A    
C13   H21   1.110333 S    
C92   H72   1.109636 S    
C71   C75   1.408787 A    
C15   H23   1.110190 S    
C69   C73   1.408887 A    
C98   H108  1.096376 S    
C49   C53   1.407769 A    
C97   H105  1.089483 S    
C15   C19   1.523804 S    
C3    C31   1.529664 S    
C25   H93   1.107871 S    
C52   C56   1.408374 A    
C27   H39   1.110173 S    
Ba1   Ba2   4.711969 S    
C28   H96   1.107241 S    
C12   H16   1.107530 S    
C91   H68   1.110991 S    
C44   H60   1.082692 S    
C58   C74   1.423931 A    
C93   H75   1.109326 S    
P1    O1    1.563031 D    
C40   C44   1.418810 A    
C4    C32   1.530691 S    
C100  H116  1.088579 S    
P3    O3    1.563031 D    
O25   Ba1   2.825313 S    
P5    O46   1.570285 S    
P4    O20   1.762480 S    
C98   H109  1.111981 S    
O27   Ba3   2.825313 S    
C94   H76   1.109354 S    
O38   C13   1.387045 S    
C36   O60   1.358171 S    
C33   O57   1.374393 S    
C87   H119  1.081356 S    
C104  H131  1.110753 S    
C45   C81   1.479040 S    
C42   C46   1.424655 A    
C43   H59   1.082708 S    
O29   Ba1   2.798246 S    
O5    Ba2   2.807467 S    
C97   H107  1.068669 S    
C5    H9    1.116425 S    
O7    Ba4   2.807467 S    
O20   C24   1.404803 S    
C47   C83   1.479135 S    
C15   H135  1.109749 S    
C76   C80   1.474472 S    
H48   C60   1.082652 S    
C21   C25   1.522935 S    
C23   C27   1.522924 S    
C14   H22   1.107723 S    
C93   H74   1.112877 S    
C102  H124  1.111715 S    
P1    O5    1.558237 S    
O32   Ba4   2.780263 S    
O8    Ba3   2.823843 S    
C85   H117  1.081363 S    
C8    O64   1.415125 S    
C24   H28   1.099276 S    
O59   C99   1.402788 S    
C9    H13   1.108149 S    
P2    C38   1.896188 S    
P10   O30   1.759120 S    
O54   C94   1.409995 S    
P12   O44   1.753261 S    
O21   P14   1.752455 S    
P12   C67   1.852067 S    
O26   Ba2   2.823193 S    
C3    H3    1.110949 S    
C37   C41   1.421789 A    
C95   H79   1.112827 S    
C35   C55   1.392128 A    
C93   H73   1.113126 S    
C68   C88   1.381236 A    
O30   Ba2   2.780263 S    
O6    Ba1   2.823843 S    
O22   C30   1.416233 S    
O60   C100  1.398652 S    
C28   H40   1.109749 S    
C1    C29   1.529654 S    
C2    H42   1.112167 S    
C24   H32   1.099753 S    
C69   H53   1.082341 S    
C11   H15   1.108139 S    
P7    O27   1.567787 D    
O41   C5    1.402313 S    
O52   C92   1.410780 S    
C103  H128  1.106927 S    
C60   C76   1.423930 A    
O43   C7    1.402265 S    
P10   C65   1.852488 S    
C33   C37   1.399283 A    
P7    Ba3   3.425477 S    
C48   C52   1.415954 A    
Ba4   O48   2.823247 S    
C1    H5    1.106243 S    
Ba3   Ba4   4.711969 S    
C79   C81   1.229777 T    
P2    Ba2   3.423880 S    
O17   C21   1.400699 S    
C16   H136  1.110068 S    
O63   C103  1.407447 S    
C20   H88   1.104929 S    
P1    O17   1.755743 S    
P14   C53   1.859142 S    
C6    C10   1.523745 S    
O9    P14   1.786565 S    
P3    O19   1.755749 S    
O24   C32   1.415753 S    
Ba2   O45   2.997302 S    
P4    O4    1.568093 D    
P8    Ba4   3.427233 S    
C17   H85   1.112965 S    
P8    O47   1.563690 S    
C101  H123  1.108227 S    
C104  H130  1.111653 S    
C22   H30   1.099739 S    
P7    O48   1.570285 S    
P9    C66   1.858833 S    
O31   Ba3   2.798246 S    
P7    C64   1.872168 S    
C25   H33   1.110526 S    
C26   H94   1.107246 S    
C94   H77   1.112439 S    
O39   C16   1.396458 S    
C31   O51   1.414955 S    
P13   C54   1.888231 S    
C67   C71   1.408175 A    
C95   H81   1.109172 S    
C66   C86   1.381306 A    
C10   H18   1.109197 S    
P16   C55   1.859180 S    
C29   O49   1.414918 S    
P2    O2    1.568093 D    
P6    Ba2   3.427233 S    
P11   O43   1.753730 S    
P12   O36   1.544871 D    
C59   C63   1.422907 A    
C65   C85   1.397953 A    
C96   H83   1.112438 S    
C70   C74   1.417547 A    
O18   C22   1.404812 S    
C31   H99   1.118098 S    
C32   H100  1.107077 S    
C13   C17   1.523960 S    
C102  H125  1.110845 S    
C61   C85   1.398610 A    
C27   H95   1.107867 S    
C8    H12   1.111413 S    
C92   H71   1.107071 S    
C23   H31   1.099295 S    
C97   H106  1.116191 S    
O9    Ba1   2.780713 S    
P2    O6    1.564725 S    
C7    O63   1.416587 S    
C86   H118  1.067238 S    
C16   C20   1.528317 S    
P11   O31   1.779374 S    
C22   H26   1.099278 S    
P12   O32   1.759198 S    
C41   H57   1.082708 S    
C101  H121  1.110232 S    
C20   O56   1.415953 S    
O55   C95   1.408878 S    
C32   O52   1.420232 S    
C13   H133  1.109896 S    
C99   H111  1.089466 S    
P1    C37   1.875131 S    
C100  H115  1.111899 S    
O22   P13   1.753761 S    
C7    H11   1.116436 S    
C89   H61   1.106338 S    
P4    C40   1.895799 S    
C25   H37   1.110171 S    
C73   C77   1.479231 S    
C35   O59   1.374396 S    
C3    H7    1.106232 S    
C77   C83   1.229837 T    
C4    H8    1.111524 S    
O16   P15   1.546654 D    
O50   C90   1.410811 S    
C38   C42   1.418791 A    
P9    O29   1.779166 S    
C34   C54   1.401668 A    
H45   C57   1.082664 S    
C26   H38   1.109741 S    
P11   C68   1.858859 S    
O57   C97   1.402817 S    
O12   P15   1.783887 S    
C14   C18   1.528242 S    
C28   H36   1.110785 S    
Ba1   O45   2.806894 S    
