data_mof_unit_2899.cif
_audit_creation_date              2012-12-11T15:10:40-0500
_audit_creation_method            fapswitch 2.2
_symmetry_space_group_name_H-M    P1
_symmetry_Int_Tables_number       1
_space_group_crystal_system       triclinic
_cell_length_a                    21.133704
_cell_length_b                    7.237878
_cell_length_c                    18.253552
_cell_angle_alpha                 90.001155
_cell_angle_beta                  93.476261
_cell_angle_gamma                 90.001136
_cell_volume                      2786.98371457

loop_
_atom_site_label
_atom_site_type_symbol
_atom_type_description
_atom_site_fract_x
_atom_site_fract_y
_atom_site_fract_z
_atom_type_partial_charge
O1    O     O_R   0.448880 0.506250 0.415280 -0.529861
O2    O     O_R   0.551120 0.006250 0.584720 -0.529860
O3    O     O_R   0.434830 0.174000 0.557310 -0.520056
O4    O     O_R   0.565170 0.674000 0.442690 -0.520057
C1    C     C_R   0.416920 0.344592 0.579569 0.695465
C2    C     C_R   0.583080 0.844593 0.420431 0.695461
O5    O     O_R   0.441680 0.176440 0.414130 -0.530050
O6    O     O_R   0.558320 0.676440 0.585870 -0.530050
O7    O     O_R   0.558020 0.007570 0.440520 -0.519066
O8    O     O_R   0.441980 0.507570 0.559480 -0.519065
C3    C     C_R   0.428022 0.344850 0.388299 0.673830
C4    C     C_R   0.571977 0.844856 0.611701 0.673833
O9    O     O_3   0.538160 0.339670 0.508820 -0.362782
O10   O     O_3   0.461840 0.839670 0.491180 -0.362782
V1    V     V_3+5 0.492920 0.064260 0.498360 1.442801
V2    V     V_3+5 0.507080 0.564260 0.501640 1.442793
C5    C     C_R   0.877847 0.974799 0.686370 -0.118485
C6    C     C_R   0.122169 0.475070 0.313620 -0.118491
H1    H     H_    0.900980 0.000302 0.636205 0.186103
H2    H     H_    0.099045 0.500706 0.363779 0.186101
C7    C     C_R   0.888409 0.942366 0.818560 -0.084256
C8    C     C_R   0.111592 0.442401 0.181441 -0.084262
C9    C     C_R   0.583225 0.818607 0.746095 -0.160066
C10   C     C_R   0.416763 0.318411 0.253907 -0.160049
C11   C     C_R   0.618341 0.817677 0.812940 -0.123120
C12   C     C_R   0.381644 0.317411 0.187064 -0.123113
C13   C     C_R   0.683560 0.847949 0.816073 -0.143681
C14   C     C_R   0.316430 0.347777 0.183929 -0.143680
C15   C     C_R   0.715866 0.880593 0.751595 0.087589
C16   C     C_R   0.284132 0.380559 0.248406 0.087587
C17   C     C_R   0.679217 0.882819 0.683004 0.029606
C18   C     C_R   0.320786 0.382854 0.316993 0.029608
C19   C     C_R   0.783130 0.910595 0.753041 0.052053
C20   C     C_R   0.216871 0.410625 0.246960 0.052052
C21   C     C_R   0.812040 0.943345 0.685689 0.039926
C22   C     C_R   0.187970 0.443521 0.314306 0.039933
C23   C     C_R   0.774764 0.944542 0.618849 0.158371
C24   C     C_R   0.225249 0.444763 0.381143 0.158367
C25   C     C_R   0.709691 0.914521 0.618108 -0.208616
C26   C     C_R   0.290318 0.414668 0.381887 -0.208617
C27   C     C_R   0.822854 0.909733 0.819078 -0.231465
C28   C     C_R   0.177141 0.409677 0.180928 -0.231471
C29   C     C_R   0.915594 0.975348 0.751715 0.130410
C30   C     C_R   0.084418 0.475559 0.248279 0.130420
C31   C     C_R   0.612567 0.851378 0.680775 -0.065483
C32   C     C_R   0.387432 0.351343 0.319224 -0.065500
H3    H     H_    0.804451 0.886133 0.872020 0.098735
H4    H     H_    0.195535 0.385938 0.127992 0.098753
H5    H     H_    0.532636 0.793362 0.745270 0.103374
H6    H     H_    0.467348 0.293090 0.254734 0.103377
H7    H     H_    0.707159 0.844545 0.869987 0.105022
H8    H     H_    0.292828 0.344330 0.130017 0.105020
H9    H     H_    0.594769 0.792500 0.863023 0.117980
H10   H     H_    0.405208 0.292114 0.136982 0.117973
H11   H     H_    0.682932 0.916336 0.565623 0.130324
H12   H     H_    0.317078 0.416513 0.434372 0.130338
C33   C     C_1   0.864830 0.938945 0.132487 -0.166937
C34   C     C_1   0.135170 0.438947 0.867512 -0.166940
C35   C     C_1   0.822127 0.924874 0.176437 0.034088
C36   C     C_1   0.177873 0.424877 0.823562 0.034090
C37   C     C_1   0.771670 0.905759 0.228695 0.029315
C38   C     C_1   0.228330 0.405760 0.771305 0.029318
C39   C     C_1   0.729112 0.889146 0.272703 0.030627
C40   C     C_1   0.270888 0.389144 0.727296 0.030627
C41   C     C_1   0.678478 0.870037 0.324732 0.031755
C42   C     C_1   0.321521 0.370034 0.675268 0.031755
C43   C     C_1   0.635510 0.855978 0.368338 -0.182369
C44   C     C_1   0.364489 0.355975 0.631662 -0.182368
O11   O     O_R   0.058070 0.289240 0.940580 -0.515111
O12   O     O_R   0.941930 0.789240 0.059420 -0.515103
O13   O     O_R   0.058330 0.616740 0.085880 -0.528477
O14   O     O_R   0.941670 0.116740 0.914120 -0.528483
C45   C     C_R   0.071836 0.448772 0.111937 0.718622
C46   C     C_R   0.928163 0.948766 0.888064 0.718626
O15   O     O_R   0.065180 0.619040 0.942700 -0.521674
O16   O     O_R   0.934820 0.119040 0.057300 -0.521683
O17   O     O_R   0.948870 0.787780 0.915270 -0.527271
O18   O     O_R   0.051130 0.287780 0.084730 -0.527272
C47   C     C_R   0.083099 0.450333 0.920082 0.710827
C48   C     C_R   0.916900 0.950333 0.079917 0.710832
O19   O     O_3   0.961870 0.453310 0.991210 -0.366885
O20   O     O_3   0.038130 0.953310 0.008790 -0.366882
V3    V     V_3+5 0.007070 0.728770 0.001630 1.474917
V4    V     V_3+5 0.992930 0.228770 0.998370 1.474895
I1    I     I_    0.014171 0.026344 0.745910 -0.335327
I2    I     I_    0.985852 0.526731 0.254079 -0.335330
I3    I     I_    0.811990 0.990408 0.514505 -0.340700
I4    I     I_    0.188032 0.490794 0.485482 -0.340703

loop_
_geom_bond_atom_site_label_1
_geom_bond_atom_site_label_2
_ccdc_geom_bond_type
C42   C44   T    
C39   C41   S    
C9    C31   A    
C13   C15   A    
O1    C3    A    
O2    C4    A    
O16   V4    S    
C2    O7    A    
O5    C3    A    
C21   C23   A    
C11   H9    S    
C9    H5    S    
O17   V3    S    
C34   C36   T    
C15   C19   A    
C36   C38   S    
C37   C39   T    
C38   C40   T    
C19   C21   A    
C7    C29   A    
C8    C30   A    
C41   C43   T    
C46   O17   A    
C20   C28   A    
C45   O18   A    
C16   C18   A    
C20   C22   A    
O5    V1    S    
O6    V2    S    
C33   C48   S    
C1    C44   S    
C30   I2    S    
C12   H10   S    
C13   H7    S    
O13   V3    S    
C10   H6    S    
C25   H11   S    
C35   C37   S    
C16   C20   A    
O12   C48   A    
C29   I1    S    
O14   C46   A    
O13   C45   A    
C26   H12   S    
C7    C46   S    
C24   I4    S    
C40   C42   S    
O4    V2    S    
C5    C29   A    
O12   V3    S    
C6    C30   A    
O6    C4    A    
C27   H3    S    
O1    V2    S    
C28   H4    S    
O2    V1    S    
O14   V4    S    
C34   C47   S    
C7    C27   A    
O4    C2    A    
C2    C43   S    
C18   C26   A    
O11   C47   A    
O19   V4    S    
O3    V1    S    
C18   C32   A    
C23   I3    S    
O16   C48   A    
C10   C12   A    
C4    C31   S    
O3    C1    A    
C11   C13   A    
C12   C14   A    
C19   C27   A    
C14   C16   A    
O7    V1    S    
C10   C32   A    
C1    O8    A    
C23   C25   A    
O11   V4    S    
O8    V2    S    
C24   C26   A    
C14   H8    S    
O15   V3    S    
C8    C28   A    
C6    C22   A    
C22   C24   A    
C5    H1    S    
C17   C25   A    
C6    H2    S    
C9    C11   A    
C33   C35   T    
O18   V4    S    
C15   C17   A    
O20   V3    S    
C17   C31   A    
O9    V2    S    
O10   V1    S    
C3    C32   S    
C5    C21   A    
C8    C45   S    
O15   C47   A    
