data_mof_unit_3669.cif
_audit_creation_date              2012-12-10T17:24:28-0500
_audit_creation_method            fapswitch 2.2
_symmetry_space_group_name_H-M    P1
_symmetry_Int_Tables_number       1
_space_group_crystal_system       triclinic
_cell_length_a                    31.568798
_cell_length_b                    18.293458
_cell_length_c                    25.686142
_cell_angle_alpha                 90.144855
_cell_angle_beta                  144.571607
_cell_angle_gamma                 89.955705
_cell_volume                      8598.88946732

loop_
_atom_site_label
_atom_site_type_symbol
_atom_type_description
_atom_site_fract_x
_atom_site_fract_y
_atom_site_fract_z
_atom_type_partial_charge
Br1   Br    Br    0.378002 0.994676 0.704430 -0.510600
Br2   Br    Br    0.623595 0.003704 0.293531 -0.509653
Br3   Br    Br    0.738657 0.110593 0.295094 -0.523889
Br4   Br    Br    0.263241 0.891369 0.706078 -0.524466
Br5   Br    Br    0.876452 0.496253 0.706427 -0.509598
Br6   Br    Br    0.122025 0.505317 0.295546 -0.510696
Br7   Br    Br    0.236922 0.608806 0.293976 -0.524614
Br8   Br    Br    0.761423 0.389502 0.704946 -0.523887
C1    C     C_R   0.859639 0.860728 0.110117 0.813282
C2    C     C_R   0.355305 0.091038 0.658145 0.338837
C3    C     C_R   0.799279 0.249355 0.091853 0.025485
C4    C     C_R   0.241480 0.312030 0.025784 0.021261
C5    C     C_R   0.758800 0.687699 0.974764 0.021244
C6    C     C_R   0.700721 0.250645 0.908147 0.025483
C7    C     C_R   0.299254 0.749329 0.091843 0.025634
C8    C     C_R   0.196931 0.194899 0.946108 -0.144520
C9    C     C_R   0.803089 0.805080 0.053936 -0.144424
C10   C     C_R   0.793058 0.187550 0.052352 -0.204262
C11   C     C_R   0.206946 0.812455 0.947658 -0.204297
C12   C     C_R   0.696911 0.694919 0.946065 -0.144420
C13   C     C_R   0.276525 0.830646 0.659458 0.362745
C14   C     C_R   0.303069 0.305099 0.053896 -0.144516
C15   C     C_R   0.293054 0.687545 0.052342 -0.204298
C16   C     C_R   0.706942 0.312450 0.947648 -0.204267
C17   C     C_R   0.000000 0.135360 0.054281 -0.143134
C18   C     C_R   0.999902 0.864627 0.945616 -0.143130
C19   C     C_R   0.500428 0.635378 0.054702 -0.143172
C20   C     C_R   0.499732 0.364643 0.945457 -0.143153
C21   C     C_R   0.000234 0.201286 0.027418 -0.112283
C22   C     C_R   0.999582 0.798680 0.972392 -0.112317
C23   C     C_R   0.500860 0.701321 0.028031 -0.112324
C24   C     C_R   0.724712 0.170631 0.341297 0.363025
C25   C     C_R   0.499423 0.298725 0.972249 -0.112314
C26   C     C_R   0.000439 0.201183 0.973503 -0.138988
C27   C     C_R   0.999362 0.798777 0.026292 -0.138546
C28   C     C_R   0.500981 0.701227 0.974033 -0.138454
C29   C     C_R   0.499276 0.298827 0.026223 -0.138971
C30   C     C_R   0.000347 0.135161 0.946225 -0.151035
C31   C     C_R   0.999536 0.864815 0.053654 -0.150698
C32   C     C_R   0.500645 0.635190 0.946516 -0.150665
C33   C     C_R   0.499471 0.364844 0.053600 -0.151029
C34   C     C_R   0.000165 0.067534 0.972920 0.072988
C35   C     C_R   0.144709 0.408955 0.341834 0.338798
C36   C     C_R   0.999786 0.932460 0.027028 0.072834
C37   C     C_R   0.500322 0.567546 0.973074 0.072854
C38   C     C_R   0.499726 0.432470 0.026973 0.073021
C39   C     C_R   0.999977 0.067630 0.027302 0.065480
C40   C     C_R   0.999978 0.932367 0.972650 0.065445
C41   C     C_R   0.500171 0.567641 0.027494 0.065406
C42   C     C_R   0.499889 0.432371 0.972567 0.065463
C43   C     C_R   0.000191 0.999908 0.946523 -0.135912
C44   C     C_R   0.999797 0.000095 0.053464 -0.135950
C45   C     C_R   0.500188 0.499905 0.946521 -0.135948
C46   C     C_R   0.854215 0.592151 0.659560 0.338899
C47   C     C_R   0.499820 0.500102 0.053487 -0.135912
C48   C     C_R   0.999899 0.000154 0.108972 0.794352
C49   C     C_R   0.000099 0.999849 0.891026 0.794307
C50   C     C_R   0.499903 0.500166 0.108975 0.794304
C51   C     C_R   0.500098 0.499838 0.891026 0.794353
C52   C     C_R   0.000024 0.000016 0.391745 0.823363
C53   C     C_R   0.999972 0.999984 0.608251 0.823505
C54   C     C_R   0.500027 0.500016 0.391749 0.823509
C55   C     C_R   0.499976 0.499984 0.608254 0.823371
C56   C     C_3   0.019996 0.933640 0.502763 -0.124346
C57   C     C_R   0.775316 0.329408 0.658713 0.363010
C58   C     C_3   0.979995 0.066364 0.497228 -0.123828
C59   C     C_3   0.952558 0.949484 0.469759 -0.167107
C60   C     C_3   0.047433 0.050520 0.530232 -0.167282
C61   C     C_3   0.520006 0.433637 0.502773 -0.123847
C62   C     C_3   0.480001 0.566360 0.497234 -0.124289
C63   C     C_3   0.452567 0.449479 0.469768 -0.167292
C64   C     C_3   0.547440 0.550517 0.530239 -0.167122
C65   C     C_3   0.067431 0.984360 0.584785 -0.142517
C66   C     C_3   0.932561 0.015643 0.415206 -0.142000
C67   C     C_3   0.567439 0.484358 0.584794 -0.142015
C68   C     C_R   0.223540 0.669422 0.340561 0.362789
C69   C     C_3   0.432567 0.515638 0.415213 -0.142476
C70   C     C_3   0.000017 0.000124 0.550967 0.018585
C71   C     C_3   0.999975 0.999879 0.449025 0.018478
C72   C     C_3   0.500024 0.500121 0.550974 0.018476
C73   C     C_3   0.499982 0.499876 0.449032 0.018568
C74   C     C_R   0.107442 0.284786 0.321593 -0.211852
C75   C     C_R   0.891833 0.715976 0.679337 -0.211874
C76   C     C_R   0.839506 0.232297 0.678957 -0.203387
C77   C     C_R   0.159734 0.766940 0.320565 -0.202811
C78   C     C_R   0.608169 0.784023 0.320657 -0.211914
C79   C     C_R   0.715857 0.891789 0.428481 -0.189621
C80   C     C_R   0.392550 0.215221 0.678399 -0.211848
C81   C     C_R   0.340312 0.733119 0.679422 -0.202899
C82   C     C_R   0.660488 0.267703 0.321035 -0.203411
C83   C     C_R   0.091039 0.355074 0.288032 -0.174698
C84   C     C_R   0.907873 0.646055 0.713381 -0.174864
C85   C     C_R   0.829384 0.276159 0.712631 -0.156440
C86   C     C_R   0.169461 0.722670 0.286625 -0.155738
C87   C     C_R   0.592141 0.853932 0.286599 -0.174899
C88   C     C_R   0.408962 0.144927 0.711953 -0.174714
C89   C     C_R   0.330620 0.777430 0.713366 -0.155763
C90   C     C_R   0.284883 0.107467 0.570588 -0.189079
C91   C     C_R   0.670628 0.223863 0.287369 -0.156429
C92   C     C_1   0.778858 0.934430 0.103958 0.128537
C93   C     C_1   0.220788 0.065919 0.895342 0.128652
C94   C     C_1   0.153150 0.817781 0.782633 0.214665
C95   C     C_1   0.846903 0.182295 0.217420 0.215306
C96   C     C_1   0.279219 0.434071 0.104678 0.128663
C97   C     C_1   0.721133 0.565577 0.896027 0.128538
C98   C     C_1   0.653097 0.317705 0.782581 0.215258
C99   C     C_1   0.346850 0.682219 0.217367 0.214710
C100  C     C_R   0.232221 0.839997 0.571477 -0.166386
C101  C     C_R   0.140359 0.139274 0.889888 0.813275
C102  C     C_R   0.768544 0.160792 0.428991 -0.166658
C103  C     C_R   0.215126 0.392528 0.429393 -0.189098
C104  C     C_R   0.784157 0.608197 0.571501 -0.189623
C105  C     C_R   0.731473 0.339232 0.571014 -0.166647
C106  C     C_R   0.267800 0.660014 0.428550 -0.166319
C107  C     C_R   0.733243 0.821288 0.465016 0.018182
C108  C     C_R   0.267120 0.178341 0.534489 0.018269
C109  C     C_R   0.240293 0.794916 0.534945 0.024791
C110  C     C_R   0.760093 0.205479 0.465296 0.024081
C111  C     C_R   0.232881 0.321659 0.465493 0.018282
C112  C     C_R   0.144044 0.863641 0.890270 0.827041
C113  C     C_R   0.766762 0.678707 0.534978 0.018173
C114  C     C_R   0.739907 0.294525 0.534700 0.024097
C115  C     C_R   0.259709 0.705081 0.465068 0.024745
C116  C     C_R   0.178281 0.267117 0.410924 0.076815
C117  C     C_R   0.821360 0.733256 0.589555 0.076984
C118  C     C_R   0.794565 0.240183 0.589354 0.081204
C119  C     C_R   0.205042 0.759417 0.410401 0.081418
C120  C     C_R   0.678642 0.766743 0.410443 0.076996
C121  C     C_R   0.321716 0.232886 0.589062 0.076811
C122  C     C_R   0.294967 0.740591 0.589602 0.081464
C123  C     C_R   0.855958 0.136360 0.109732 0.827008
C124  C     C_R   0.705430 0.259814 0.410639 0.081196
C125  C     C_R   0.804129 0.804013 0.554051 -0.113973
C126  C     C_R   0.195870 0.195990 0.445946 -0.114548
C127  C     C_R   0.195861 0.803959 0.445844 -0.107402
C128  C     C_R   0.804133 0.196036 0.554152 -0.107758
C129  C     C_R   0.304127 0.304013 0.554046 -0.114542
C130  C     C_R   0.695871 0.695987 0.445949 -0.113974
C131  C     C_R   0.695862 0.303961 0.445842 -0.107753
C132  C     C_R   0.304142 0.696042 0.554165 -0.107366
C133  C     C_R   0.729558 0.873119 0.048422 0.008691
C134  C     C_R   0.359641 0.360725 0.110112 0.813260
C135  C     C_R   0.269931 0.127369 0.950587 0.008770
C136  C     C_R   0.162362 0.751467 0.821485 0.043420
C137  C     C_R   0.837688 0.248589 0.178542 0.043149
C138  C     C_R   0.230081 0.372615 0.049448 0.008773
C139  C     C_R   0.770439 0.626882 0.951575 0.008693
C140  C     C_R   0.662312 0.251411 0.821458 0.043160
C141  C     C_R   0.337637 0.748533 0.178515 0.043395
C142  C     C_R   0.667074 0.875916 0.017122 -0.142631
C143  C     C_R   0.332072 0.124897 0.981221 -0.142888
C144  C     C_R   0.143626 0.685696 0.778229 -0.170916
C145  C     C_R   0.640360 0.639273 0.889883 0.813276
C146  C     C_R   0.856446 0.314376 0.221789 -0.170810
C147  C     C_R   0.167959 0.375063 0.018864 -0.142859
C148  C     C_R   0.832927 0.624082 0.982879 -0.142647
C149  C     C_R   0.643555 0.185624 0.778212 -0.170820
C150  C     C_R   0.356373 0.814304 0.221770 -0.170892
C151  C     C_R   0.116547 0.319631 0.965736 -0.138950
C152  C     C_R   0.884432 0.679422 0.036198 -0.138512
C153  C     C_R   0.665156 0.119487 0.821316 -0.156276
C154  C     C_R   0.334782 0.880453 0.178693 -0.156349
C155  C     C_R   0.615573 0.820572 0.963812 -0.138536
C156  C     C_R   0.644042 0.363639 0.890268 0.827021
C157  C     C_R   0.383492 0.180320 0.034371 -0.139036
C158  C     C_R   0.165217 0.619546 0.821307 -0.156339
C159  C     C_R   0.834845 0.380513 0.178685 -0.156277
C160  C     C_R   0.126192 0.260743 0.942113 -0.145215
C161  C     C_R   0.874493 0.738594 0.059236 -0.145206
C162  C     C_R   0.711999 0.119010 0.910923 -0.111756
C163  C     C_R   0.287970 0.880957 0.089100 -0.111653
C164  C     C_R   0.625513 0.761400 0.940775 -0.145205
C165  C     C_R   0.373832 0.239226 0.057953 -0.145257
C166  C     C_R   0.212029 0.619042 0.910900 -0.111649
C167  C     C_R   0.355956 0.636359 0.109730 0.827048
C168  C     C_R   0.788002 0.380990 0.089077 -0.111762
C169  C     C_R   0.188198 0.255660 0.971195 0.066716
C170  C     C_R   0.812131 0.744021 0.029452 0.066704
C171  C     C_R   0.735763 0.185165 0.957841 0.063608
C172  C     C_R   0.264219 0.814817 0.042166 0.063611
C173  C     C_R   0.687871 0.755977 0.970553 0.066713
C174  C     C_R   0.311810 0.244329 0.028829 0.066747
C175  C     C_R   0.235780 0.685183 0.957833 0.063610
C176  C     C_R   0.764237 0.314834 0.042159 0.063612
C177  C     C_R   0.139759 0.139870 0.389771 0.783271
C178  C     C_R   0.645808 0.907828 0.340415 0.338889
C179  C     C_R   0.860239 0.860133 0.610224 0.783369
C180  C     C_R   0.860242 0.139891 0.610298 0.782223
C181  C     C_R   0.139754 0.860106 0.389695 0.782235
C182  C     C_R   0.639761 0.639867 0.389776 0.783362
C183  C     C_R   0.360240 0.360130 0.610226 0.783255
C184  C     C_R   0.360251 0.639898 0.610315 0.782176
C185  C     C_R   0.639756 0.360108 0.389698 0.782227
C186  C     C_R   0.741199 0.812301 0.025237 0.021246
C187  C     C_R   0.258525 0.187962 0.974232 0.021283
C188  C     C_R   0.200745 0.750671 0.908157 0.025639
H1    H     H_    0.123195 0.972410 0.655159 0.183769
H2    H     H_    0.416001 0.280768 0.099514 0.114424
H3    H     H_    0.227991 0.566469 0.942271 0.168713
H4    H     H_    0.772025 0.433552 0.057680 0.168742
H5    H     H_    0.999042 0.747544 0.046977 0.136479
H6    H     H_    0.000673 0.252399 0.952729 0.136663
H7    H     H_    0.499015 0.247617 0.046972 0.136695
H8    H     H_    0.501349 0.752459 0.953390 0.136436
H9    H     H_    0.999866 0.138070 0.096248 0.117414
H10   H     H_    0.000039 0.861922 0.903652 0.117329
H11   H     H_    0.500355 0.638081 0.096729 0.117318
H12   H     H_    0.876799 0.027596 0.344831 0.184088
H13   H     H_    0.499826 0.361935 0.903450 0.117403
H14   H     H_    0.000288 0.252594 0.048559 0.147582
H15   H     H_    0.999466 0.747359 0.951188 0.147414
H16   H     H_    0.501125 0.752638 0.049379 0.147421
H17   H     H_    0.499279 0.247423 0.951022 0.147605
H18   H     H_    0.000484 0.137737 0.904262 0.107818
H19   H     H_    0.999387 0.862235 0.095605 0.107848
H20   H     H_    0.500729 0.637770 0.904502 0.107863
H21   H     H_    0.499369 0.362269 0.095598 0.107849
H22   H     H_    0.036537 0.879119 0.504414 0.168100
H23   H     H_    0.623202 0.472407 0.655170 0.184075
H24   H     H_    0.963452 0.120883 0.495576 0.168477
H25   H     H_    0.913614 0.908019 0.445837 0.159294
H26   H     H_    0.086377 0.091985 0.554155 0.159300
H27   H     H_    0.536550 0.379117 0.504427 0.168456
H28   H     H_    0.463459 0.620880 0.495582 0.168145
H29   H     H_    0.413624 0.408013 0.445846 0.159293
H30   H     H_    0.586383 0.591983 0.554161 0.159304
H31   H     H_    0.064035 0.244635 0.276432 0.147677
H32   H     H_    0.935215 0.756165 0.724438 0.146463
H33   H     H_    0.883141 0.192583 0.724212 0.139795
H34   H     H_    0.376802 0.527587 0.344839 0.183807
H35   H     H_    0.116131 0.806700 0.275348 0.139006
H36   H     H_    0.564782 0.743838 0.275559 0.146469
H37   H     H_    0.435948 0.255378 0.723572 0.147657
H38   H     H_    0.383936 0.693393 0.724627 0.138938
H39   H     H_    0.616844 0.307409 0.275775 0.139788
H40   H     H_    0.036462 0.367469 0.219769 0.168126
H41   H     H_    0.962165 0.633951 0.782007 0.167957
H42   H     H_    0.863959 0.268852 0.781023 0.163414
H43   H     H_    0.134598 0.729686 0.218033 0.162813
H44   H     H_    0.537852 0.866032 0.217968 0.167962
H45   H     H_    0.084028 0.219196 0.900563 0.114421
H46   H     H_    0.463536 0.132533 0.780226 0.168136
H47   H     H_    0.365540 0.770490 0.781946 0.162881
H48   H     H_    0.636056 0.231179 0.218978 0.163459
H49   H     H_    0.756157 0.935057 0.467262 0.158309
H50   H     H_    0.244603 0.064191 0.531884 0.159341
H51   H     H_    0.191990 0.883142 0.532775 0.155627
H52   H     H_    0.808725 0.117601 0.467639 0.156364
H53   H     H_    0.255407 0.435802 0.468095 0.159315
H54   H     H_    0.743861 0.564925 0.532715 0.158338
H55   H     H_    0.691304 0.382434 0.532374 0.156344
H56   H     H_    0.916727 0.780074 0.100927 0.114488
H57   H     H_    0.308031 0.616860 0.467266 0.155615
H58   H     H_    0.932528 0.676520 0.059886 0.150841
H59   H     H_    0.068737 0.322252 0.942624 0.150281
H60   H     H_    0.351375 0.931417 0.213313 0.156806
H61   H     H_    0.648551 0.068512 0.786705 0.156921
H62   H     H_    0.431321 0.177673 0.057534 0.150324
H63   H     H_    0.567481 0.823469 0.940130 0.150788
H64   H     H_    0.851451 0.431488 0.213296 0.156918
H65   H     H_    0.148624 0.568582 0.786686 0.156808
H66   H     H_    0.658035 0.921569 0.034302 0.157907
H67   H     H_    0.727976 0.066448 0.942320 0.168749
H68   H     H_    0.340919 0.079428 0.963665 0.157934
H69   H     H_    0.113137 0.685650 0.711520 0.149393
H70   H     H_    0.886957 0.314445 0.288511 0.149505
H71   H     H_    0.159123 0.420520 0.036448 0.157922
H72   H     H_    0.841966 0.578430 0.965698 0.157906
H73   H     H_    0.613044 0.185555 0.711490 0.149501
H74   H     H_    0.386862 0.814349 0.288480 0.149404
H75   H     H_    0.272009 0.933530 0.057729 0.168715
H76   H     H_    0.583284 0.719916 0.899093 0.114471
N1    N     N_1   0.817915 0.983758 0.148365 -0.212456
N2    N     N_1   0.181855 0.016482 0.851170 -0.212412
N3    N     N_1   0.146253 0.870706 0.751724 -0.193136
N4    N     N_1   0.853803 0.129387 0.248349 -0.192622
N5    N     N_1   0.318149 0.483511 0.148840 -0.212418
N6    N     N_1   0.682070 0.516255 0.851608 -0.212454
N7    N     N_1   0.646197 0.370613 0.751651 -0.192648
N8    N     N_1   0.353747 0.629294 0.248276 -0.193080
O1    O     O_3   0.999990 0.000000 0.249990 -0.491744
O2    O     O_R   0.585440 0.646160 0.804690 -0.627696
O3    O     O_R   0.585440 0.353840 0.804690 -0.636566
O4    O     O_R   0.414560 0.646160 0.195310 -0.636307
O5    O     O_R   0.085440 0.146150 0.366190 -0.639288
O6    O     O_R   0.914560 0.853850 0.633810 -0.639024
O7    O     O_R   0.914560 0.146150 0.633810 -0.640558
O8    O     O_R   0.085440 0.853850 0.366190 -0.640391
O9    O     O_R   0.585440 0.646150 0.366190 -0.639016
O10   O     O_R   0.414560 0.353850 0.633810 -0.639278
O11   O     O_R   0.414560 0.646150 0.633810 -0.640387
O12   O     O_3   0.000010 0.000000 0.750010 -0.491758
O13   O     O_R   0.585440 0.353850 0.366190 -0.640566
O14   O     O_R   0.853820 0.085430 0.073070 -0.644337
O15   O     O_R   0.146180 0.914570 0.926930 -0.644443
O16   O     O_R   0.146180 0.085430 0.926930 -0.641289
O17   O     O_R   0.853820 0.914570 0.073070 -0.641187
O18   O     O_R   0.353820 0.585430 0.073070 -0.644432
O19   O     O_R   0.646180 0.414570 0.926930 -0.644331
O20   O     O_R   0.646180 0.585430 0.926930 -0.641195
O21   O     O_R   0.353820 0.414570 0.073070 -0.641281
O22   O     O_R   0.146150 0.914540 0.365390 -0.632853
O23   O     O_3   0.499990 0.500000 0.249990 -0.491757
O24   O     O_R   0.853850 0.085460 0.634610 -0.633015
O25   O     O_R   0.853850 0.914540 0.634610 -0.633458
O26   O     O_R   0.146150 0.085460 0.365390 -0.633768
O27   O     O_R   0.646150 0.414540 0.365390 -0.633001
O28   O     O_R   0.353850 0.585460 0.634610 -0.632827
O29   O     O_R   0.353850 0.414540 0.634610 -0.633768
O30   O     O_R   0.646150 0.585460 0.365390 -0.633483
O31   O     O_R   0.939240 0.000000 0.071950 -0.638768
O32   O     O_R   0.060760 0.000000 0.928050 -0.638765
O33   O     O_R   0.439240 0.500000 0.071950 -0.638729
O34   O     O_3   0.500010 0.500000 0.750010 -0.491749
O35   O     O_R   0.560760 0.500000 0.928050 -0.638740
O36   O     O_R   0.000020 0.939290 0.367320 -0.639136
O37   O     O_R   0.999980 0.060710 0.632680 -0.639126
O38   O     O_R   0.999980 0.939290 0.632680 -0.632393
O39   O     O_R   0.000020 0.060710 0.367320 -0.632363
O40   O     O_R   0.500020 0.439290 0.367320 -0.639126
O41   O     O_R   0.499980 0.560710 0.632680 -0.639123
O42   O     O_R   0.499980 0.439290 0.632680 -0.632366
O43   O     O_R   0.500020 0.560710 0.367320 -0.632394
O44   O     O_R   0.060680 0.000000 0.193390 -0.638420
O45   O     O_R   0.914560 0.853840 0.195310 -0.627703
O46   O     O_R   0.939320 0.000000 0.806610 -0.638558
O47   O     O_R   0.560680 0.500000 0.193390 -0.638588
O48   O     O_R   0.439320 0.500000 0.806610 -0.638438
O49   O     O_R   0.085440 0.146160 0.804690 -0.627653
O50   O     O_R   0.085440 0.853840 0.804690 -0.636301
O51   O     O_R   0.914560 0.146160 0.195310 -0.636576
O52   O     O_R   0.414560 0.353840 0.195310 -0.627664
Zn1   Zn    Zn3+2 0.000000 0.086750 0.293940 0.987945
Zn2   Zn    Zn3+2 0.086780 0.000000 0.880710 0.972326
Zn3   Zn    Zn3+2 0.413220 0.500000 0.119290 0.972349
Zn4   Zn    Zn3+2 0.586780 0.500000 0.880710 0.972434
Zn5   Zn    Zn3+2 0.086730 0.000000 0.292800 0.972626
Zn6   Zn    Zn3+2 0.913270 0.000000 0.707200 0.972571
Zn7   Zn    Zn3+2 0.586730 0.500000 0.292800 0.972552
Zn8   Zn    Zn3+2 0.413270 0.500000 0.707200 0.972623
Zn9   Zn    Zn3+2 0.000000 0.913250 0.706060 0.988212
Zn10  Zn    Zn3+2 0.000000 0.086750 0.706060 0.988344
Zn11  Zn    Zn3+2 1.000000 0.913250 0.293940 0.988403
Zn12  Zn    Zn3+2 0.500000 0.586750 0.293940 0.988215
Zn13  Zn    Zn3+2 0.500000 0.413250 0.706060 0.987949
Zn14  Zn    Zn3+2 0.500000 0.586750 0.706060 0.988413
Zn15  Zn    Zn3+2 0.500000 0.413250 0.293940 0.988331
Zn16  Zn    Zn3+2 0.913220 0.000000 0.119290 0.972423

loop_
_geom_bond_atom_site_label_1
_geom_bond_atom_site_label_2
_ccdc_geom_bond_type
C52   C71   S    
O27   Zn7   S    
C16   C176  A    
O33   Zn3   S    
O23   Zn3   S    
C122  C132  A    
C102  C110  A    
C21   H14   S    
C142  C155  A    
O43   Zn12  S    
C35   C103  A    
C114  C131  A    
O1    Zn11  S    
C68   C86   A    
C129  C183  S    
C181  O22   A    
C138  C147  A    
C38   C47   A    
C43   C49   S    
C79   C107  A    
O45   Zn11  S    
O34   Zn4   S    
C55   C72   S    
C135  C143  A    
C123  O51   A    
C118  C128  A    
O7    Zn10  S    
C63   H29   S    
C18   H10   S    
C30   H18   S    
C74   C116  A    
C8    C101  S    
C79   C178  A    
C76   C118  A    
O38   Zn9   S    
C158  C166  A    
C42   C45   A    
C11   C112  S    
O13   Zn15  S    
C78   C120  A    
C179  O25   A    
C154  H60   S    
C25   H17   S    
C27   H5    S    
C20   H13   S    
O8    Zn11  S    
C74   C83   A    
C166  C175  A    
C46   C84   A    
C48   O31   A    
O22   Zn5   S    
C13   C89   A    
C180  O7    A    
C67   H23   S    
C175  C188  A    
C46   C104  A    
O21   Zn3   S    
C59   C66   S    
C50   O33   A    
C173  C186  A    
O34   Zn14  S    
C143  H68   S    
C52   O39   A    
C54   C73   S    
C165  C174  A    
C134  O21   A    
C66   C71   S    
O12   Zn9   S    
C56   C71   S    
C146  C159  A    
C109  C127  A    
C7    C141  A    
C110  C128  A    
O39   Zn1   S    
C168  C176  A    
C5    C12   A    
C57   C105  A    
C60   H26   S    
Br1   C2    S    
C119  C127  A    
C134  O52   A    
C95   N4    T    
C39   C44   A    
C49   O46   A    
C31   H19   S    
O23   Zn12  S    
O19   Zn4   S    
C55   O42   A    
C8    C187  A    
C41   C47   A    
C83   H40   S    
C82   H39   S    
C76   C85   A    
O49   Zn10  S    
Br8   C57   S    
C78   C87   A    
O11   Zn14  S    
C86   H43   S    
O17   Zn16  S    
C15   C167  S    
C23   C28   A    
O41   Zn14  S    
C131  C185  S    
C87   C178  A    
C81   H38   S    
C3    C10   A    
C183  O29   A    
C77   H35   S    
C101  O49   A    
C52   O36   A    
C124  C131  A    
C53   O37   A    
C80   H37   S    
C166  H3    S    
O1    Zn1   S    
C182  O9    A    
C5    C170  A    
C58   C66   S    
C4    C14   A    
C17   C21   A    
C103  C111  A    
C6    C16   A    
C91   H48   S    
C59   H25   S    
C120  C130  A    
C164  C173  A    
O12   Zn6   S    
O4    Zn12  S    
C56   C65   S    
O23   Zn7   S    
C141  C150  A    
C53   C70   S    
C76   H33   S    
C36   C44   A    
C60   C71   S    
C57   C85   A    
C37   C45   A    
C11   C188  A    
C128  C180  S    
C62   C69   S    
C97   N6    T    
C32   H20   S    
C9    C186  A    
C94   C136  S    
C80   C121  A    
C64   C67   S    
C99   N8    T    
O30   Zn7   S    
O36   Zn11  S    
C133  C142  A    
C79   H49   S    
O42   Zn13  S    
C75   H32   S    
C12   C145  S    
C105  C114  A    
C147  C151  A    
C96   C138  S    
Br5   C46   S    
C148  C152  A    
O37   Zn10  S    
C22   H15   S    
C143  C157  A    
C107  C120  A    
C61   H27   S    
O25   Zn6   S    
C113  C117  A    
O31   Zn16  S    
O34   Zn8   S    
C115  C119  A    
C148  H72   S    
C149  H73   S    
C14   C134  S    
C121  C129  A    
C15   C175  A    
O48   Zn8   S    
C54   O43   A    
C106  C115  A    
C18   C22   A    
C93   N2    T    
C167  O4    A    
C137  C146  A    
C185  O13   A    
C82   C91   A    
C63   C69   S    
C95   C137  S    
C145  O2    A    
C100  C109  A    
C3    C176  A    
C96   N5    T    
C33   H21   S    
Br7   C68   S    
C136  C188  A    
C155  H63   S    
C112  O50   A    
C105  H55   S    
C116  C126  A    
C162  C171  A    
C78   H36   S    
C104  C113  A    
C136  C144  A    
O12   Zn2   S    
C26   H6    S    
C184  O11   A    
C140  C149  A    
C29   C33   A    
C163  C172  A    
C13   C100  A    
C110  C124  A    
C125  C179  S    
C99   C141  S    
C36   C40   A    
C5    C139  A    
C98   N7    T    
C185  O27   A    
O40   Zn15  S    
C19   C41   A    
C12   C173  A    
C80   C88   A    
C151  H59   S    
C164  H76   S    
C16   C156  S    
C24   C102  A    
O44   Zn5   S    
O9    Zn12  S    
C75   C117  A    
C90   H50   S    
C92   C133  S    
C179  O6    A    
C108  C126  A    
C117  C125  A    
C160  C169  A    
O32   Zn2   S    
C152  H58   S    
O28   Zn8   S    
C156  O19   A    
C58   H24   S    
C23   H16   S    
C62   H28   S    
C152  C161  A    
C94   N3    T    
C17   C39   A    
C1    O17   A    
C64   C73   S    
C18   C40   A    
C82   C124  A    
C64   H30   S    
O1    Zn5   S    
C10   C123  S    
C168  H4    S    
C17   H9    S    
O47   Zn7   S    
C32   C37   A    
C58   C70   S    
C62   C72   S    
O15   Zn2   S    
C107  C125  A    
O12   Zn10  S    
C19   C23   A    
C21   C26   A    
C25   C29   A    
C81   C122  A    
C123  O14   A    
C27   C31   A    
C55   O41   A    
C182  O30   A    
C144  C158  A    
C160  H45   S    
C37   C41   A    
C135  C187  A    
O6    Zn9   S    
C139  C148  A    
C31   C36   A    
C142  H66   S    
Br6   C35   S    
C184  O28   A    
C159  H64   S    
C149  C153  A    
C102  H52   S    
C106  H57   S    
C54   O40   A    
O35   Zn4   S    
C104  H54   S    
C144  H69   S    
O2    Zn14  S    
C74   H31   S    
C51   O48   A    
C150  H74   S    
C56   H22   S    
C61   C67   S    
C87   H44   S    
O50   Zn9   S    
Br3   C24   S    
O46   Zn6   S    
O34   Zn13  S    
C61   C73   S    
O5    Zn1   S    
C14   C174  A    
C47   C50   S    
C11   C172  A    
O26   Zn5   S    
C9    C170  A    
C183  O10   A    
C58   C60   S    
O14   Zn16  S    
C163  H75   S    
C45   C51   S    
C66   H12   S    
C111  C116  A    
C151  C160  A    
C75   C84   A    
C100  H51   S    
C69   H34   S    
C22   C27   A    
O29   Zn8   S    
C161  H56   S    
C30   C34   A    
C180  O24   A    
C157  C165  A    
C97   C139  S    
C6    C140  A    
C167  O18   A    
C98   C140  S    
C157  H62   S    
C61   C63   S    
C158  H65   S    
C4    C138  A    
C2    C90   A    
C177  O5    A    
C127  C181  S    
C20   C42   A    
C40   C43   A    
C108  C121  A    
C65   H1    S    
C68   C106  A    
C33   C38   A    
C69   C73   S    
C67   C72   S    
C6    C171  A    
C34   C43   A    
C133  C186  A    
C7    C15   A    
C4    C169  A    
O18   Zn3   S    
C7    C172  A    
C126  C177  S    
C130  C182  S    
C59   C70   S    
C63   C72   S    
C53   O38   A    
C84   H41   S    
C111  C129  A    
C56   C59   S    
C28   C32   A    
C3    C137  A    
C60   C65   S    
C115  C132  A    
C35   C83   A    
C156  O3    A    
C81   C89   A    
C162  H67   S    
C113  C130  A    
C114  C118  A    
Br2   C178  S    
C51   O35   A    
C155  C164  A    
C89   H47   S    
C77   C86   A    
C90   C108  A    
C2    C88   A    
C85   H42   S    
C65   C70   S    
C29   H7    S    
C109  C122  A    
O51   Zn1   S    
C88   H46   S    
C153  C162  A    
C145  O20   A    
C1    C9    S    
C1    O45   A    
C10   C171  A    
C177  O26   A    
C132  C184  S    
O16   Zn2   S    
C50   O47   A    
C77   C119  A    
C161  C170  A    
C8    C169  A    
C153  H61   S    
O1    Zn16  S    
C165  H2    S    
C26   C30   A    
O23   Zn15  S    
C49   O32   A    
C112  O15   A    
C146  H70   S    
C20   C25   A    
C174  C187  A    
C101  O16   A    
C103  H53   S    
C38   C42   A    
C24   C91   A    
C92   N1    T    
O10   Zn13  S    
Br4   C13   S    
C93   C135  S    
O20   Zn4   S    
O24   Zn6   S    
O3    Zn13  S    
C19   H11   S    
C34   C39   A    
C150  C154  A    
O52   Zn15  S    
C154  C163  A    
C181  O8    A    
C62   C64   S    
C28   H8    S    
C48   O44   A    
C147  H71   S    
C44   C48   S    
C159  C168  A    
