data_mof_unit_2106.cif
_audit_creation_date              2012-12-10T18:58:12-0500
_audit_creation_method            fapswitch 2.2
_symmetry_space_group_name_H-M    P1
_symmetry_Int_Tables_number       1
_space_group_crystal_system       triclinic
_cell_length_a                    10.788977
_cell_length_b                    9.935896
_cell_length_c                    15.459866
_cell_angle_alpha                 89.888752
_cell_angle_beta                  91.272483
_cell_angle_gamma                 89.470799
_cell_volume                      1656.78589584

loop_
_atom_site_label
_atom_site_type_symbol
_atom_type_description
_atom_site_fract_x
_atom_site_fract_y
_atom_site_fract_z
_atom_type_partial_charge
C1    C     C_R   0.871934 0.499128 0.507932 -0.434245
C2    C     C_R   0.434963 0.347530 0.950119 0.251066
C3    C     C_R   0.386980 0.461717 0.907292 -0.257862
C4    C     C_R   0.406883 0.465815 0.085113 -0.263628
C5    C     C_1   0.426851 0.484324 0.821215 0.241984
C6    C     C_1   0.442072 0.485272 0.173657 0.243986
C7    C     C_1   0.470800 0.496906 0.248361 -0.048912
C8    C     C_1   0.463077 0.496297 0.749239 -0.016703
C9    C     C_R   0.521792 0.071671 0.574843 0.360767
C10   C     C_R   0.495266 0.927998 0.423745 0.377225
C11   C     C_R   0.483185 0.071470 0.424534 0.413673
C12   C     C_R   0.126689 0.503311 0.512653 -0.411506
C13   C     C_R   0.513888 0.927709 0.576083 0.385225
C14   C     C_R   0.063019 0.379730 0.510427 0.340233
C15   C     C_R   0.933461 0.614044 0.540101 0.213536
C16   C     C_R   0.940261 0.383956 0.484627 0.334216
C17   C     C_R   0.058023 0.625818 0.521351 0.360729
C18   C     C_3   0.681285 0.142972 0.660420 -0.022320
C19   C     C_3   0.439417 0.861605 0.285125 -0.031885
C20   C     C_3   0.341272 0.161330 0.329921 -0.136571
C21   C     C_3   0.466233 0.895210 0.720261 0.015333
C22   C     C_R   0.259817 0.501100 0.503771 0.962345
C23   C     C_R   0.739662 0.499493 0.501297 1.007156
C24   C     C_R   0.497220 0.499847 0.338205 0.887944
C25   C     C_R   0.496740 0.499632 0.661645 0.895298
C26   C     C_R   0.319422 0.560939 0.951488 0.291658
C27   C     C_R   0.456702 0.354337 0.040099 0.307610
C28   C     C_R   0.325573 0.559906 0.043295 0.303650
H1    H     H_    0.727128 0.181243 0.601949 0.191861
H2    H     H_    0.448797 0.805023 0.760167 0.190130
H3    H     H_    0.374697 0.938326 0.699486 0.154455
H4    H     H_    0.516399 0.966772 0.762937 0.240209
H5    H     H_    0.177670 0.701139 0.237230 0.398389
H6    H     H_    0.289300 0.193618 0.818376 0.380466
H7    H     H_    0.196765 0.749524 0.760018 0.416586
H8    H     H_    0.647906 0.196465 0.215707 0.425073
H9    H     H_    0.037487 0.072354 0.638159 0.415149
H10   H     H_    0.790878 0.834484 0.503142 0.376506
H11   H     H_    0.972557 0.116509 0.324868 0.403112
H12   H     H_    0.718821 0.042140 0.678681 0.219649
H13   H     H_    0.250711 0.918158 0.566661 0.370403
H14   H     H_    0.705278 0.213359 0.713565 0.197709
H15   H     H_    0.345974 0.845600 0.311547 0.159520
H16   H     H_    0.458699 0.776815 0.240985 0.198211
H17   H     H_    0.441988 0.953010 0.244559 0.227068
H18   H     H_    0.305131 0.244104 0.370077 0.215069
H19   H     H_    0.284233 0.069996 0.339589 0.158751
H20   H     H_    0.328644 0.192779 0.261407 0.204401
N1    N     N_R   0.500000 0.857200 0.500000 -0.175294
N2    N     N_R   0.500000 0.142800 0.500000 -0.177829
O1    O     O_R   0.316770 0.614620 0.499990 -0.543870
O2    O     O_3   0.533794 0.863705 0.349480 -0.574457
O3    O     O_3   0.469139 0.138797 0.346943 -0.574582
O4    O     O_3   0.542267 0.856555 0.651175 -0.550985
O5    O     O_2   0.305826 0.812421 0.103184 -0.253874
O6    O     O_2   0.110814 0.697983 0.070497 -0.163518
O7    O     O_3   0.229048 0.630760 0.209762 -0.602775
O8    O     O_2   0.598543 0.198776 0.862584 -0.245528
O9    O     O_2   0.439031 0.073995 0.938371 -0.181668
O10   O     O_3   0.375325 0.199433 0.797693 -0.517135
O11   O     O_2   0.090840 0.647100 0.904985 -0.174448
O12   O     O_R   0.683230 0.385380 0.500010 -0.583581
O13   O     O_2   0.250284 0.819679 0.922952 -0.194674
O14   O     O_3   0.247636 0.674492 0.784343 -0.587311
O15   O     O_2   0.460380 0.113269 0.116944 -0.266315
O16   O     O_2   0.646148 0.172289 0.037893 -0.165401
O17   O     O_3   0.616391 0.279285 0.186636 -0.522745
O18   O     O_2   0.183125 0.142468 0.497665 -0.291716
O19   O     O_2   0.207676 0.264309 0.634792 -0.280781
O20   O     O_3   0.999027 0.145445 0.602802 -0.492773
O21   O     O_2   0.775685 0.651222 0.670982 -0.259243
O22   O     O_2   0.964460 0.784488 0.674260 -0.210181
O23   O     O_R   0.683230 0.614620 0.500010 -0.581081
O24   O     O_3   0.789008 0.854261 0.565812 -0.484465
O25   O     O_2   0.821746 0.148838 0.457669 -0.253112
O26   O     O_2   0.797688 0.322141 0.345278 -0.275131
O27   O     O_3   0.007126 0.193293 0.357955 -0.507739
O28   O     O_2   0.183897 0.791791 0.417932 -0.346536
O29   O     O_2   0.016330 0.894923 0.496412 -0.194279
O30   O     O_3   0.215954 0.830495 0.583581 -0.540908
O31   O     O_R   0.316770 0.385380 0.499990 -0.589695
O32   O     O_R   0.499980 0.614630 0.378020 -0.585521
O33   O     O_R   0.500020 0.385370 0.621980 -0.547925
O34   O     O_R   0.500020 0.614630 0.621980 -0.541985
O35   O     O_R   0.499980 0.385370 0.378020 -0.553915
O36   O     O_3   0.551197 0.140135 0.649837 -0.563522
S1    S     S_3+6 0.240476 0.679666 0.106023 0.086710
S2    S     S_3+6 0.465060 0.199775 0.888076 0.091930
S3    S     S_3+6 0.224817 0.679403 0.891499 0.114437
S4    S     S_3+6 0.546314 0.225742 0.095033 0.112451
S5    S     S_3+6 0.118803 0.230036 0.561996 0.092916
S6    S     S_3+6 0.865111 0.726604 0.616110 0.138656
S7    S     S_3+6 0.886128 0.259433 0.410498 0.109779
S8    S     S_3+6 0.117432 0.790476 0.502222 0.089653
Zn1   Zn    Zn3+2 0.500000 0.653120 0.500000 1.106356
Zn2   Zn    Zn3+2 0.500000 0.346880 0.500000 1.100892

loop_
_geom_bond_atom_site_label_1
_geom_bond_atom_site_label_2
_ccdc_geom_bond_type
O12   Zn2   S    
O20   S5    S    
C10   O2    S    
H13   O30   S    
O10   S2    S    
H8    O17   S    
O16   S4    D    
C26   S3    S    
C21   H3    S    
C16   S7    S    
C18   O36   S    
H11   O27   S    
C18   H14   S    
C21   O4    S    
O22   S6    D    
O35   Zn2   S    
C7    C24   S    
C12   C22   S    
O18   S5    D    
C27   S4    S    
O24   S6    S    
C9    C13   A    
O9    S2    D    
C24   O32   A    
C15   S6    S    
C19   O2    S    
C23   O12   A    
O21   S6    D    
C19   H15   S    
C12   C17   A    
C25   O34   A    
C2    S2    S    
H7    O14   S    
C1    C15   A    
C24   O35   A    
C11   O3    S    
H9    O20   S    
H6    O10   S    
C8    C25   S    
O14   S3    S    
C23   O23   A    
C4    C28   A    
O11   S3    D    
O15   S4    D    
C21   H4    S    
C22   O31   A    
O29   S8    D    
C4    C6    S    
C1    C16   A    
O31   Zn2   S    
O6    S1    D    
O17   S4    S    
O7    S1    S    
C9    O36   S    
O34   Zn1   S    
O26   S7    D    
O13   S3    D    
C28   S1    S    
C18   H1    S    
C20   H20   S    
N1    Zn1   S    
C2    C27   A    
C13   N1    A    
C12   C14   A    
C1    C23   S    
C14   C16   A    
O23   Zn1   S    
O30   S8    S    
C4    C27   A    
C19   H16   S    
O25   S7    D    
C13   O4    S    
H10   O24   S    
C15   C17   A    
H5    O7    S    
O32   Zn1   S    
C3    C26   A    
C9    N2    A    
C20   O3    S    
C3    C5    S    
O8    S2    D    
C5    C8    T    
C19   H17   S    
C6    C7    T    
C21   H2    S    
C26   C28   A    
C2    C3    A    
C11   N2    A    
N2    Zn2   S    
O28   S8    D    
O33   Zn2   S    
O27   S7    S    
O5    S1    D    
C14   S5    S    
C20   H19   S    
C10   C11   A    
C18   H12   S    
C25   O33   A    
C17   S8    S    
O19   S5    D    
C10   N1    A    
C20   H18   S    
O1    Zn1   S    
C22   O1    A    
