data_mof_unit_777.cif
_audit_creation_date              2012-12-10T18:44:27-0500
_audit_creation_method            fapswitch 2.2
_symmetry_space_group_name_H-M    P1
_symmetry_Int_Tables_number       1
_space_group_crystal_system       triclinic
_cell_length_a                    12.78753
_cell_length_b                    10.758308
_cell_length_c                    9.819304
_cell_angle_alpha                 91.028355
_cell_angle_beta                  97.190612
_cell_angle_gamma                 89.074844
_cell_volume                      1339.89145937

loop_
_atom_site_label
_atom_site_type_symbol
_atom_type_description
_atom_site_fract_x
_atom_site_fract_y
_atom_site_fract_z
_atom_type_partial_charge
C1    C     C_R   0.503782 0.259873 0.498862 0.927938
C2    C     C_R   0.701883 0.505572 0.527293 0.918873
C3    C     C_R   0.814830 0.510394 0.546920 -0.150607
C4    C     C_R   0.186786 0.466647 0.460209 -0.149311
C5    C     C_R   0.031121 0.339048 0.399602 0.440683
C6    C     C_R   0.979755 0.589227 0.657513 0.438383
C7    C     C_R   0.138896 0.362802 0.387244 -0.000530
C8    C     C_R   0.869374 0.598789 0.635868 0.025500
C9    C     C_R   0.133331 0.538839 0.547475 -0.153797
C10   C     C_R   0.867539 0.421967 0.475447 -0.157438
C11   C     C_R   0.030794 0.515345 0.564537 -0.041367
C12   C     C_R   0.495716 0.740157 0.501042 0.952738
C13   C     C_R   0.976369 0.423541 0.480136 -0.037828
C14   C     C_R   0.544863 0.056315 0.391907 0.389412
C15   C     C_R   0.454908 0.943871 0.608248 0.474482
C16   C     C_R   0.538230 0.929327 0.396962 -0.331746
C17   C     C_R   0.460474 0.070933 0.602357 -0.288688
C18   C     C_3   0.811687 0.711168 0.689486 -0.346585
C19   C     C_3   0.775857 0.801273 0.573777 -0.809055
C20   C     C_3   0.202788 0.279329 0.300533 -0.380518
C21   C     C_3   0.170279 0.298856 0.147079 -0.659671
C22   C     C_R   0.494861 0.872775 0.503530 -0.233311
C23   C     C_R   0.504305 0.127383 0.496163 -0.232727
C24   C     C_R   0.571696 0.568060 0.085050 0.000495
C25   C     C_R   0.428183 0.432132 0.914996 -0.030510
C26   C     C_R   0.571806 0.567744 0.941091 0.024865
C27   C     C_R   0.428298 0.432286 0.058981 0.020383
C28   C     C_R   0.298389 0.490353 0.473160 0.906662
H1    H     H_    0.820913 0.357977 0.408911 0.257643
H2    H     H_    0.722588 0.755437 0.490804 0.236360
H3    H     H_    0.733038 0.881434 0.614816 0.268184
H4    H     H_    0.743281 0.682177 0.739255 0.219133
H5    H     H_    0.861625 0.765534 0.768163 0.285343
H6    H     H_    0.217862 0.236337 0.086996 0.242617
H7    H     H_    0.085924 0.278577 0.116457 0.309378
H8    H     H_    0.184077 0.396757 0.120832 0.244445
H9    H     H_    0.288287 0.295310 0.321322 0.196046
H10   H     H_    0.198413 0.180972 0.329049 0.256496
H11   H     H_    0.857121 0.070987 0.392005 0.412513
H12   H     H_    0.172553 0.617422 0.600130 0.243139
H13   H     H_    0.198441 0.614583 0.936297 0.382830
H14   H     H_    0.465247 0.095586 0.106559 0.369490
H15   H     H_    0.320267 0.707899 0.769436 0.398021
H16   H     H_    0.569372 0.873569 0.317922 0.220973
H17   H     H_    0.428983 0.126818 0.681024 0.219148
H18   H     H_    0.628834 0.622680 0.150069 0.142587
H19   H     H_    0.370971 0.377539 0.850066 0.157175
H20   H     H_    0.628951 0.622150 0.897029 0.139709
H21   H     H_    0.371983 0.377316 0.103543 0.139434
H22   H     H_    0.845306 0.836739 0.529737 0.287710
N1    N     N_R   0.499970 0.499970 0.857200 -0.104954
N2    N     N_R   0.500030 0.500030 0.142800 -0.088334
O1    O     O_R   0.499990 0.316750 0.614620 -0.624965
O2    O     O_2   0.033028 0.103823 0.275804 -0.276844
O3    O     O_3   0.893903 0.142791 0.439745 -0.533475
O4    O     O_2   0.079835 0.788344 0.776835 -0.236250
O5    O     O_2   0.989679 0.656173 0.925480 -0.290578
O6    O     O_3   0.164938 0.574467 0.850551 -0.593531
O7    O     O_2   0.674757 0.223739 0.302936 -0.239313
O8    O     O_2   0.669119 0.019738 0.190385 -0.265546
O9    O     O_3   0.509396 0.169038 0.133092 -0.526824
O10   O     O_2   0.483746 0.833707 0.851759 -0.318717
O11   O     O_2   0.335641 0.980721 0.814862 -0.264551
O12   O     O_R   0.500010 0.683250 0.385380 -0.637616
O13   O     O_3   0.315387 0.766336 0.692085 -0.527646
O14   O     O_R   0.499990 0.316780 0.385290 -0.562291
O15   O     O_R   0.500010 0.683220 0.614710 -0.569393
O16   O     O_R   0.346360 0.499970 0.595710 -0.609882
O17   O     O_R   0.653640 0.500030 0.404290 -0.603399
O18   O     O_R   0.346360 0.499990 0.366380 -0.629401
O19   O     O_R   0.653640 0.500010 0.633620 -0.621781
O20   O     O_2   0.887660 0.246412 0.202074 -0.243532
S1    S     S_3+6 0.962956 0.204736 0.323134 0.045094
S2    S     S_3+6 0.053151 0.656817 0.806497 0.021844
S3    S     S_3+6 0.604346 0.117757 0.253680 0.072574
S4    S     S_3+6 0.397192 0.882067 0.747558 0.057768
Zn1   Zn    Zn3+2 0.500000 0.499980 0.653120 1.007996
Zn2   Zn    Zn3+2 0.500000 0.500020 0.346880 1.018445

loop_
_geom_bond_atom_site_label_1
_geom_bond_atom_site_label_2
_ccdc_geom_bond_type
C24   N2    A    
O18   Zn2   S    
O15   Zn1   S    
C19   H3    S    
N1    Zn1   S    
C21   H8    S    
O9    S3    S    
C17   C23   A    
O13   S4    S    
C28   O16   A    
C24   C26   A    
H13   O6    S    
C12   O12   A    
C19   H22   S    
O11   S4    D    
C12   C22   S    
C18   C19   S    
C1    O1    A    
C15   C22   A    
H11   O3    S    
C2    O17   A    
C16   H16   S    
C5    C13   A    
C26   H20   S    
C15   S4    S    
O10   S4    D    
O17   Zn2   S    
C4    C7    A    
N2    Zn2   S    
C4    C28   S    
C14   C23   A    
C6    S2    S    
O14   Zn2   S    
C12   O15   A    
O4    S2    D    
C3    C8    A    
C6    C11   A    
C5    C7    A    
C6    C8    A    
C21   H6    S    
C9    H12   S    
C8    C18   S    
O5    S2    D    
O1    Zn1   S    
C25   N1    A    
O2    S1    D    
C20   H10   S    
H15   O13   S    
C1    O14   A    
C9    C11   A    
H14   O9    S    
C1    C23   S    
C14   C16   A    
C18   H4    S    
C2    O19   A    
O7    S3    D    
O19   Zn1   S    
C27   N2    A    
O6    S2    S    
O16   Zn1   S    
C15   C17   A    
C25   H19   S    
C16   C22   A    
O12   Zn2   S    
C28   O18   A    
C17   H17   S    
O20   S1    D    
C10   C13   A    
C21   H7    S    
C25   C27   A    
O8    S3    D    
C24   H18   S    
C14   S3    S    
C2    C3    S    
C3    C10   A    
C26   N1    A    
C20   H9    S    
C11   C13   A    
C10   H1    S    
C5    S1    S    
C18   H5    S    
O3    S1    S    
C20   C21   S    
C7    C20   S    
C4    C9    A    
C19   H2    S    
C27   H21   S    
