data_mof_unit_4894.cif
_audit_creation_date              2013-03-05T15:54:33-0500
_audit_creation_method            fapswitch 2.2
_symmetry_space_group_name_H-M    P1
_symmetry_Int_Tables_number       1
_space_group_crystal_system       triclinic
_cell_length_a                    19.173284
_cell_length_b                    18.403641
_cell_length_c                    12.314552
_cell_angle_alpha                 89.999666
_cell_angle_beta                  128.929189
_cell_angle_gamma                 90.001102
_cell_volume                      3380.30246842

loop_
_atom_site_label
_atom_site_type_symbol
_atom_site_description
_atom_site_fract_x
_atom_site_fract_y
_atom_site_fract_z
_atom_type_partial_charge
O1    O     O_R   0.608610 0.924520 0.551740 -0.581162
O2    O     O_R   0.608610 0.075480 0.551740 -0.581172
O3    O     O_R   0.108610 0.424520 0.551740 -0.580058
O4    O     O_R   0.108610 0.575480 0.551740 -0.580049
O5    O     O_R   0.564110 0.924510 0.685150 -0.607188
O6    O     O_R   0.564110 0.075490 0.685150 -0.607181
O7    O     O_R   0.064110 0.424510 0.685150 -0.606733
O8    O     O_R   0.064110 0.575490 0.685150 -0.606722
C1    C     C_R   0.607863 0.895350 0.647935 0.806446
C2    C     C_R   0.607864 0.104650 0.647934 0.806437
C3    C     C_R   0.109206 0.396098 0.649410 0.801583
C4    C     C_R   0.109211 0.603901 0.649415 0.801573
Cu1   Cu    Cu3+1 0.526340 0.000000 0.421010 0.926818
Cu2   Cu    Cu3+1 0.026340 0.500000 0.421010 0.928392
Cu3   Cu    Cu3+1 0.473640 0.000000 0.578990 0.903062
Cu4   Cu    Cu3+1 0.973640 0.500000 0.578990 0.908018
O9    O     O_R   0.435880 0.075470 0.314850 -0.586422
O10   O     O_R   0.435880 0.924530 0.314850 -0.586429
O11   O     O_R   0.935880 0.575470 0.314850 -0.586596
O12   O     O_R   0.935880 0.424530 0.314850 -0.586602
O13   O     O_R   0.391380 0.075460 0.448260 -0.599913
O14   O     O_R   0.391380 0.924540 0.448260 -0.599946
O15   O     O_R   0.891380 0.575460 0.448260 -0.597201
O16   O     O_R   0.891380 0.424540 0.448260 -0.597199
C5    C     C_R   0.384157 0.098554 0.341932 0.795770
C6    C     C_R   0.384153 0.901448 0.341928 0.795775
C7    C     C_R   0.884484 0.598855 0.342349 0.796386
C8    C     C_R   0.884484 0.401145 0.342349 0.796385
C9    C     C_R   0.675243 0.288130 0.156008 -0.195994
C10   C     C_R   0.675252 0.711876 0.156029 -0.196000
C11   C     C_R   0.165572 0.800026 0.137516 -0.193551
C12   C     C_R   0.165590 0.199985 0.137547 -0.193541
H1    H     H_    0.240129 0.862486 0.325626 0.153371
H2    H     H_    0.240137 0.137510 0.325635 0.153378
H3    H     H_    0.752094 0.349434 0.345323 0.157018
H4    H     H_    0.752104 0.650569 0.345338 0.157020
H5    H     H_    0.541621 0.210578 0.945679 0.137615
H6    H     H_    0.541633 0.789438 0.945711 0.137622
H7    H     H_    0.030360 0.726867 0.919188 0.147410
H8    H     H_    0.030383 0.273145 0.919234 0.147400
H9    H     H_    0.625773 0.273134 0.168086 0.132914
H10   H     H_    0.625788 0.726875 0.168116 0.132914
H11   H     H_    0.111048 0.790744 0.140695 0.135134
H12   H     H_    0.111066 0.209264 0.140727 0.135123
C13   C     C_R   0.310618 0.852670 0.241399 -0.046790
C14   C     C_R   0.310629 0.147337 0.241414 -0.046791
C15   C     C_R   0.812193 0.350951 0.243841 -0.047823
C16   C     C_R   0.812194 0.649049 0.243844 -0.047827
C17   C     C_R   0.714730 0.199064 0.690434 -0.189752
C18   C     C_R   0.714719 0.800933 0.690425 -0.189752
C19   C     C_R   0.227452 0.689960 0.706649 -0.206560
C20   C     C_R   0.227420 0.310030 0.706604 -0.206725
C21   C     C_R   0.285269 0.748339 0.781170 0.215573
C22   C     C_R   0.285255 0.251669 0.781152 0.215634
C23   C     C_R   0.768231 0.260591 0.759702 0.204148
C24   C     C_R   0.768218 0.739406 0.759693 0.204151
C25   C     C_R   0.287390 0.780847 0.885783 -0.235086
C26   C     C_R   0.287409 0.219180 0.885810 -0.234961
C27   C     C_R   0.773405 0.289904 0.869416 -0.259765
C28   C     C_R   0.773395 0.710095 0.869410 -0.259759
C29   C     C_R   0.721151 0.261926 0.904560 0.057191
C30   C     C_R   0.721147 0.738076 0.904563 0.057187
C31   C     C_R   0.227433 0.759035 0.909981 0.048850
C32   C     C_R   0.227452 0.240986 0.910012 0.048814
C33   C     C_R   0.654772 0.209522 0.815514 0.082253
C34   C     C_R   0.654771 0.790482 0.815523 0.082257
C35   C     C_R   0.158267 0.709452 0.816044 0.080022
C36   C     C_R   0.158276 0.290560 0.816066 0.080033
C37   C     C_R   0.232554 0.786350 0.022630 0.087116
C38   C     C_R   0.232574 0.213670 0.022663 0.087107
C39   C     C_R   0.730745 0.285942 0.023033 0.086315
C40   C     C_R   0.730744 0.714061 0.023040 0.086321
C41   C     C_R   0.666428 0.265518 0.039259 0.172342
C42   C     C_R   0.666434 0.734488 0.039276 0.172345
C43   C     C_R   0.161555 0.773185 0.027160 0.168781
C44   C     C_R   0.161576 0.226831 0.027197 0.168792
C45   C     C_R   0.593081 0.223801 0.937458 -0.255316
C46   C     C_R   0.593090 0.776210 0.937484 -0.255344
C47   C     C_R   0.086790 0.734245 0.920432 -0.244525
C48   C     C_R   0.086811 0.265770 0.920474 -0.244517
C49   C     C_R   0.585936 0.197683 0.825382 -0.186679
C50   C     C_R   0.585941 0.802325 0.825403 -0.186648
C51   C     C_R   0.084617 0.703282 0.815739 -0.187972
C52   C     C_R   0.084631 0.296729 0.815772 -0.187972
C53   C     C_R   0.307835 0.824136 0.133690 -0.257689
C54   C     C_R   0.307852 0.175879 0.133715 -0.257679
C55   C     C_R   0.804531 0.327081 0.128981 -0.257564
C56   C     C_R   0.804528 0.672919 0.128980 -0.257565
C57   C     C_R   0.239526 0.840095 0.243731 -0.202657
C58   C     C_R   0.239538 0.159910 0.243750 -0.202654
C59   C     C_R   0.747537 0.331053 0.257500 -0.204191
C60   C     C_R   0.747544 0.668949 0.257512 -0.204184
C61   C     C_R   0.659070 0.172093 0.718707 -0.163723
C62   C     C_R   0.659065 0.827908 0.718708 -0.163724
C63   C     C_R   0.164589 0.669030 0.724194 -0.152482
C64   C     C_R   0.164580 0.330971 0.724186 -0.152425
H13   H     H_    0.365963 0.831124 0.139570 0.151319
H14   H     H_    0.365979 0.168890 0.139594 0.151315
H15   H     H_    0.857837 0.340053 0.125287 0.153943
H16   H     H_    0.857829 0.659943 0.125278 0.153943
H17   H     H_    0.714307 0.172755 0.611598 0.171508
H18   H     H_    0.714293 0.827239 0.611584 0.171514
H19   H     H_    0.231297 0.661320 0.633674 0.161824
H20   H     H_    0.231237 0.338649 0.633583 0.161819
H21   H     H_    0.333799 0.825142 0.942979 0.126460
H22   H     H_    0.333830 0.174895 0.943017 0.126480
H23   H     H_    0.815748 0.336955 0.921692 0.128879
H24   H     H_    0.815734 0.663044 0.921682 0.128878
H25   H     H_    0.523758 0.170874 0.745191 0.186129
H26   H     H_    0.523764 0.829135 0.745217 0.186115
H27   H     H_    0.022821 0.677104 0.732660 0.180689
H28   H     H_    0.022832 0.322900 0.732693 0.180687
C65   C     C_R   0.685028 0.000027 0.288751 0.089764
C66   C     C_R   0.185033 0.500001 0.288760 0.091348
H29   H     H_    0.702197 0.000027 0.479527 0.131412
H30   H     H_    0.202195 0.500002 0.479537 0.128050
H31   H     H_    0.719110 0.000035 0.106960 0.167515
H32   H     H_    0.219119 0.500001 0.106968 0.167023
N1    N     N_R   0.566260 0.000000 0.302220 -0.199333
N2    N     N_R   0.066260 0.500000 0.302220 -0.198464
C67   C     C_R   0.344700 0.999949 0.628581 0.055576
C68   C     C_R   0.844701 0.500000 0.628582 0.067150
C69   C     C_R   0.311383 0.999902 0.701615 -0.251394
C70   C     C_R   0.811401 0.500000 0.701641 -0.307439
C71   C     C_R   0.370078 0.999924 0.847160 -0.194096
C72   C     C_R   0.870092 0.500000 0.847189 -0.217733
C73   C     C_R   0.463690 0.999977 0.922395 -0.002648
C74   C     C_R   0.963697 0.500000 0.922409 0.008607
C75   C     C_R   0.494569 0.000003 0.842629 0.279017
C76   C     C_R   0.994573 0.500000 0.842633 0.283823
C77   C     C_R   0.527594 0.999993 0.073050 -0.083266
C78   C     C_R   0.027598 0.500000 0.073060 -0.080048
C79   C     C_R   0.620979 0.000016 0.140813 0.154614
C80   C     C_R   0.120985 0.500001 0.140822 0.155197
C81   C     C_R   0.648792 0.000024 0.059744 -0.262948
C82   C     C_R   0.148800 0.500000 0.059751 -0.266583
C83   C     C_R   0.587485 0.000016 0.915500 -0.185654
C84   C     C_R   0.087493 0.500000 0.915501 -0.185929
C85   C     C_R   0.502934 0.999988 0.160169 -0.015570
C86   C     C_R   0.002934 0.500000 0.160172 -0.012823
C87   C     C_R   0.654941 0.000018 0.366585 0.054861
C88   C     C_R   0.154942 0.500001 0.366592 0.056523
N3    N     N_R   0.434410 0.000000 0.697680 -0.208835
N4    N     N_R   0.934410 0.500000 0.697680 -0.206192
H33   H     H_    0.433810 0.999980 0.117686 0.134680
H34   H     H_    0.933809 0.499999 0.117688 0.131368
H35   H     H_    0.298547 0.999934 0.515689 0.125564
H36   H     H_    0.798547 0.500000 0.515693 0.128930
H37   H     H_    0.340275 0.999888 0.897719 0.135710
H38   H     H_    0.840279 0.500000 0.897734 0.137961
H39   H     H_    0.239689 0.999853 0.645110 0.142965
H40   H     H_    0.739707 0.500000 0.645162 0.149751
H41   H     H_    0.616911 0.000013 0.865711 0.215486
H42   H     H_    0.116922 0.500000 0.865717 0.213797
C89   C     C_3   0.784788 0.000051 0.365611 -0.915943
H43   H     H_    0.803814 0.049406 0.337753 0.243965
H44   H     H_    0.823871 0.000059 0.480652 0.229433
H45   H     H_    0.803847 0.950706 0.337783 0.243957
C90   C     C_3   0.284793 0.500003 0.365615 -0.919219
H46   H     H_    0.323879 0.500003 0.480656 0.228762
H47   H     H_    0.303838 0.450658 0.337768 0.243488
H48   H     H_    0.303839 0.549348 0.337767 0.243476
C91   C     C_3   0.347037 0.774224 0.752536 -0.420153
C92   C     C_3   0.294774 0.804673 0.604988 -0.819726
H49   H     H_    0.255002 0.761257 0.526022 0.244940
H50   H     H_    0.248973 0.848680 0.587304 0.254022
H51   H     H_    0.342442 0.827404 0.591236 0.246867
H52   H     H_    0.391872 0.817906 0.826919 0.201074
H53   H     H_    0.389733 0.728328 0.766648 0.199648
C93   C     C_3   0.346982 0.225776 0.752451 -0.420239
C94   C     C_3   0.294673 0.195104 0.605067 -0.820004
H54   H     H_    0.249319 0.150871 0.588006 0.254139
H55   H     H_    0.254435 0.238304 0.525870 0.245048
H56   H     H_    0.342313 0.172627 0.591059 0.246881
H57   H     H_    0.389522 0.271705 0.766190 0.199718
H58   H     H_    0.391963 0.182215 0.827023 0.201032
C95   C     C_3   0.818767 0.298555 0.718476 -0.393935
C96   C     C_3   0.826998 0.256114 0.620195 -0.867558
H59   H     H_    0.860059 0.202893 0.666907 0.257015
H60   H     H_    0.760019 0.247888 0.517239 0.247779
H61   H     H_    0.868248 0.287645 0.602249 0.247523
H62   H     H_    0.784377 0.350704 0.667427 0.215529
H63   H     H_    0.887315 0.311812 0.814336 0.197437
C97   C     C_3   0.818749 0.701441 0.718461 -0.393956
C98   C     C_3   0.826988 0.743884 0.620191 -0.867584
H64   H     H_    0.760011 0.752112 0.517235 0.247783
H65   H     H_    0.860053 0.797103 0.666910 0.257025
H66   H     H_    0.868237 0.712352 0.602245 0.247526
H67   H     H_    0.887294 0.688179 0.814317 0.197449
H68   H     H_    0.784352 0.649296 0.667403 0.215530

loop_
_geom_bond_atom_site_label_1
_geom_bond_atom_site_label_2
_geom_bond_distance
_ccdc_geom_bond_type
C7    C16   1.460480 S    
C3    C64   1.477550 S    
C25   H21   1.079229 S    
C94   H54   1.110579 S    
H29   C87   1.082433 S    
C8    C15   1.460466 S    
C35   C51   1.414310 A    
C23   C27   1.399224 A    
C89   H44   1.111030 S    
C67   N3    1.357663 A    
C91   C92   1.526897 S    
O10   C6    1.300326 A    
O3    C3    1.305020 A    
C68   N4    1.357639 A    
C48   C52   1.386028 A    
H2    C58   1.082746 S    
C96   H59   1.110778 S    
C37   C53   1.398769 A    
C93   H58   1.111091 S    
O7    C3    1.301141 A    
C94   H55   1.110341 S    
C17   C61   1.404787 A    
C52   H28   1.076677 S    
C11   H11   1.083981 S    
Cu1   O10   1.948535 S    
C66   C88   1.395151 A    
C92   H49   1.110685 S    
Cu4   N4    2.020811 S    
C17   H17   1.080324 S    
C10   C42   1.401208 A    
C98   H65   1.110763 S    
C9    C41   1.401210 A    
C93   C94   1.526766 S    
C19   H19   1.083549 S    
C95   H62   1.109109 S    
C97   C98   1.529622 S    
C28   C30   1.414604 A    
C67   H35   1.081532 S    
C50   H26   1.077190 S    
O2    Cu1   1.953998 S    
C22   C93   1.509448 S    
C6    C13   1.460389 S    
C40   C56   1.399014 A    
O6    Cu3   1.948886 S    
C33   C49   1.416219 A    
Cu3   O14   1.953682 S    
C12   C58   1.390805 A    
C31   C37   1.419712 A    
C51   H27   1.076676 S    
C65   C87   1.395122 A    
C11   C57   1.390819 A    
C14   C58   1.400543 A    
C44   C48   1.388566 A    
C16   C56   1.397881 A    
C4    C63   1.477583 S    
C37   C43   1.417856 A    
N2    C86   1.365641 A    
C32   C38   1.419719 A    
O4    C4    1.305020 A    
C76   N4    1.388983 A    
O12   C8    1.300122 A    
C28   H24   1.080037 S    
C53   H13   1.078186 S    
C34   C62   1.423362 A    
N1    C85   1.365668 A    
H4    C60   1.083032 S    
C33   C61   1.423354 A    
C70   H40   1.082499 S    
O8    Cu4   1.948886 S    
C65   C79   1.419655 A    
C89   H45   1.110429 S    
C35   C63   1.421193 A    
C23   C95   1.517541 S    
C39   C55   1.399007 A    
C65   C89   1.509706 S    
C54   H14   1.078183 S    
C74   C78   1.444421 A    
O11   C7    1.300131 A    
Cu1   N1    2.032941 S    
C20   C22   1.395232 A    
C25   C31   1.414898 A    
C69   H39   1.082456 S    
C93   H57   1.111250 S    
H3    C59   1.083031 S    
C26   C32   1.414917 A    
C94   H56   1.110516 S    
C31   C35   1.414777 A    
C27   C29   1.414603 A    
O5    Cu3   1.948924 S    
C30   C34   1.413663 A    
C83   H41   1.062523 S    
C36   C52   1.414305 A    
Cu2   O12   1.948535 S    
O1    C1    1.308808 A    
C40   C42   1.418298 A    
C86   H34   1.076513 S    
C39   C41   1.418290 A    
C77   C85   1.418442 A    
C21   C25   1.397634 A    
C21   C91   1.509501 S    
C98   H66   1.109397 S    
C80   C82   1.396511 A    
C24   C97   1.517543 S    
C2    C61   1.479412 S    
C17   C23   1.400848 A    
H5    C45   1.080963 S    
C27   H23   1.080039 S    
C24   C28   1.399222 A    
C19   C21   1.395276 A    
H7    C47   1.080941 S    
C13   C53   1.396053 A    
C73   C75   1.430481 A    
O5    C1    1.298043 A    
H1    C57   1.082748 S    
C34   C50   1.416225 A    
C46   C50   1.384566 A    
C11   C43   1.401874 A    
C90   H46   1.111023 S    
C45   C49   1.384565 A    
O8    C4    1.301154 A    
H8    C48   1.080938 S    
C12   H12   1.083979 S    
C90   H48   1.110411 S    
C30   C40   1.421425 A    
N2    C88   1.351156 A    
C36   C64   1.421178 A    
C56   H16   1.077990 S    
O3    Cu2   1.954029 S    
C71   H37   1.077625 S    
Cu3   N3    2.020811 S    
C82   C84   1.383151 A    
O7    Cu4   1.948924 S    
C49   H25   1.077195 S    
C18   H18   1.080324 S    
Cu4   O15   1.953710 S    
O15   C7    1.298921 A    
Cu1   Cu3   2.697434 S    
C76   C84   1.403609 A    
C42   C46   1.386771 A    
N1    C87   1.351152 A    
H30   C88   1.082454 S    
O1    Cu1   1.954029 S    
C68   C70   1.392468 A    
O2    C2    1.308801 A    
C32   C36   1.414791 A    
C9    C59   1.389328 A    
H32   C82   1.081975 S    
C70   C72   1.394321 A    
C22   C26   1.397634 A    
C81   C83   1.383105 A    
O13   C5    1.298611 A    
C85   H33   1.076491 S    
C97   H68   1.109091 S    
C72   C74   1.410599 A    
C13   C57   1.400546 A    
C9    H9    1.084082 S    
C15   C59   1.400422 A    
Cu2   O11   1.948571 S    
C92   H51   1.110639 S    
C18   C62   1.404785 A    
O16   C8    1.298924 A    
C77   C79   1.422872 A    
C74   C76   1.430560 A    
C12   C44   1.401866 A    
C96   H60   1.110579 S    
H31   C81   1.081955 S    
C75   N3    1.388943 A    
C78   C86   1.418434 A    
H6    C46   1.080990 S    
Cu2   N2    2.032941 S    
Cu1   O9    1.948571 S    
O9    C5    1.300324 A    
Cu4   O16   1.953682 S    
C73   C77   1.444467 A    
C92   H50   1.110940 S    
C90   H47   1.110412 S    
C91   H52   1.111173 S    
C95   H63   1.109321 S    
C38   C44   1.417865 A    
C72   H38   1.077634 S    
C29   C39   1.421424 A    
C98   H64   1.110564 S    
C1    C62   1.479416 S    
C66   C80   1.419657 A    
C20   H20   1.083554 S    
C20   C64   1.405322 A    
Cu2   Cu4   2.697434 S    
O4    Cu2   1.953998 S    
C91   H53   1.111320 S    
C18   C24   1.400843 A    
C66   C90   1.509732 S    
C67   C69   1.392460 A    
C96   H61   1.109399 S    
C69   C71   1.394282 A    
O6    C2    1.298047 A    
O14   C6    1.298616 A    
C68   H36   1.081516 S    
C47   C51   1.386045 A    
C55   H15   1.077995 S    
C29   C33   1.413660 A    
Cu3   O13   1.953710 S    
C75   C83   1.403564 A    
C78   C80   1.422890 A    
C95   C96   1.529643 S    
C16   C60   1.400422 A    
C19   C63   1.405362 A    
C89   H43   1.110428 S    
C71   C73   1.410690 A    
C79   C81   1.396450 A    
C41   C45   1.386760 A    
C97   H67   1.109306 S    
C10   H10   1.084079 S    
C26   H22   1.079225 S    
C84   H42   1.062543 S    
C43   C47   1.388576 A    
C5    C14   1.460376 S    
C15   C55   1.397885 A    
C14   C54   1.396054 A    
C10   C60   1.389334 A    
C38   C54   1.398769 A    
