data_mof_unit_89.cif
_audit_creation_date              2012-10-26T20:06:58-0400
_audit_creation_method            fapswitch 2.2
_symmetry_space_group_name_H-M    P1
_symmetry_Int_Tables_number       1
_space_group_crystal_system       triclinic
_cell_length_a                    10.826415
_cell_length_b                    9.503818
_cell_length_c                    27.827752
_cell_angle_alpha                 90.304027
_cell_angle_beta                  90.234769
_cell_angle_gamma                 90.020778
_cell_volume                      2863.19623093

loop_
_atom_site_label
_atom_site_type_symbol
_atom_type_description
_atom_site_fract_x
_atom_site_fract_y
_atom_site_fract_z
_atom_type_partial_charge
C1    C     C_R   0.262018 0.499987 0.499953 0.549320
C2    C     C_R   0.384005 0.470928 0.872581 0.025257
C3    C     C_R   0.505838 0.498995 0.354511 0.018851
C4    C     C_R   0.492541 0.501076 0.645595 0.006150
C5    C     C_R   0.382889 0.475688 0.974587 0.018757
C6    C     C_R   0.607686 0.527156 0.025414 0.018538
C7    C     C_R   0.608337 0.516898 0.974425 0.018728
C8    C     C_R   0.383879 0.475631 0.025701 0.018561
C9    C     C_R   0.495515 0.494013 0.949279 0.033721
C10   C     C_R   0.495929 0.503677 0.050785 0.033902
C11   C     C_R   0.272639 0.458743 0.947600 -0.140761
C12   C     C_R   0.737973 0.500025 0.500187 0.542959
C13   C     C_R   0.715205 0.561311 0.052182 -0.141298
C14   C     C_R   0.273527 0.456120 0.897711 -0.112726
C15   C     C_R   0.714080 0.566530 0.102044 -0.112671
C16   C     C_R   0.502928 0.499426 0.407466 0.548564
C17   C     C_R   0.496868 0.500557 0.592562 0.546436
C18   C     C_R   0.276435 0.447618 0.052906 -0.141063
C19   C     C_R   0.718521 0.527758 0.947438 -0.140753
C20   C     C_R   0.063761 0.372344 0.497021 -0.135307
C21   C     C_R   0.936202 0.627679 0.502819 -0.134917
C22   C     C_R   0.936016 0.372366 0.497088 -0.144114
C23   C     C_R   0.496320 0.507962 0.101894 -0.026987
C24   C     C_R   0.063944 0.627664 0.502749 -0.139862
C25   C     C_R   0.871779 0.500025 0.500051 0.016864
C26   C     C_R   0.128196 0.499987 0.499903 0.020999
C27   C     C_R   0.423714 0.073986 0.469852 0.005648
C28   C     C_R   0.576269 0.926015 0.530155 0.004736
C29   C     C_R   0.576307 0.074958 0.530142 0.011229
C30   C     C_R   0.423681 0.925042 0.469864 0.011743
C31   C     C_R   0.390248 0.483254 0.178179 0.398903
C32   C     C_R   0.603764 0.502820 0.822044 0.398497
C33   C     C_R   0.604595 0.540776 0.177764 0.397182
C34   C     C_R   0.495288 0.489768 0.898168 -0.027119
C35   C     C_R   0.385581 0.468809 0.822138 0.395296
C36   C     C_R   0.567320 0.402608 0.277026 -0.044916
C37   C     C_R   0.434117 0.601202 0.722872 -0.033689
C38   C     C_R   0.572269 0.396751 0.327375 -0.013324
C39   C     C_R   0.431085 0.608394 0.672314 -0.013971
C40   C     C_R   0.440023 0.604975 0.330395 -0.158131
C41   C     C_R   0.550111 0.389407 0.669882 -0.154924
C42   C     C_R   0.437147 0.609264 0.280421 -0.063097
C43   C     C_R   0.550304 0.383930 0.719787 -0.062863
C44   C     C_R   0.500428 0.507969 0.253614 0.224945
C45   C     C_R   0.387320 0.481078 0.127720 0.025141
C46   C     C_R   0.492956 0.489987 0.746408 0.221013
C47   C     C_3   0.361724 0.726325 0.646720 -0.265571
C48   C     C_3   0.277569 0.817277 0.678171 -0.449076
C49   C     C_3   0.653068 0.284528 0.350045 -0.270163
C50   C     C_3   0.769763 0.347998 0.372316 -0.402299
C51   C     C_R   0.606288 0.504885 0.872497 0.025224
C52   C     C_R   0.278377 0.450555 0.102799 -0.112530
C53   C     C_R   0.717171 0.522320 0.897570 -0.112439
C54   C     C_R   0.605838 0.538645 0.127327 0.025084
Cu1   Cu    Cu3+1 0.500000 0.640660 0.500000 0.925353
Cu2   Cu    Cu3+1 0.500000 0.359340 0.500000 0.928737
H1    H     H_    0.389209 0.684048 0.350355 0.121852
H2    H     H_    0.804083 0.532050 0.878700 0.166196
H3    H     H_    0.391365 0.681320 0.744898 0.134852
H4    H     H_    0.616849 0.325945 0.255534 0.129384
H5    H     H_    0.186462 0.443022 0.878865 0.166343
H6    H     H_    0.799150 0.592427 0.120742 0.166921
H7    H     H_    0.182910 0.449489 0.963757 0.106332
H8    H     H_    0.802150 0.586984 0.035801 0.108301
H9    H     H_    0.188929 0.420407 0.036918 0.108052
H10   H     H_    0.808466 0.538508 0.963646 0.106350
H11   H     H_    0.111775 0.272581 0.494641 0.127728
H12   H     H_    0.596538 0.306488 0.650117 0.124096
H13   H     H_    0.888182 0.727444 0.505174 0.128305
H14   H     H_    0.887843 0.272626 0.494727 0.126539
H15   H     H_    0.112100 0.727426 0.505054 0.126403
H16   H     H_    0.210340 0.750578 0.697723 0.176920
H17   H     H_    0.333049 0.880786 0.704003 0.154102
H18   H     H_    0.225051 0.891237 0.655046 0.149152
H19   H     H_    0.429707 0.797121 0.629347 0.170343
H20   H     H_    0.302159 0.678898 0.618295 0.167207
H21   H     H_    0.825999 0.399491 0.344112 0.167977
H22   H     H_    0.746768 0.427004 0.400276 0.165920
H23   H     H_    0.362659 0.129852 0.445721 0.109782
H24   H     H_    0.825735 0.263545 0.389155 0.137047
H25   H     H_    0.601081 0.222982 0.376946 0.176037
H26   H     H_    0.682806 0.206329 0.322570 0.136006
H27   H     H_    0.637300 0.870150 0.554296 0.109770
H28   H     H_    0.637413 0.131594 0.554263 0.108444
H29   H     H_    0.362564 0.868406 0.445747 0.108164
H30   H     H_    0.385737 0.691501 0.262461 0.138388
H31   H     H_    0.595462 0.297286 0.737861 0.138167
H32   H     H_    0.193545 0.428082 0.121814 0.166865
N1    N     N_R   0.498026 0.512127 0.202083 -0.397755
N2    N     N_R   0.494335 0.485682 0.797964 -0.398983
N3    N     N_R   0.500000 0.852070 0.500000 -0.225194
N4    N     N_R   0.500000 0.147930 0.500000 -0.225226
O1    O     O_R   0.319640 0.618740 0.500000 -0.513626
O2    O     O_2   0.709534 0.519890 0.797233 -0.496144
O3    O     O_2   0.279330 0.449723 0.797399 -0.498669
O4    O     O_2   0.709011 0.571357 0.202359 -0.497789
O5    O     O_R   0.680360 0.381260 0.500000 -0.511763
O6    O     O_R   0.680360 0.618740 0.500000 -0.504153
O7    O     O_R   0.319640 0.381260 0.500000 -0.504166
O8    O     O_R   0.500020 0.618770 0.430260 -0.500890
O9    O     O_R   0.499980 0.381230 0.569740 -0.498076
O10   O     O_R   0.499980 0.618770 0.569740 -0.512850
O11   O     O_R   0.500020 0.381230 0.430260 -0.507445
O12   O     O_2   0.286671 0.454909 0.203168 -0.496983

loop_
_geom_bond_atom_site_label_1
_geom_bond_atom_site_label_2
_ccdc_geom_bond_type
C2    C35   A    
C32   O2    S    
Cu1   Cu2   S    
C50   H21   S    
C23   C45   A    
C20   H11   S    
Cu1   O1    S    
C1    O7    A    
C18   C52   A    
C38   C49   S    
C18   H9    S    
Cu1   O10   S    
C34   C51   A    
C28   C29   A    
C24   C26   A    
C47   H20   S    
C5    C11   A    
C11   H7    S    
C11   C14   A    
C4    C41   A    
C19   H10   S    
C49   H25   S    
C17   O9    A    
Cu1   N3    S    
C32   N2    A    
C3    C38   A    
C31   N1    A    
C22   C25   A    
Cu1   O8    S    
C42   H30   S    
C12   O6    A    
C2    C34   A    
C40   C42   A    
C27   C30   A    
C41   C43   A    
C42   C44   A    
Cu2   O5    S    
C48   H16   S    
C50   H22   S    
C41   H12   S    
C15   C54   A    
C48   H18   S    
C52   H32   S    
C29   H28   S    
C16   O8    A    
C45   C52   A    
C14   H5    S    
C8    C18   A    
C21   H13   S    
C51   C53   A    
C49   H26   S    
C17   O10   A    
C32   C51   A    
C5    C9    A    
C33   N1    A    
C16   O11   A    
C47   C48   S    
C4    C39   A    
C27   N4    A    
C30   H29   S    
C12   O5    A    
C37   H3    S    
C4    C17   S    
Cu2   O9    S    
C1    O1    A    
C20   C22   A    
C3    C40   A    
C7    C19   A    
C13   C15   A    
C9    C34   A    
C36   C44   A    
C33   O4    S    
C23   C54   A    
C39   C47   S    
C33   C54   A    
C7    C9    A    
C21   C25   A    
C40   H1    S    
C48   H17   S    
Cu2   O11   S    
C30   N3    A    
C36   H4    S    
C50   H24   S    
C6    C10   A    
C5    C8    A    
C53   H2    S    
C6    C7    A    
C46   N2    S    
C35   O3    S    
C10   C23   A    
C27   H23   S    
C12   C25   S    
C43   H31   S    
C31   O12   S    
C36   C38   A    
C47   H19   S    
C37   C39   A    
C6    C13   A    
C19   C53   A    
C1    C26   S    
C13   H8    S    
C20   C26   A    
Cu1   O6    S    
C15   H6    S    
C28   N3    A    
C2    C14   A    
C43   C46   A    
C44   N1    S    
C35   N2    A    
Cu2   N4    S    
C8    C10   A    
C49   C50   S    
C31   C45   A    
C21   C24   A    
Cu2   O7    S    
C37   C46   A    
C22   H14   S    
C29   N4    A    
C3    C16   S    
C24   H15   S    
C28   H27   S    
