data_mof_unit_1895.cif
_audit_creation_date              2012-12-10T16:53:54-0500
_audit_creation_method            fapswitch 2.2
_symmetry_space_group_name_H-M    P1
_symmetry_Int_Tables_number       1
_space_group_crystal_system       triclinic
_cell_length_a                    7.777819
_cell_length_b                    8.554648
_cell_length_c                    10.609511
_cell_angle_alpha                 91.512385
_cell_angle_beta                  85.052855
_cell_angle_gamma                 93.677092
_cell_volume                      701.687621201

loop_
_atom_site_label
_atom_site_type_symbol
_atom_type_description
_atom_site_fract_x
_atom_site_fract_y
_atom_site_fract_z
_atom_type_partial_charge
C1    C     C_R   0.545401 0.794332 0.488520 0.841584
C2    C     C_3   0.497344 0.500154 0.121693 0.141661
C3    C     C_3   0.564521 0.344264 0.065068 -0.349591
C4    C     C_3   0.616003 0.639939 0.068384 -0.404859
C5    C     C_2   0.565949 0.953573 0.454082 -0.225140
C6    C     C_2   0.431982 0.041382 0.490573 -0.386874
C7    C     C_R   0.500420 0.500257 0.742314 0.814739
C8    C     C_R   0.454525 0.205521 0.494638 0.981836
C9    C     C_R   0.498860 0.499810 0.257855 0.835134
C10   C     C_3   0.312242 0.516969 0.941023 -0.402606
C11   C     C_3   0.311130 0.516529 0.084048 -0.375034
C12   C     C_3   0.565399 0.344251 0.920426 -0.433368
C13   C     C_3   0.617704 0.639536 0.923641 -0.402383
C14   C     C_3   0.499368 0.500237 0.878928 0.194287
H1    H     H_    0.223951 0.418449 0.909817 0.181215
H2    H     H_    0.750464 0.631775 0.095031 0.186908
H3    H     H_    0.699108 0.329059 0.877307 0.183994
H4    H     H_    0.698099 0.329492 0.091072 0.220070
H5    H     H_    0.311211 0.993332 0.537979 0.161662
H6    H     H_    0.986090 0.618416 0.595541 0.122808
H7    H     H_    0.261285 0.628351 0.912392 0.176724
H8    H     H_    0.259537 0.627488 0.124210 0.183097
H9    H     H_    0.223155 0.417461 0.121602 0.216077
H10   H     H_    0.481419 0.243400 0.888023 0.158526
H11   H     H_    0.480761 0.243020 0.103340 0.182435
H12   H     H_    0.752662 0.630202 0.880982 0.174325
H13   H     H_    0.571992 0.752154 0.893093 0.157200
H14   H     H_    0.568889 0.752505 0.108609 0.168967
N1    N     N_2   0.950330 0.457950 0.465890 0.202954
N2    N     N_2   0.049670 0.542050 0.534110 -0.098933
O1    O     O_R   0.389250 0.738570 0.508370 -0.615804
O2    O     O_R   0.678390 0.711620 0.486510 -0.663573
O3    O     O_R   0.355430 0.513500 0.696140 -0.639980
O4    O     O_R   0.644580 0.486550 0.674270 -0.652527
O5    O     O_R   0.321610 0.288380 0.513490 -0.575785
O6    O     O_R   0.610750 0.261430 0.491630 -0.568831
O7    O     O_R   0.355420 0.513450 0.325730 -0.578653
O8    O     O_R   0.644570 0.486500 0.303860 -0.595761
Zn1   Zn    Zn3+2 0.306940 0.517990 0.514600 1.007510
Zn2   Zn    Zn3+2 0.693060 0.482010 0.485400 1.025961
C15   C     C_2   0.721660 0.003958 0.368999 0.483579
H15   H     H_    0.842370 0.948595 0.374762 0.070411
O9    O     O_2   0.713496 0.100152 0.287011 -0.564287
F1    F     F_    0.030554 0.357790 0.385875 -0.539677

loop_
_geom_bond_atom_site_label_1
_geom_bond_atom_site_label_2
_ccdc_geom_bond_type
C12   H3    S    
C4    H2    S    
O5    Zn1   S    
N1    N2    D    
C7    C14   S    
C7    O3    A    
C15   H15   S    
C12   H10   S    
C11   H8    S    
C2    C4    S    
C1    O1    A    
C9    O7    A    
C2    C3    S    
O7    Zn1   S    
H6    N2    S    
C13   C14   S    
O8    Zn2   S    
C6    H5    S    
C15   O9    D    
O3    Zn1   S    
O4    Zn2   S    
C2    C11   S    
N1    Zn2   S    
C11   H9    S    
C9    O8    A    
C4    H14   S    
O1    Zn1   S    
N2    Zn1   S    
C10   H1    S    
O2    Zn2   S    
N1    F1    S    
C8    O6    A    
C5    C6    D    
C7    O4    A    
C1    C5    S    
C13   H12   S    
C10   C11   S    
O6    Zn2   S    
C3    H11   S    
C3    H4    S    
C10   C14   S    
C4    C13   S    
C5    C15   S    
C13   H13   S    
C6    C8    S    
C3    C12   S    
C2    C9    S    
C10   H7    S    
C1    O2    A    
C12   C14   S    
C8    O5    A    
