data_mof_unit_1946.cif
_audit_creation_date              2012-10-26T20:03:00-0400
_audit_creation_method            fapswitch 2.2
_symmetry_space_group_name_H-M    P1
_symmetry_Int_Tables_number       1
_space_group_crystal_system       triclinic
_cell_length_a                    10.717275
_cell_length_b                    12.320457
_cell_length_c                    13.192586
_cell_angle_alpha                 116.687025
_cell_angle_beta                  77.466289
_cell_angle_gamma                 101.32729
_cell_volume                      1509.50443656

loop_
_atom_site_label
_atom_site_type_symbol
_atom_type_description
_atom_site_fract_x
_atom_site_fract_y
_atom_site_fract_z
_atom_type_partial_charge
C1    C     C_R   0.511786 0.854873 0.286569 0.527149
C2    C     C_R   0.500959 0.566462 0.009375 0.031770
C3    C     C_R   0.461383 0.650623 0.123310 0.023536
C4    C     C_R   0.739906 0.999879 0.499961 0.542943
C5    C     C_R   0.457621 0.440115 0.975912 0.028745
C6    C     C_R   0.366225 0.401563 0.052201 0.051643
C7    C     C_R   0.317227 0.487740 0.158748 -0.141881
C8    C     C_R   0.362661 0.610551 0.193285 -0.125834
C9    C     C_R   0.503081 0.350498 0.868939 -0.138811
C10   C     C_R   0.364947 0.190656 0.910948 -0.140478
C11   C     C_R   0.520711 0.773072 0.163521 -0.004715
C12   C     C_3   0.122328 0.001432 0.500760 0.042269
C13   C     C_R   0.706470 0.347492 0.329532 -0.150864
C14   C     C_R   0.325132 0.759208 0.645049 0.046937
C15   C     C_R   0.287181 0.662452 0.676451 -0.162858
C16   C     C_R   0.480474 0.145094 0.713374 0.535771
C17   C     C_R   0.352864 0.559113 0.621755 -0.138128
C18   C     C_R   0.458124 0.551283 0.534400 -0.005868
C19   C     C_R   0.493593 0.653031 0.505248 0.181447
C20   C     C_R   0.529582 0.447036 0.475173 -0.013723
C21   C     C_R   0.634485 0.447238 0.388719 0.038394
C22   C     C_R   0.667349 0.546987 0.361740 -0.178931
C23   C     C_3   0.046076 0.019391 0.620381 -0.214800
C24   C     C_R   0.598665 0.647357 0.418646 -0.102037
C25   C     C_R   0.502248 0.341789 0.497508 0.038328
C26   C     C_R   0.674824 0.247355 0.355831 0.038389
C27   C     C_R   0.260217 0.000435 0.500050 0.540277
C28   C     C_3   0.960291 0.104837 0.471214 -0.224479
C29   C     C_3   0.102577 0.107331 0.474585 -0.232549
C30   C     C_3   0.900788 0.019534 0.622271 -0.106518
C31   C     C_3   0.924312 0.878013 0.410616 -0.254399
C32   C     C_3   0.877975 0.001714 0.502143 0.067456
C33   C     C_3   0.849813 0.134893 0.722948 -0.418407
C34   C     C_3   0.068849 0.878603 0.408698 -0.240647
C35   C     C_R   0.322385 0.277131 0.019849 -0.134092
C36   C     C_R   0.453142 0.227989 0.834439 -0.006686
C37   C     C_R   0.601060 0.814661 0.085904 -0.136905
C38   C     C_R   0.628156 0.735366 0.971229 -0.143678
C39   C     C_R   0.581113 0.612308 0.933217 -0.122756
Cu1   Cu    Cu3+1 0.529690 0.098270 0.475420 0.908694
Cu2   Cu    Cu3+1 0.470310 0.901730 0.524580 0.898945
H1    H     H_    0.928160 0.195833 0.530857 0.131523
H2    H     H_    0.689454 0.768714 0.911905 0.113524
H3    H     H_    0.948504 0.088767 0.383531 0.114240
H4    H     H_    0.729999 0.170052 0.310518 0.113152
H5    H     H_    0.747579 0.547756 0.295758 0.103999
H6    H     H_    0.786822 0.347073 0.263374 0.086330
H7    H     H_    0.424183 0.333562 0.561483 0.116831
H8    H     H_    0.273631 0.839043 0.688023 0.118952
H9    H     H_    0.319364 0.487057 0.649580 0.095184
H10   H     H_    0.206560 0.667579 0.743466 0.097465
H11   H     H_    0.632064 0.718772 0.391665 0.181615
H12   H     H_    0.082592 0.800740 0.424802 0.125824
H13   H     H_    0.159219 0.099011 0.390469 0.130098
H14   H     H_    0.136920 0.196977 0.541537 0.119292
H15   H     H_    0.086537 0.106055 0.687005 0.114380
H16   H     H_    0.869167 0.801266 0.429848 0.117007
H17   H     H_    0.122115 0.864923 0.322179 0.110258
H18   H     H_    0.252329 0.247236 0.077569 0.100599
H19   H     H_    0.316641 0.673598 0.274424 0.144754
H20   H     H_    0.902274 0.219480 0.717121 0.132123
H21   H     H_    0.745594 0.134236 0.725433 0.151576
H22   H     H_    0.862741 0.137347 0.805285 0.122370
H23   H     H_    0.847531 0.940072 0.638238 0.142330
H24   H     H_    0.907148 0.861252 0.324239 0.105245
H25   H     H_    0.058268 0.944235 0.641114 0.109067
H26   H     H_    0.324937 0.095856 0.884988 0.117958
H27   H     H_    0.243386 0.460137 0.215851 0.102971
H28   H     H_    0.576525 0.373341 0.809410 0.115463
H29   H     H_    0.645899 0.908272 0.114381 0.123782
H30   H     H_    0.606977 0.556374 0.843162 0.103277
N1    N     N_R   0.574690 0.246280 0.438200 -0.232023
N2    N     N_R   0.426100 0.754320 0.561190 -0.234274
O1    O     O_R   0.537340 0.972510 0.318130 -0.501171
O2    O     O_R   0.487200 0.806530 0.359650 -0.524866
O3    O     O_R   0.707380 0.082980 0.479220 -0.509039
O4    O     O_R   0.657240 0.917000 0.520740 -0.524683
O5    O     O_R   0.512800 0.193470 0.640350 -0.507450
O6    O     O_R   0.462660 0.027490 0.681870 -0.503933
O7    O     O_R   0.342760 0.083000 0.479260 -0.508631
O8    O     O_R   0.292620 0.917020 0.520780 -0.517769

loop_
_geom_bond_atom_site_label_1
_geom_bond_atom_site_label_2
_ccdc_geom_bond_type
C24   H11   S    
C30   H23   S    
C12   C29   S    
C26   N1    A    
C1    C11   S    
C7    C8    A    
C10   H26   S    
C12   C23   S    
C1    O1    A    
C23   H25   S    
C28   C29   S    
C9    H28   S    
Cu2   O4    S    
C5    C6    A    
C14   H8    S    
C20   C25   A    
C6    C35   A    
C35   H18   S    
C18   C19   A    
C11   C37   A    
C26   H4    S    
C7    H27   S    
C2    C39   A    
C33   H21   S    
C9    C36   A    
Cu1   O7    S    
C10   C35   A    
C15   H10   S    
C18   C20   A    
C21   C22   A    
C12   C27   S    
C1    O2    A    
C23   C30   S    
C27   O8    A    
C27   O7    A    
C13   H6    S    
C31   H24   S    
C29   H14   S    
C28   H3    S    
Cu1   O3    S    
C14   N2    A    
C5    C9    A    
C37   C38   A    
Cu2   O2    S    
C19   N2    A    
C31   C32   S    
C28   C32   S    
C33   H22   S    
Cu2   O8    S    
C17   C18   A    
C31   C34   S    
C13   C21   A    
C25   N1    A    
C25   H7    S    
C23   H15   S    
C4    C32   S    
Cu1   O5    S    
Cu1   Cu2   S    
C22   H5    S    
C3    C8    A    
C22   C24   A    
C13   C26   A    
C2    C5    A    
C12   C34   S    
C15   C17   A    
Cu1   N1    S    
C30   C33   S    
C17   H9    S    
Cu2   O6    S    
C6    C7    A    
C16   O6    A    
C31   H16   S    
C19   C24   A    
C4    O4    A    
C16   C36   S    
C30   C32   S    
C38   C39   A    
C28   H1    S    
Cu1   O1    S    
C2    C3    A    
C16   O5    A    
C4    O3    A    
C3    C11   A    
Cu2   N2    S    
C38   H2    S    
C20   C21   A    
C34   H12   S    
C33   H20   S    
C29   H13   S    
C34   H17   S    
C39   H30   S    
C14   C15   A    
C10   C36   A    
C37   H29   S    
C8    H19   S    
