data_mof_unit_1788.cif
_audit_creation_date              2012-10-26T19:57:55-0400
_audit_creation_method            fapswitch 2.2
_symmetry_space_group_name_H-M    P1
_symmetry_Int_Tables_number       1
_space_group_crystal_system       triclinic
_cell_length_a                    7.498801
_cell_length_b                    8.677747
_cell_length_c                    12.998151
_cell_angle_alpha                 87.345787
_cell_angle_beta                  79.299977
_cell_angle_gamma                 103.204783
_cell_volume                      805.6559558

loop_
_atom_site_label
_atom_site_type_symbol
_atom_type_description
_atom_site_fract_x
_atom_site_fract_y
_atom_site_fract_z
_atom_type_partial_charge
C1    C     C_R   0.452441 0.199640 0.503358 0.545770
C2    C     C_R   0.704327 0.616603 0.124591 -0.098726
C3    C     C_R   0.591048 0.580467 0.859902 0.089552
C4    C     C_R   0.408951 0.419533 0.140098 0.089552
C5    C     C_R   0.578482 0.556111 0.968890 0.011694
C6    C     C_R   0.421517 0.443889 0.031110 0.011694
C7    C     C_2   0.426119 0.031331 0.505116 -0.143185
C8    C     C_2   0.573881 0.968669 0.494884 -0.143185
C9    C     C_R   0.547559 0.800360 0.496642 0.545770
C10   C     C_R   0.467624 0.498282 0.700722 0.545096
C11   C     C_R   0.532375 0.501718 0.299278 0.545096
C12   C     C_R   0.549106 0.510358 0.186248 -0.064439
C13   C     C_R   0.450894 0.489642 0.813752 -0.064439
C14   C     C_R   0.279779 0.360248 0.982793 0.420551
C15   C     C_R   0.720221 0.639752 0.017207 0.420551
C16   C     C_R   0.295673 0.383398 0.875409 -0.098726
Cu1   Cu    Cu3+1 0.686350 0.517570 0.488220 1.000787
Cu2   Cu    Cu3+1 0.313650 0.482430 0.511780 1.000787
F1    F     F_    0.124928 0.254823 0.037944 -0.577946
F2    F     F_    0.875071 0.745178 0.962056 -0.577946
H1    H     H_    0.812619 0.685522 0.160254 0.165184
H2    H     H_    0.935723 0.374462 0.677493 0.227254
H3    H     H_    0.072609 0.763966 0.408616 0.218833
H4    H     H_    0.064281 0.625534 0.322506 0.227253
H5    H     H_    0.187381 0.314478 0.839746 0.165184
H6    H     H_    0.284132 0.958731 0.514946 0.132752
H7    H     H_    0.715868 0.041269 0.485054 0.132750
H8    H     H_    0.311482 0.227174 0.249234 0.233764
H9    H     H_    0.165699 0.353147 0.249465 0.265712
H10   H     H_    0.688518 0.772826 0.750765 0.233764
H11   H     H_    0.834301 0.646853 0.750535 0.265713
H12   H     H_    0.927386 0.236033 0.591382 0.218832
N1    N     N_2   0.033570 0.455950 0.529530 -0.030894
N2    N     N_2   0.966430 0.544050 0.470470 -0.030894
N3    N     N_3   0.257922 0.299144 0.202302 -0.501289
N4    N     N_3   0.742078 0.700856 0.797698 -0.501289
N5    N     N_3   0.903733 0.348203 0.604432 -0.442261
N6    N     N_3   0.096266 0.651797 0.395568 -0.442261
O1    O     O_R   0.621060 0.286250 0.492350 -0.476543
O2    O     O_R   0.378940 0.713750 0.507650 -0.476542
O3    O     O_R   0.306310 0.256580 0.512240 -0.517664
O4    O     O_R   0.693690 0.743420 0.487760 -0.517664
O5    O     O_R   0.631800 0.512400 0.642670 -0.492637
O6    O     O_R   0.368200 0.487600 0.357330 -0.492639
O7    O     O_R   0.317060 0.482730 0.662570 -0.511364
O8    O     O_R   0.682940 0.517270 0.337430 -0.511363

loop_
_geom_bond_atom_site_label_1
_geom_bond_atom_site_label_2
_ccdc_geom_bond_type
H4    N6    S    
C11   C12   S    
Cu1   O5    S    
Cu2   O6    S    
C4    C12   A    
H3    N6    S    
H9    N3    S    
C3    C13   A    
H10   N4    S    
C2    C12   A    
C2    H1    S    
N1    N2    D    
C4    N3    S    
C7    C8    D    
C1    C7    S    
H12   N5    S    
C2    C15   A    
C9    O4    A    
C15   F2    S    
C7    H6    S    
C3    N4    S    
C10   O7    A    
C1    O3    A    
Cu1   Cu2   S    
Cu1   O4    S    
C5    C6    A    
Cu2   N1    S    
C14   C16   A    
C5    C15   A    
C6    C14   A    
Cu1   N2    S    
C1    O1    A    
Cu2   O7    S    
C11   O6    A    
Cu1   O8    S    
C4    C6    A    
Cu1   O1    S    
C13   C16   A    
C16   H5    S    
C8    H7    S    
Cu2   O2    S    
H11   N4    S    
C11   O8    A    
C10   O5    A    
N2    N6    S    
H2    N5    S    
C14   F1    S    
C9    O2    A    
N1    N5    S    
Cu2   O3    S    
H8    N3    S    
C8    C9    S    
C3    C5    A    
C10   C13   S    
