data_mof_unit_1967.cif
_audit_creation_date              2012-12-10T20:27:57-0500
_audit_creation_method            fapswitch 2.2
_symmetry_space_group_name_H-M    P1
_symmetry_Int_Tables_number       1
_space_group_crystal_system       triclinic
_cell_length_a                    12.843776
_cell_length_b                    10.672822
_cell_length_c                    9.871326
_cell_angle_alpha                 90.005547
_cell_angle_beta                  97.592476
_cell_angle_gamma                 89.904258
_cell_volume                      1341.28967681

loop_
_atom_site_label
_atom_site_type_symbol
_atom_type_description
_atom_site_fract_x
_atom_site_fract_y
_atom_site_fract_z
_atom_type_partial_charge
C1    C     C_R   0.503235 0.259941 0.500587 0.883245
C2    C     C_R   0.540861 0.935051 0.386513 -0.217671
C3    C     C_R   0.521397 0.871276 0.504863 -0.144069
C4    C     C_R   0.298228 0.499964 0.472830 0.878697
C5    C     C_R   0.522708 0.936061 0.627769 0.158928
C6    C     C_3   0.449548 0.929507 0.734074 -0.121174
C7    C     C_3   0.447672 0.071845 0.731808 -0.487438
C8    C     C_R   0.407735 0.496280 0.055323 0.218863
C9    C     C_R   0.590742 0.514314 0.087274 -0.138544
C10   C     C_R   0.590715 0.514168 0.943582 -0.153435
C11   C     C_R   0.407779 0.496125 0.912863 0.207191
C12   C     C_R   0.028934 0.536917 0.554969 0.167553
C13   C     C_3   0.327483 0.394895 0.893121 -0.494312
C14   C     C_3   0.327114 0.395302 0.046784 -0.520965
C15   C     C_R   0.503641 0.740021 0.500769 0.882097
C16   C     C_R   0.701912 0.501988 0.527430 0.904412
C17   C     C_R   0.814421 0.508707 0.545053 -0.052804
C18   C     C_R   0.186093 0.497436 0.456161 -0.042378
C19   C     C_R   0.022293 0.420571 0.340648 -0.211870
C20   C     C_R   0.129962 0.433642 0.346298 -0.214996
C21   C     C_R   0.135767 0.550818 0.558672 -0.284357
C22   C     C_R   0.971861 0.470805 0.445481 0.192017
C23   C     C_R   0.865209 0.456155 0.442296 -0.337564
C24   C     C_R   0.870691 0.574109 0.655174 0.097259
C25   C     C_R   0.978738 0.587189 0.659700 -0.277668
C26   C     C_R   0.521232 0.063998 0.626740 0.111693
C27   C     C_R   0.520412 0.128534 0.504117 -0.112908
C28   C     C_R   0.540496 0.064583 0.386197 -0.228369
H1    H     H_    0.821206 0.405203 0.358338 0.158893
H2    H     H_    0.508823 0.783530 0.854214 0.215747
H3    H     H_    0.452000 0.895533 0.937493 0.183004
H4    H     H_    0.369730 0.111101 0.690080 0.175815
H5    H     H_    0.358745 0.306736 0.854066 0.211134
H6    H     H_    0.357558 0.307108 0.097545 0.214038
H7    H     H_    0.850975 0.595942 0.853375 0.174047
H8    H     H_    0.833389 0.727819 0.758242 0.184109
H9    H     H_    0.169656 0.389835 0.268636 0.148055
H10   H     H_    0.180248 0.601004 0.642839 0.145774
H11   H     H_    0.548667 0.886011 0.292268 0.175973
H12   H     H_    0.485111 0.116538 0.827832 0.215089
H13   H     H_    0.372683 0.884198 0.698749 0.147425
H14   H     H_    0.664428 0.524157 0.153103 0.158174
H15   H     H_    0.664112 0.523522 0.902346 0.168414
H16   H     H_    0.252251 0.428107 0.835608 0.204927
H17   H     H_    0.251738 0.429643 0.076470 0.196745
H18   H     H_    0.979001 0.369638 0.256397 0.137559
H19   H     H_    0.022791 0.638000 0.743548 0.138062
H20   H     H_    0.548272 0.113440 0.291865 0.173735
N1    N     N_R   0.499290 0.499140 0.142710 -0.106696
N2    N     N_R   0.499290 0.499180 0.857070 -0.111913
N3    N     N_3   0.502038 0.880592 0.863638 -0.434655
N4    N     N_3   0.818200 0.631607 0.758567 -0.449510
O1    O     O_R   0.500010 0.316790 0.614690 -0.612946
O2    O     O_R   0.500000 0.316760 0.385350 -0.624228
O3    O     O_R   0.346360 0.499990 0.595720 -0.624626
O4    O     O_R   0.346350 0.499960 0.366370 -0.619167
O5    O     O_R   0.500000 0.683240 0.614650 -0.626285
O6    O     O_R   0.499990 0.683210 0.385310 -0.618253
O7    O     O_R   0.653650 0.500040 0.633630 -0.602766
O8    O     O_R   0.653640 0.500010 0.404280 -0.638431
Zn1   Zn    Zn3+2 0.500010 0.500020 0.653130 0.942029
Zn2   Zn    Zn3+2 0.499990 0.499980 0.346870 0.939299

loop_
_geom_bond_atom_site_label_1
_geom_bond_atom_site_label_2
_ccdc_geom_bond_type
C14   H6    S    
C2    C28   A    
C7    H12   S    
O5    Zn1   S    
C6    C7    S    
C7    H4    S    
C6    N3    S    
C18   C21   A    
C11   C13   S    
C9    C10   A    
C25   H19   S    
C19   C20   A    
H8    N4    S    
C12   C25   A    
C1    O2    A    
C4    C18   S    
C2    C3    A    
C26   C27   A    
C19   H18   S    
C3    C15   S    
C11   N2    A    
C13   C14   S    
C4    O4    A    
C13   H5    S    
C20   H9    S    
C15   O5    A    
C9    H14   S    
C17   C23   A    
C7    C26   S    
O6    Zn2   S    
C8    C11   A    
C23   H1    S    
H2    N3    S    
C14   H17   S    
C18   C20   A    
C24   N4    S    
C4    O3    A    
C5    C6    S    
C15   O6    A    
O4    Zn2   S    
O7    Zn1   S    
C17   C24   A    
O3    Zn1   S    
C5    C26   A    
C12   C21   A    
C12   C22   A    
C27   C28   A    
C19   C22   A    
C9    N1    A    
C24   C25   A    
O8    Zn2   S    
C16   O8    A    
H7    N4    S    
C1    C27   S    
N2    Zn1   S    
C1    O1    A    
C22   C23   A    
C28   H20   S    
C8    C14   S    
N1    Zn2   S    
O2    Zn2   S    
C8    N1    A    
C10   H15   S    
O1    Zn1   S    
C2    H11   S    
C16   O7    A    
C13   H16   S    
C21   H10   S    
H3    N3    S    
C16   C17   S    
C3    C5    A    
C6    H13   S    
C10   N2    A    
