data_mof_unit_477.cif
_audit_creation_date              2013-03-05T15:40:48-0500
_audit_creation_method            fapswitch 2.2
_symmetry_space_group_name_H-M    P1
_symmetry_Int_Tables_number       1
_space_group_crystal_system       triclinic
_cell_length_a                    7.773608
_cell_length_b                    8.553119
_cell_length_c                    14.870946
_cell_angle_alpha                 91.02545
_cell_angle_beta                  85.974678
_cell_angle_gamma                 93.631781
_cell_volume                      984.238577939

loop_
_atom_site_label
_atom_site_type_symbol
_atom_site_description
_atom_site_fract_x
_atom_site_fract_y
_atom_site_fract_z
_atom_type_partial_charge
O1    O     O_R   0.389250 0.738570 0.505970 -0.610513
O2    O     O_R   0.610750 0.261430 0.494030 -0.610513
O3    O     O_R   0.678390 0.711620 0.490370 -0.629782
O4    O     O_R   0.321610 0.288380 0.509630 -0.629782
C1    C     C_R   0.545736 0.794679 0.497655 0.960371
C2    C     C_R   0.454264 0.205321 0.502345 0.960371
O5    O     O_R   0.355420 0.513510 0.639950 -0.601133
O6    O     O_R   0.644580 0.486490 0.360050 -0.601132
O7    O     O_R   0.644560 0.486560 0.624350 -0.619070
O8    O     O_R   0.355440 0.513440 0.375650 -0.619070
C3    C     C_R   0.502305 0.499689 0.672708 0.874288
C4    C     C_R   0.497695 0.500311 0.327292 0.874288
Zn1   Zn    Zn3+2 0.306940 0.517990 0.510420 0.980345
Zn2   Zn    Zn3+2 0.693060 0.482010 0.489580 0.980345
C5    C     C_R   0.419511 0.373002 0.188756 -0.151259
C6    C     C_R   0.580489 0.626998 0.811244 -0.151259
C7    C     C_R   0.492953 0.502297 0.232287 -0.073200
C8    C     C_R   0.507047 0.497703 0.767713 -0.073199
C9    C     C_R   0.567351 0.631412 0.186154 -0.142022
C10   C     C_R   0.432649 0.368587 0.813846 -0.142023
C11   C     C_R   0.569823 0.633896 0.092707 0.022849
C12   C     C_R   0.430177 0.366104 0.907293 0.022849
C13   C     C_R   0.497934 0.500722 0.046868 -0.014232
C14   C     C_R   0.502066 0.499278 0.953132 -0.014231
C15   C     C_R   0.422291 0.368841 0.095220 0.027171
C16   C     C_R   0.577709 0.631158 0.904780 0.027171
C17   C     C_R   0.643136 0.765420 0.044685 0.256859
C18   C     C_R   0.356864 0.234580 0.955315 0.256859
C19   C     C_R   0.647158 0.764017 0.950457 0.255247
C20   C     C_R   0.352842 0.235983 0.049542 0.255247
H1    H     H_    0.364393 0.275870 0.229164 0.174192
H2    H     H_    0.635607 0.724130 0.770836 0.174192
H3    H     H_    0.622393 0.728425 0.224652 0.177161
H4    H     H_    0.377607 0.271575 0.775348 0.177161
C21   C     C_2   0.569851 0.958204 0.496281 -0.348269
C22   C     C_2   0.430149 0.041796 0.503719 -0.348269
H5    H     H_    0.701809 0.009228 0.489160 0.186968
H6    H     H_    0.298191 0.990771 0.510840 0.186968
N1    N     N_2   0.950330 0.457950 0.475660 -0.166064
N2    N     N_2   0.049670 0.542050 0.524340 -0.166064
H7    H     H_    0.013637 0.382560 0.432023 0.202152
H8    H     H_    0.986363 0.617440 0.567977 0.202151
Br1   Br    Br    0.737907 0.949115 0.106535 -0.376923
Br2   Br    Br    0.262093 0.050885 0.893465 -0.376923
Br3   Br    Br    0.747524 0.945732 0.885423 -0.385138
Br4   Br    Br    0.252476 0.054268 0.114577 -0.385138

loop_
_geom_bond_atom_site_label_1
_geom_bond_atom_site_label_2
_geom_bond_distance
_ccdc_geom_bond_type
C4    C7    1.416314 S    
O7    Zn2   2.013278 S    
C3    C8    1.416314 S    
C5    H1    1.082356 S    
C6    H2    1.082356 S    
C20   Br4   1.937502 S    
C21   C22   1.334716 D    
O6    C4    1.285416 A    
C13   C14   1.391898 A    
C10   H4    1.082469 S    
C22   H6    1.087938 S    
C11   C17   1.410909 A    
N1    H7    1.029310 S    
C12   C18   1.410910 A    
O5    C3    1.285415 A    
O7    C3    1.286009 A    
C14   C16   1.421547 A    
O2    C2    1.277666 A    
O3    Zn2   1.974166 S    
O8    C4    1.286009 A    
O1    C1    1.277666 A    
C1    C21   1.399660 S    
C18   C20   1.399263 A    
C9    C11   1.388947 A    
C2    C22   1.399660 S    
C8    C10   1.383912 A    
C11   C13   1.421082 A    
C6    C16   1.389468 A    
O2    Zn2   1.954178 S    
C12   C14   1.421082 A    
C5    C15   1.389468 A    
O4    C2    1.286141 A    
O1    Zn1   1.954177 S    
C17   Br1   1.937537 S    
O5    Zn1   1.990040 S    
C13   C15   1.421547 A    
C17   C19   1.399263 A    
C21   H5    1.087939 S    
C16   C19   1.410779 A    
C6    C8    1.383559 A    
C9    H3    1.082470 S    
C19   Br3   1.937503 S    
N1    N2    1.275651 D    
C5    C7    1.383559 A    
C15   C20   1.410779 A    
Zn1   N2    2.019247 S    
O6    Zn2   1.990041 S    
C7    C9    1.383911 A    
Zn2   N1    2.019247 S    
C18   Br2   1.937535 S    
O4    Zn1   1.974167 S    
C10   C12   1.388947 A    
N2    H8    1.029310 S    
O3    C1    1.286142 A    
O8    Zn1   2.013280 S    
