data_mof_unit_2165.cif
_audit_creation_date              2013-03-05T15:45:18-0500
_audit_creation_method            fapswitch 2.2
_symmetry_space_group_name_H-M    P1
_symmetry_Int_Tables_number       1
_space_group_crystal_system       triclinic
_cell_length_a                    23.485182
_cell_length_b                    10.590395
_cell_length_c                    10.071958
_cell_angle_alpha                 90.990717
_cell_angle_beta                  90.062464
_cell_angle_gamma                 90.583429
_cell_volume                      2504.56439796

loop_
_atom_site_label
_atom_site_type_symbol
_atom_site_description
_atom_site_fract_x
_atom_site_fract_y
_atom_site_fract_z
_atom_type_partial_charge
O1    O     O_R   0.499990 0.319060 0.613040 -0.601799
O2    O     O_R   0.500010 0.319100 0.386900 -0.620413
C1    C     C_R   0.501474 0.262254 0.498628 0.821482
O3    O     O_R   0.416150 0.499940 0.613100 -0.619645
O4    O     O_R   0.416160 0.499980 0.386960 -0.521520
C2    C     C_R   0.389571 0.497292 0.500023 0.876133
Zn1   Zn    Zn3+2 0.499990 0.499970 0.650990 1.071520
Zn2   Zn    Zn3+2 0.500010 0.500030 0.349010 1.147333
O5    O     O_R   0.499990 0.680900 0.613100 -0.557696
O6    O     O_R   0.500010 0.680940 0.386960 -0.560617
O7    O     O_R   0.583840 0.500020 0.613040 -0.593621
O8    O     O_R   0.583850 0.500060 0.386900 -0.553094
C3    C     C_R   0.491404 0.735657 0.500625 0.903370
C4    C     C_R   0.610641 0.497416 0.500096 0.969092
C5    C     C_R   0.881484 0.585704 0.549275 0.570267
N1    N     N_R   0.852440 0.475585 0.526610 -0.360387
C6    C     C_R   0.879455 0.364539 0.502269 0.521053
C7    C     C_R   0.939150 0.362580 0.487705 -0.101444
C8    C     C_R   0.970222 0.473504 0.524151 -0.037548
C9    C     C_R   0.941094 0.585348 0.561713 -0.179504
C10   C     C_R   0.968314 0.253629 0.441224 -0.156016
C11   C     C_R   0.028171 0.254772 0.434428 0.412892
C12   C     C_R   0.059399 0.364808 0.473717 -0.109955
C13   C     C_R   0.030243 0.472818 0.522926 -0.100057
C14   C     C_R   0.061167 0.580681 0.569984 -0.177556
C15   C     C_R   0.031695 0.690828 0.611280 0.377765
C16   C     C_R   0.972112 0.692573 0.608431 0.370245
C17   C     C_R   0.119155 0.372642 0.463567 0.581350
N2    N     N_R   0.147865 0.473479 0.517143 -0.364851
C18   C     C_R   0.120874 0.573440 0.574448 0.645651
O9    O     O_2   0.852138 0.694310 0.557584 -0.443832
O10   O     O_2   0.848134 0.257162 0.494328 -0.523680
O11   O     O_2   0.149158 0.281990 0.400443 -0.427702
O12   O     O_2   0.152545 0.664219 0.635288 -0.423338
C19   C     C_R   0.235779 0.555415 0.421543 0.420621
C20   C     C_R   0.294973 0.562128 0.417099 0.342944
C21   C     C_R   0.327421 0.485700 0.500983 -0.272747
C22   C     C_R   0.300342 0.401091 0.589407 -0.147324
C23   C     C_R   0.240278 0.396739 0.595135 -0.073857
C24   C     C_R   0.208725 0.475573 0.511875 0.026737
C25   C     C_R   0.764442 0.451399 0.401475 -0.086653
H1    H     H_    0.789617 0.426479 0.314984 0.185542
C26   C     C_R   0.705537 0.454524 0.391329 0.382004
C27   C     C_R   0.673025 0.490712 0.503315 -0.178662
C28   C     C_R   0.700665 0.516166 0.625055 -0.167649
H2    H     H_    0.676071 0.541368 0.712308 0.238962
C29   C     C_R   0.759676 0.507105 0.636829 -0.002963
C30   C     C_R   0.791624 0.477621 0.522485 0.134244
C31   C     C_2   0.464940 0.934877 0.395686 -0.065878
C32   C     C_2   0.468165 0.861760 0.504100 0.269886
C33   C     C_2   0.463993 0.069919 0.416331 -0.301566
C34   C     C_2   0.503247 0.128624 0.492329 0.310954
H3    H     H_    0.432093 0.123211 0.363086 0.172035
C35   C     C_2   0.524398 0.586821 0.927526 -0.063797
N3    N     N_2   0.500610 0.501330 0.852150 -0.161963
H4    H     H_    0.494883 0.413672 0.892914 0.225657
C36   C     C_2   0.534503 0.567239 0.072964 0.026297
N4    N     N_2   0.500630 0.501360 0.147810 0.062528
C37   C     C_2   0.936646 0.141549 0.387779 0.663582
H5    H     H_    0.904090 0.153484 0.312596 0.076778
O13   O     O_2   0.945616 0.036080 0.429616 -0.425766
Cl1   Cl    Cl    0.675701 0.404016 0.238583 -0.555275
C38   C     C_2   0.787395 0.525406 0.768538 0.553461
H6    H     H_    0.832494 0.507927 0.780818 0.062476
O14   O     O_2   0.760075 0.559348 0.865671 -0.522512
C39   C     C_2   0.468004 0.891655 0.254844 0.519653
H7    H     H_    0.491286 0.948187 0.183803 0.079094
O15   O     O_2   0.441266 0.799222 0.214784 -0.459552
Cl2   Cl    Cl    0.443717 0.918017 0.661394 -0.491631
Cl3   Cl    Cl    0.562948 0.055260 0.564476 -0.502899
C40   C     C_2   0.546203 0.705343 0.870883 0.528892
H8    H     H_    0.531187 0.795142 0.909861 0.098726
O16   O     O_2   0.584270 0.703866 0.788631 -0.517763
C41   C     C_2   0.587060 0.626009 0.127829 0.449894
H9    H     H_    0.626709 0.615590 0.073689 0.122554
O17   O     O_2   0.586054 0.695183 0.225606 -0.517284
Cl4   Cl    Cl    0.062348 0.114999 0.376424 -0.349124
Cl5   Cl    Cl    0.431591 0.470567 0.092575 -0.386288
Cl6   Cl    Cl    0.067450 0.833182 0.659466 -0.300783
Cl7   Cl    Cl    0.937991 0.828412 0.675605 -0.347214
Cl8   Cl    Cl    0.194573 0.646963 0.312811 -0.380976
Cl9   Cl    Cl    0.327570 0.673165 0.311409 -0.363114
C42   C     C_2   0.335313 0.318458 0.674658 0.648263
H10   H     H_    0.372288 0.271317 0.633377 0.037179
O18   O     O_2   0.324745 0.307207 0.792560 -0.462947
C43   C     C_2   0.208896 0.309365 0.684034 0.637251
H11   H     H_    0.168922 0.338372 0.728454 0.046262
O19   O     O_2   0.225564 0.202336 0.702890 -0.450165

loop_
_geom_bond_atom_site_label_1
_geom_bond_atom_site_label_2
_geom_bond_distance
_ccdc_geom_bond_type
C39   O15   1.220090 D    
N3    H4    1.029182 S    
C38   O14   1.221428 D    
C22   C42   1.488871 S    
C7    C10   1.420468 A    
C25   H1    1.083701 S    
C19   C20   1.392100 A    
Zn1   N3    2.025914 S    
N1    C30   1.429234 S    
C19   Cl8   1.768984 S    
C28   H2    1.083183 S    
Zn1   O7    2.006393 S    
C15   C16   1.399888 A    
N2    C18   1.359774 A    
C41   O17   1.217592 D    
C42   H10   1.085635 S    
C17   N2    1.360465 A    
C32   Cl2   1.780686 S    
C10   C37   1.486879 S    
C29   C38   1.485864 S    
O4    C2    1.299931 A    
O7    C4    1.300707 A    
C43   O19   1.220818 D    
C5    N1    1.360761 A    
C7    C8    1.419259 A    
O5    C3    1.298031 A    
Zn2   N4    2.026837 S    
C35   C40   1.474973 S    
C8    C9    1.419719 A    
C20   Cl9   1.768830 S    
N1    C6    1.360594 A    
C31   C33   1.442028 S    
C12   C13   1.421281 A    
C39   H7    1.085538 S    
C37   H5    1.085359 S    
C10   C11   1.407432 A    
C25   C26   1.387833 A    
O3    Zn1   2.005225 S    
C28   C29   1.395223 A    
C5    C9    1.405454 A    
C37   O13   1.220827 D    
C41   H9    1.085220 S    
C18   O12   1.347992 S    
C19   C24   1.401199 A    
C33   C34   1.338907 D    
C13   C14   1.421475 A    
O3    C2    1.297893 A    
C16   Cl7   1.777762 S    
C31   C39   1.485065 S    
C23   C24   1.408839 A    
C40   O16   1.219537 D    
C43   H11   1.085312 S    
C14   C15   1.418843 A    
C3    C32   1.447705 S    
O1    C1    1.291355 A    
C36   C41   1.478943 S    
C26   C27   1.412447 A    
C21   C22   1.420470 A    
C29   C30   1.407493 A    
Zn2   O8    2.005227 S    
C6    C7    1.410079 A    
C2    C21   1.463570 S    
C12   C17   1.408905 A    
C42   O18   1.221021 D    
O8    C4    1.302465 A    
C17   O11   1.347601 S    
C27   C28   1.407401 A    
C4    C27   1.467877 S    
C14   C18   1.405810 A    
Zn1   O5    1.960216 S    
C35   N3    1.293520 D    
C20   C21   1.408709 A    
O1    Zn1   1.947171 S    
O2    Zn2   1.960215 S    
C11   Cl4   1.781012 S    
O6    C3    1.291205 A    
O4    Zn2   2.006389 S    
C1    C34   1.416554 S    
C5    O9    1.348274 S    
C9    C16   1.416156 A    
C15   Cl6   1.778066 S    
O2    C1    1.285972 A    
C40   H8    1.084945 S    
C36   N4    1.302336 D    
C22   C23   1.412165 A    
N2    C24   1.430304 S    
C25   C30   1.397535 A    
C8    C13   1.409780 A    
C34   Cl3   1.771158 S    
N4    Cl5   1.739470 S    
C38   H6    1.084387 S    
Zn2   O6    1.947173 S    
C31   C32   1.352004 D    
C6    O10   1.349201 S    
C11   C12   1.420733 A    
C23   C43   1.489083 S    
C33   H3    1.088836 S    
C26   Cl1   1.762241 S    
C35   C36   1.501942 S    
