data_mof_unit_51.cif
_audit_creation_date              2012-12-11T14:39:24-0500
_audit_creation_method            fapswitch 2.2
_symmetry_space_group_name_H-M    P1
_symmetry_Int_Tables_number       1
_space_group_crystal_system       triclinic
_cell_length_a                    7.2129
_cell_length_b                    14.111647
_cell_length_c                    16.271385
_cell_angle_alpha                 89.997087
_cell_angle_beta                  97.808419
_cell_angle_gamma                 89.998702
_cell_volume                      1640.84109218

loop_
_atom_site_label
_atom_site_type_symbol
_atom_type_description
_atom_site_fract_x
_atom_site_fract_y
_atom_site_fract_z
_atom_type_partial_charge
O1    O     O_R   0.525340 0.338340 0.164530 -0.550164
O2    O     O_R   0.474660 0.661660 0.835470 -0.554757
O3    O     O_R   0.974660 0.838340 0.835470 -0.550149
O4    O     O_R   0.025340 0.161660 0.164530 -0.554767
O5    O     O_R   0.253520 0.352000 0.336710 -0.538685
O6    O     O_R   0.746480 0.648000 0.663290 -0.541454
O7    O     O_R   0.246480 0.852000 0.663290 -0.538672
O8    O     O_R   0.753520 0.148000 0.336710 -0.541426
O9    O     O_R   0.083330 0.168380 0.337300 -0.533603
O10   O     O_R   0.916670 0.831620 0.662700 -0.533229
O11   O     O_R   0.416670 0.668380 0.662700 -0.533582
O12   O     O_R   0.583330 0.331620 0.337300 -0.533217
C1    C     C_R   0.432675 0.368652 0.363672 0.695883
C2    C     C_R   0.567300 0.631376 0.636309 0.690235
C3    C     C_R   0.067323 0.868658 0.636341 0.695936
C4    C     C_R   0.932704 0.131383 0.363698 0.690212
O13   O     O_R   0.195840 0.349670 0.165140 -0.537627
O14   O     O_R   0.804160 0.650330 0.834860 -0.533821
O15   O     O_R   0.304160 0.849670 0.834860 -0.537634
O16   O     O_R   0.695840 0.150330 0.165140 -0.533793
C5    C     C_R   0.357056 0.373440 0.138514 0.652186
C6    C     C_R   0.642571 0.624508 0.859807 0.678455
C7    C     C_R   0.142935 0.873454 0.861476 0.651983
C8    C     C_R   0.857433 0.124516 0.140191 0.678493
O17   O     O_3   0.387830 0.193120 0.250910 -0.374439
O18   O     O_3   0.612170 0.806880 0.749090 -0.372398
O19   O     O_3   0.112170 0.693120 0.749090 -0.374438
O20   O     O_3   0.887830 0.306880 0.250910 -0.372411
V1    V     V_3+5 0.113010 0.264540 0.250910 1.397954
V2    V     V_3+5 0.886990 0.735460 0.749090 1.395803
V3    V     V_3+5 0.386990 0.764540 0.749090 1.397980
V4    V     V_3+5 0.613010 0.235460 0.250910 1.395872
H1    H     H_    0.084060 0.818394 0.260242 0.114456
H2    H     H_    0.921757 0.182361 0.740162 0.112184
H3    H     H_    0.415544 0.318404 0.739774 0.114380
H4    H     H_    0.579119 0.682258 0.259864 0.112122
C9    C     C_R   0.909472 0.191061 0.531126 -0.141260
C10   C     C_R   0.090789 0.809027 0.468963 -0.141160
C11   C     C_R   0.590933 0.691012 0.468884 -0.141201
C12   C     C_R   0.408791 0.309066 0.531052 -0.141126
C13   C     C_R   0.897641 0.221546 0.611726 -0.106052
C14   C     C_R   0.104266 0.778738 0.388460 -0.106897
C15   C     C_R   0.602985 0.721473 0.388289 -0.106053
C16   C     C_R   0.395202 0.278782 0.611549 -0.106885
C17   C     C_R   0.930303 0.158298 0.677606 -0.137732
C18   C     C_R   0.073636 0.842227 0.322694 -0.134675
C19   C     C_R   0.570380 0.658218 0.322416 -0.137650
C20   C     C_R   0.425997 0.342249 0.677324 -0.134605
C21   C     C_R   0.974364 0.064070 0.663281 -0.144272
C22   C     C_R   0.029234 0.936409 0.337002 -0.147721
C23   C     C_R   0.526125 0.564012 0.336745 -0.144236
C24   C     C_R   0.470650 0.436405 0.663023 -0.147623
C25   C     C_R   0.986451 0.031132 0.581985 0.063803
C26   C     C_R   0.014856 0.969081 0.418163 0.062877
C27   C     C_R   0.513785 0.531100 0.418038 0.063782
C28   C     C_R   0.485053 0.469081 0.581859 0.062841
C29   C     C_R   0.954051 0.095726 0.514782 0.055388
C30   C     C_R   0.046339 0.904380 0.485308 0.055232
C31   C     C_R   0.546168 0.595695 0.485234 0.055422
C32   C     C_R   0.453480 0.404391 0.514710 0.055269
C33   C     C_R   0.031836 0.935702 0.566912 -0.174999
C34   C     C_R   0.968408 0.064384 0.433162 -0.173360
C35   C     C_R   0.468159 0.435695 0.433109 -0.175061
C36   C     C_R   0.531628 0.564371 0.566852 -0.173391
H5    H     H_    0.884182 0.243105 0.482030 0.114109
H6    H     H_    0.115003 0.756851 0.517993 0.113652
H7    H     H_    0.616219 0.743069 0.517965 0.114129
H8    H     H_    0.384470 0.256908 0.482021 0.113667
H9    H     H_    0.863549 0.294689 0.623118 0.130091
H10   H     H_    0.138450 0.705608 0.377080 0.130893
H11   H     H_    0.637219 0.794602 0.376892 0.130140
H12   H     H_    0.360821 0.205672 0.622927 0.130959
H13   H     H_    0.999269 0.017583 0.716538 0.099894
H14   H     H_    0.006241 0.983119 0.283859 0.099419
H15   H     H_    0.501267 0.517524 0.283489 0.100019
H16   H     H_    0.493829 0.483073 0.716183 0.099407
H17   H     H_    0.095175 0.096217 0.033255 0.161727
H18   H     H_    0.868599 0.927444 0.944535 0.136054
H19   H     H_    0.404802 0.596163 0.966725 0.161852
H20   H     H_    0.631188 0.427177 0.055258 0.136101
C37   C     C_2   0.148980 0.949421 0.925771 0.113761
C38   C     C_2   0.853440 0.044505 0.079207 0.126185
C39   C     C_2   0.351018 0.449399 0.074215 0.113724
C40   C     C_2   0.646561 0.544478 0.920773 0.126127
C41   C     C_2   0.995227 0.967970 0.962930 -0.158839
C42   C     C_2   0.988433 0.041497 0.028211 -0.189922
C43   C     C_2   0.504680 0.467835 0.036963 -0.158804
C44   C     C_2   0.511529 0.541431 0.971745 -0.189896
N1    N     N_2   0.722086 0.967328 0.078203 -0.534494
H21   H     H_    0.776714 0.901587 0.067698 0.250426
C45   C     C_3   0.590304 0.963225 0.137813 -0.489214
H22   H     H_    0.513355 0.894846 0.131152 0.167656
H23   H     H_    0.484141 0.020181 0.125383 0.238374
H24   H     H_    0.664608 0.967714 0.202135 0.179397
N2    N     N_2   0.317186 0.001858 0.947993 -0.498696
H25   H     H_    0.435908 0.960668 0.950943 0.287830
C46   C     C_3   0.331164 0.085851 0.898224 -0.554659
H26   H     H_    0.460795 0.125131 0.922072 0.199929
H27   H     H_    0.209534 0.133366 0.901412 0.193159
H28   H     H_    0.336934 0.066018 0.832484 0.186965
N3    N     N_2   0.777903 0.467287 0.921776 -0.534622
H29   H     H_    0.723120 0.401529 0.932077 0.250425
C47   C     C_3   0.910128 0.463341 0.862360 -0.489260
H30   H     H_    0.987198 0.394996 0.869061 0.167692
H31   H     H_    0.016097 0.520355 0.874951 0.238390
H32   H     H_    0.836197 0.467860 0.797957 0.179479
N4    N     N_2   0.182998 0.502028 0.052136 -0.498918
H33   H     H_    0.064107 0.460965 0.049158 0.287927
C48   C     C_3   0.169494 0.585957 0.102030 -0.555136
H34   H     H_    0.040622 0.625722 0.077958 0.199987
H35   H     H_    0.291907 0.633073 0.099276 0.193265
H36   H     H_    0.162587 0.565985 0.167654 0.187130

loop_
_geom_bond_atom_site_label_1
_geom_bond_atom_site_label_2
_ccdc_geom_bond_type
C39   C43   D    
C43   C44   S    
O1    C5    A    
N3    H29   S    
C12   C32   A    
C27   C31   A    
O13   V1    S    
O3    C7    A    
N2    H25   S    
O15   V3    S    
C46   H26   S    
C29   C34   A    
C41   C42   S    
C31   C36   A    
C22   C26   A    
C38   N1    S    
C32   C35   A    
O20   V1    S    
O9    C4    A    
C23   H15   S    
C10   C14   A    
H20   C43   S    
O10   C3    A    
C22   H14   S    
O16   V4    S    
O4    C8    A    
O11   C2    A    
C21   C25   A    
O6    C2    A    
C14   H10   S    
H4    C19   S    
C14   C18   A    
C8    C38   S    
C10   C30   A    
C25   C33   A    
C10   H6    S    
C9    H5    S    
O2    C6    A    
N4    H33   S    
C28   C36   A    
O14   V2    S    
N1    C45   S    
O5    C1    A    
O4    V1    S    
O9    V1    S    
C30   C33   A    
O7    C3    A    
O11   V3    S    
O18   V3    S    
N3    C47   S    
O12   V4    S    
O19   V2    S    
C40   N3    S    
N4    C48   S    
C4    C34   S    
H3    C20   S    
H19   C44   S    
C46   H27   S    
O5    V1    S    
O7    V3    S    
O8    V4    S    
C5    C39   S    
C48   H36   S    
C45   H22   S    
C25   C29   A    
C19   C23   A    
C26   C34   A    
C38   C42   D    
O1    V4    S    
O13   C5    A    
C28   C32   A    
C27   C35   A    
O2    V3    S    
C6    C40   S    
O3    V2    S    
O15   C7    A    
C45   H23   S    
O10   V2    S    
C1    C35   S    
C17   C21   A    
C11   C31   A    
C3    C33   S    
C47   H31   S    
H2    C17   S    
C2    C36   S    
H18   C41   S    
O6    V2    S    
H17   C42   S    
C21   H13   S    
C46   H28   S    
C13   H9    S    
C26   C30   A    
C15   H11   S    
C7    C37   S    
O14   C6    A    
C11   H7    S    
C40   C44   D    
C24   H16   S    
C11   C15   A    
N2    C46   S    
C18   C22   A    
H1    C18   S    
C48   H35   S    
C48   H34   S    
C45   H24   S    
O17   V4    S    
C37   N2    S    
C39   N4    S    
C16   H12   S    
C47   H32   S    
C23   C27   A    
C9    C13   A    
C37   C41   D    
C16   C20   A    
C12   C16   A    
O12   C1    A    
O8    C4    A    
C12   H8    S    
C47   H30   S    
C13   C17   A    
N1    H21   S    
C20   C24   A    
C15   C19   A    
O16   C8    A    
C9    C29   A    
C24   C28   A    
