data_mof_unit_4271.cif
_audit_creation_date              2012-12-10T16:57:41-0500
_audit_creation_method            fapswitch 2.2
_symmetry_space_group_name_H-M    P1
_symmetry_Int_Tables_number       1
_space_group_crystal_system       triclinic
_cell_length_a                    7.742933
_cell_length_b                    8.644601
_cell_length_c                    19.078753
_cell_angle_alpha                 91.087994
_cell_angle_beta                  85.864163
_cell_angle_gamma                 93.374504
_cell_volume                      1271.35467022

loop_
_atom_site_label
_atom_site_type_symbol
_atom_type_description
_atom_site_fract_x
_atom_site_fract_y
_atom_site_fract_z
_atom_type_partial_charge
C1    C     C_R   0.544980 0.794256 0.498419 0.916309
C2    C     C_R   0.649760 0.542432 0.175701 -0.151638
C3    C     C_R   0.525516 0.580890 0.854090 0.037335
C4    C     C_R   0.502762 0.597537 0.147799 0.037821
C5    C     C_R   0.670470 0.523733 0.814604 0.020422
C6    C     C_R   0.352348 0.621333 0.192155 0.017901
C7    C     C_R   0.661707 0.496515 0.742674 -0.231778
C8    C     C_R   0.350470 0.585620 0.262971 -0.227052
C9    C     C_R   0.509979 0.523845 0.710213 -0.050900
C10   C     C_R   0.497185 0.528468 0.290220 -0.051540
C11   C     C_R   0.505416 0.613881 0.071815 0.283559
C12   C     C_R   0.455025 0.205734 0.501541 0.920128
C13   C     C_R   0.519263 0.600080 0.930310 0.282259
C14   C     C_1   0.825683 0.484747 0.846431 0.169694
C15   C     C_1   0.200582 0.686277 0.167277 0.170878
C16   C     C_1   0.713060 0.010188 0.547005 0.229393
C17   C     C_1   0.287200 0.989743 0.452781 0.229429
C18   C     C_2   0.565195 0.955643 0.508126 -0.247274
C19   C     C_2   0.434872 0.044333 0.491769 -0.248995
C20   C     C_R   0.502589 0.503000 0.634645 0.868124
C21   C     C_R   0.498360 0.503502 0.365376 0.867673
C22   C     C_R   0.367245 0.580552 0.749664 -0.181819
C23   C     C_R   0.647106 0.508163 0.246366 -0.184172
C24   C     C_R   0.375495 0.609603 0.820794 -0.154933
H1    H     H_    0.249488 0.604680 0.725519 0.163559
H2    H     H_    0.762324 0.465542 0.266556 0.162935
H3    H     H_    0.263454 0.654268 0.850025 0.168739
H4    H     H_    0.765671 0.521494 0.142433 0.170275
H5    H     H_    0.014171 0.382279 0.447647 0.196385
H6    H     H_    0.985830 0.617715 0.552358 0.195263
H7    H     H_    0.772521 0.452565 0.712197 0.162720
H8    H     H_    0.235403 0.605576 0.297054 0.166730
N1    N     N_R   0.663520 0.642111 0.963827 -0.151613
N2    N     N_1   0.169936 0.946818 0.421829 -0.194100
N3    N     N_R   0.360783 0.575107 0.038144 -0.150548
N4    N     N_R   0.656875 0.648163 0.033552 -0.154922
N5    N     N_R   0.367390 0.569090 0.968588 -0.152445
N6    N     N_2   0.950330 0.457950 0.481240 -0.166819
N7    N     N_2   0.049670 0.542050 0.518760 -0.167377
N8    N     N_1   0.950013 0.453139 0.871828 -0.179609
N9    N     N_1   0.079011 0.738426 0.147487 -0.181000
N10   N     N_1   0.830525 0.053025 0.577858 -0.192788
O1    O     O_R   0.389250 0.738570 0.504600 -0.608763
O2    O     O_R   0.610750 0.261430 0.495400 -0.606302
O3    O     O_R   0.678400 0.711620 0.492580 -0.619068
O4    O     O_R   0.321600 0.288380 0.507420 -0.617333
O5    O     O_R   0.355380 0.513500 0.607880 -0.620903
O6    O     O_R   0.644620 0.486500 0.392120 -0.619226
O7    O     O_R   0.644530 0.486550 0.595850 -0.626161
O8    O     O_R   0.355470 0.513450 0.404150 -0.628432
Zn1   Zn    Zn3+2 0.306930 0.517990 0.508030 0.963959
Zn2   Zn    Zn3+2 0.693070 0.482010 0.491970 0.966019

loop_
_geom_bond_atom_site_label_1
_geom_bond_atom_site_label_2
_ccdc_geom_bond_type
H5    N6    S    
C2    C4    A    
C13   N1    A    
C20   O7    A    
C10   C23   A    
C12   O4    A    
C9    C20   S    
N7    Zn1   S    
C3    C13   S    
C24   H3    S    
O7    Zn2   S    
O1    Zn1   S    
O2    Zn2   S    
C11   N3    A    
O8    Zn1   S    
C5    C14   S    
C12   O2    A    
C4    C11   S    
C1    O3    A    
C1    C18   S    
C6    C8    A    
C12   C19   S    
C8    C10   A    
C21   O8    A    
C17   C19   S    
H6    N7    S    
C18   C19   D    
C5    C7    A    
C10   C21   S    
N6    N7    D    
C22   C24   A    
C9    C22   A    
C20   O5    A    
N6    Zn2   S    
C17   N2    T    
C14   N8    T    
C8    H8    S    
C21   O6    A    
C16   N10   T    
O6    Zn2   S    
N1    N4    A    
C7    H7    S    
C15   N9    T    
C16   C18   S    
C4    C6    A    
C23   H2    S    
C2    C23   A    
C7    C9    A    
C11   N4    A    
C2    H4    S    
O3    Zn2   S    
N3    N5    A    
C6    C15   S    
C13   N5    A    
O4    Zn1   S    
C1    O1    A    
O5    Zn1   S    
C3    C24   A    
C3    C5    A    
C22   H1    S    
