data_mof_unit_1282.cif
_audit_creation_date              2012-12-11T14:24:52-0500
_audit_creation_method            fapswitch 2.2
_symmetry_space_group_name_H-M    P1
_symmetry_Int_Tables_number       1
_space_group_crystal_system       triclinic
_cell_length_a                    19.19351
_cell_length_b                    10.870639
_cell_length_c                    18.807742
_cell_angle_alpha                 89.508394
_cell_angle_beta                  91.008765
_cell_angle_gamma                 90.570486
_cell_volume                      3923.21353141

loop_
_atom_site_label
_atom_site_type_symbol
_atom_type_description
_atom_site_fract_x
_atom_site_fract_y
_atom_site_fract_z
_atom_type_partial_charge
C1    C     C_R   0.730150 0.376751 0.146751 0.524333
C2    C     C_R   0.226993 0.845084 0.061850 0.014150
C3    C     C_R   0.693423 0.608182 0.411391 -0.078073
C4    C     C_R   0.943810 0.006987 0.515099 -0.144283
C5    C     C_R   0.135380 0.175906 0.433242 -0.113979
C6    C     C_R   0.443665 0.511639 0.513585 -0.154967
C7    C     C_R   0.639093 0.680298 0.432856 -0.114602
C8    C     C_R   0.941047 0.958547 0.447019 -0.112204
C9    C     C_R   0.110344 0.161242 0.501643 -0.149890
C10   C     C_R   0.441061 0.465459 0.445021 -0.114751
C11   C     C_R   0.613294 0.666729 0.501044 -0.149433
C12   C     C_R   0.877730 0.916564 0.419127 -0.077226
C13   C     C_R   0.272855 0.343952 0.938677 0.014266
C14   C     C_R   0.140530 0.076250 0.547843 -0.083485
C15   C     C_R   0.378597 0.418879 0.417797 -0.073883
C16   C     C_R   0.641848 0.580287 0.547420 -0.081309
C17   C     C_R   0.749920 0.924868 0.427706 0.000396
C18   C     C_R   0.237246 0.926665 0.573124 -0.002338
C19   C     C_R   0.250912 0.421565 0.426822 -0.000491
C20   C     C_R   0.736434 0.426605 0.573375 -0.003191
C21   C     C_R   0.730480 0.376625 0.354749 0.527830
C22   C     C_R   0.271033 0.381509 0.645709 0.545638
C23   C     C_R   0.230675 0.877156 0.354557 0.531398
C24   C     C_R   0.749264 0.416070 0.075175 0.014357
C25   C     C_R   0.770739 0.882341 0.646061 0.543846
C26   C     C_R   0.561967 0.150668 0.361456 0.555245
C27   C     C_R   0.442469 0.153514 0.638233 0.551088
C28   C     C_R   0.064698 0.650701 0.360812 0.563263
C29   C     C_R   0.963078 0.656968 0.644177 0.545215
C30   C     C_R   0.742164 0.969080 0.355812 0.521458
C31   C     C_R   0.255395 0.969517 0.644479 0.531217
C32   C     C_R   0.242395 0.468350 0.355483 0.521817
C33   C     C_R   0.755195 0.469235 0.644659 0.531274
C34   C     C_3   0.506224 0.267921 0.967288 -0.160672
C35   C     C_R   0.692434 0.865695 0.960969 0.056358
C36   C     C_3   0.474230 0.246008 0.041723 -0.140891
C37   C     C_3   0.027061 0.745096 0.956665 -0.139726
C38   C     C_3   0.995331 0.769370 0.030666 -0.161640
C39   C     C_3   0.565748 0.179387 0.987543 0.262918
C40   C     C_3   0.432620 0.135192 0.012151 0.257798
C41   C     C_3   0.067081 0.634631 0.988223 0.258780
C42   C     C_3   0.934618 0.680983 0.011837 0.263875
C43   C     C_3   0.534510 0.158169 0.061758 0.016480
C44   C     C_3   0.464038 0.156918 0.938242 0.009995
C45   C     C_3   0.035954 0.658746 0.061680 0.009156
C46   C     C_R   0.287490 0.800896 0.025388 0.057982
C47   C     C_3   0.965618 0.657206 0.938129 0.017650
C48   C     C_3   0.634181 0.226838 0.891214 -0.004097
C49   C     C_3   0.696161 0.172506 0.854166 -0.369343
C50   C     C_3   0.361479 0.071984 0.102955 -0.004904
C51   C     C_3   0.293935 0.104343 0.138197 -0.357642
C52   C     C_3   0.137544 0.569123 0.898640 -0.006607
C53   C     C_3   0.205314 0.601470 0.862845 -0.358683
C54   C     C_3   0.866202 0.730541 0.107002 -0.004316
C55   C     C_3   0.804413 0.673688 0.144767 -0.369720
C56   C     C_R   0.211988 0.299270 0.975442 0.056059
C57   C     C_R   0.807412 0.367676 0.039551 0.056269
C58   C     C_R   0.692882 0.866629 0.036367 0.049353
C59   C     C_R   0.292031 0.822109 0.950752 0.052435
C60   C     C_R   0.206765 0.322132 0.049743 0.052180
C61   C     C_R   0.286286 0.330300 0.861340 0.534740
C62   C     C_R   0.806786 0.367414 0.964237 0.049451
C63   C     C_R   0.798354 0.993489 0.034326 -0.116102
C64   C     C_R   0.180619 0.923675 0.950419 -0.119875
C65   C     C_R   0.318986 0.424746 0.049570 -0.120709
C66   C     C_R   0.700839 0.489726 0.964770 -0.113313
C67   C     C_R   0.801548 0.981890 0.962311 -0.120126
C68   C     C_R   0.172878 0.897597 0.021652 -0.120289
C69   C     C_R   0.327055 0.397721 0.978655 -0.118941
C70   C     C_R   0.698167 0.479932 0.036865 -0.120599
C71   C     C_R   0.634336 0.813628 0.924736 -0.101947
C72   C     C_R   0.213638 0.831212 0.139112 0.533720
C73   C     C_R   0.343930 0.736822 0.058456 -0.108781
C74   C     C_R   0.155944 0.232659 0.942856 -0.112286
C75   C     C_R   0.865602 0.318187 0.076431 -0.100882
C76   C     C_R   0.102450 0.181136 0.982728 -0.150641
C77   C     C_R   0.917381 0.257389 0.040430 -0.147644
C78   C     C_R   0.582829 0.750674 0.961581 -0.146837
C79   C     C_R   0.396752 0.685670 0.018805 -0.149085
C80   C     C_R   0.587449 0.739281 0.034959 -0.146261
C81   C     C_R   0.394727 0.693091 0.945517 -0.123485
C82   C     C_R   0.103575 0.190527 0.055879 -0.124141
C83   C     C_R   0.769855 0.876400 0.853353 0.526349
C84   C     C_R   0.912718 0.244809 0.967248 -0.148381
C85   C     C_R   0.641634 0.796389 0.072208 -0.105025
C86   C     C_R   0.343926 0.762325 0.911700 -0.090485
C87   C     C_R   0.154147 0.261989 0.089142 -0.090915
C88   C     C_R   0.858183 0.298805 0.929312 -0.104728
C89   C     C_R   0.562413 0.151737 0.136251 0.575712
C90   C     C_R   0.436949 0.150268 0.863573 0.556595
C91   C     C_R   0.063048 0.651629 0.136399 0.556834
C92   C     C_R   0.937767 0.650529 0.863715 0.573305
C93   C     C_R   0.745473 0.935733 0.072846 0.016144
C94   C     C_3   0.492098 0.047148 0.032334 -0.134201
C95   C     C_R   0.242541 0.898031 0.916313 0.010236
C96   C     C_R   0.256588 0.399137 0.083651 0.010048
C97   C     C_R   0.753993 0.434120 0.927025 0.017600
C98   C     C_R   0.471545 0.153562 0.566507 0.007609
C99   C     C_R   0.537065 0.144332 0.434758 -0.001545
C100  C     C_R   0.987582 0.659832 0.570814 0.007472
C101  C     C_R   0.045079 0.646370 0.435699 -0.003025
C102  C     C_R   0.465897 0.044951 0.524702 0.017955
C103  C     C_R   0.504285 0.034750 0.462562 0.039431
C104  C     C_R   0.973295 0.556433 0.526782 0.018987
C105  C     C_3   0.524047 0.069001 0.958904 -0.116768
C106  C     C_R   0.010657 0.540260 0.464960 0.034263
C107  C     C_R   0.544425 0.248279 0.477547 -0.164830
C108  C     C_R   0.513571 0.251453 0.543771 -0.134345
C109  C     C_R   0.056942 0.750395 0.478049 -0.162869
C110  C     C_R   0.030739 0.754823 0.546579 -0.147161
C111  C     C_R   0.425217 0.942568 0.545454 -0.095916
C112  C     C_R   0.507116 0.914697 0.430970 -0.092791
C113  C     C_R   0.923501 0.465670 0.544050 -0.075904
C114  C     C_R   0.009019 0.419385 0.434442 -0.094830
C115  C     C_R   0.925969 0.347924 0.516725 -0.123646
C116  C     C_3   0.974698 0.570979 0.042497 -0.115905
C117  C     C_R   0.967249 0.325750 0.460038 -0.150957
C118  C     C_R   0.429003 0.829095 0.513464 -0.134161
C119  C     C_R   0.467981 0.816160 0.454313 -0.145203
C120  C     C_R   0.761040 0.928727 0.574253 0.004542
C121  C     C_R   0.248848 0.909484 0.426831 0.005260
C122  C     C_R   0.261813 0.425532 0.573441 0.002864
C123  C     C_R   0.748183 0.407849 0.427240 0.008326
C124  C     C_R   0.821007 0.953402 0.531414 0.036445
C125  C     C_R   0.216396 0.011437 0.455402 0.017564
C126  C     C_R   0.321848 0.450976 0.530723 0.034526
C127  C     C_3   0.006404 0.546680 0.969519 -0.135028
C128  C     C_R   0.717018 0.511344 0.455428 0.018415
C129  C     C_R   0.816389 0.925280 0.459300 0.021535
C130  C     C_R   0.198167 0.005685 0.526770 0.041126
C131  C     C_R   0.317383 0.423818 0.458387 0.022299
C132  C     C_R   0.698562 0.507022 0.526735 0.042568
C133  C     C_R   0.690485 0.929914 0.470083 -0.146073
C134  C     C_R   0.270586 0.826134 0.545172 -0.186589
C135  C     C_R   0.191563 0.422930 0.469181 -0.144488
C136  C     C_R   0.767578 0.323635 0.545824 -0.188142
C137  C     C_R   0.740283 0.972560 0.147269 0.522476
C138  C     C_R   0.750704 0.915316 0.924715 0.015873
C139  C     C_R   0.257301 0.965473 0.849867 0.527342
C140  C     C_R   0.242421 0.465752 0.149977 0.529326
C141  C     C_R   0.759526 0.472147 0.852598 0.519587
C142  C     C_R   0.695729 0.920253 0.542799 -0.153190
C143  C     C_R   0.273961 0.814802 0.471869 -0.142669
C144  C     C_R   0.196756 0.414143 0.541814 -0.151841
C145  C     C_R   0.771257 0.311849 0.472523 -0.147032
C146  C     C_R   0.884644 0.006029 0.556761 -0.087346
C147  C     C_R   0.191098 0.107293 0.411633 -0.076537
C148  C     C_R   0.385141 0.504869 0.556165 -0.094241
Cr1   Cr    Cr6+3 0.772820 0.169820 0.252640 0.997136
Cr2   Cr    Cr6+3 0.383280 0.011130 0.749340 0.986808
Cr3   Cr    Cr6+3 0.116720 0.511130 0.250660 0.977295
Cr4   Cr    Cr6+3 0.883280 0.511130 0.749340 0.992116
Cr5   Cr    Cr6+3 0.227180 0.169820 0.747360 0.980962
Cr6   Cr    Cr6+3 0.272820 0.669820 0.252640 0.983163
Cr7   Cr    Cr6+3 0.727180 0.669820 0.747360 0.997421
Cr8   Cr    Cr6+3 0.615040 0.323610 0.249150 1.001193
Cr9   Cr    Cr6+3 0.384960 0.323610 0.750850 0.987498
Cr10  Cr    Cr6+3 0.115040 0.823610 0.249150 0.986707
Cr11  Cr    Cr6+3 0.884960 0.823610 0.750850 1.003497
Cr12  Cr    Cr6+3 0.616720 0.011130 0.250660 0.978454
H1    H     H_    0.574228 0.327443 0.459558 0.136252
H2    H     H_    0.968182 0.235197 0.436559 0.120061
H3    H     H_    0.401720 0.750738 0.534787 0.114409
H4    H     H_    0.471219 0.727794 0.428561 0.120552
H5    H     H_    0.639778 0.942207 0.446931 0.129073
H6    H     H_    0.294297 0.758176 0.580093 0.110748
H7    H     H_    0.140897 0.433186 0.446057 0.130055
H8    H     H_    0.789472 0.254152 0.581005 0.111538
H9    H     H_    0.889182 0.052257 0.607286 0.132047
H10   H     H_    0.209647 0.120964 0.358010 0.118397
H11   H     H_    0.389662 0.549919 0.607018 0.134741
H12   H     H_    0.522475 0.330807 0.577203 0.137344
H13   H     H_    0.712338 0.620589 0.357815 0.117278
H14   H     H_    0.649294 0.909102 0.574277 0.130749
H15   H     H_    0.295377 0.731247 0.450545 0.160974
H16   H     H_    0.150303 0.401771 0.573147 0.130902
H17   H     H_    0.791478 0.227189 0.451400 0.159061
H18   H     H_    0.991847 0.044451 0.536349 0.101481
H19   H     H_    0.112016 0.238960 0.395918 0.101315
H20   H     H_    0.491171 0.552200 0.534392 0.102293
H21   H     H_    0.617386 0.745291 0.395595 0.104562
H22   H     H_    0.987190 0.958418 0.414788 0.131004
H23   H     H_    0.086698 0.828065 0.458032 0.139805
H24   H     H_    0.068219 0.216159 0.520152 0.115970
H25   H     H_    0.486737 0.469687 0.412134 0.126830
H26   H     H_    0.572096 0.724078 0.519347 0.118952
H27   H     H_    0.875958 0.884226 0.364796 0.126726
H28   H     H_    0.114904 0.062099 0.597969 0.134598
H29   H     H_    0.377059 0.387121 0.363345 0.127661
H30   H     H_    0.615738 0.567542 0.597393 0.135955
H31   H     H_    0.512079 0.359622 0.941474 0.106478
H32   H     H_    0.453772 0.318642 0.076482 0.120053
H33   H     H_    0.048354 0.816263 0.920295 0.120442
H34   H     H_    0.043104 0.832872 0.580067 0.122317
H35   H     H_    0.990712 0.861675 0.054892 0.105666
H36   H     H_    0.486308 0.954238 0.056678 0.137121
H37   H     H_    0.545454 0.996796 0.924774 0.148057
H38   H     H_    0.952296 0.501022 0.078520 0.147736
H39   H     H_    0.010981 0.453375 0.946605 0.137413
H40   H     H_    0.839179 0.046881 0.060091 0.145954
H41   H     H_    0.138618 0.969327 0.922288 0.123173
H42   H     H_    0.361285 0.470484 0.077534 0.123903
H43   H     H_    0.659609 0.540772 0.938472 0.144279
H44   H     H_    0.626106 0.824593 0.868142 0.131529
H45   H     H_    0.390361 0.947614 0.586898 0.179790
H46   H     H_    0.350647 0.721833 0.114279 0.169235
H47   H     H_    0.150421 0.215459 0.887282 0.170047
H48   H     H_    0.873999 0.330555 0.132825 0.131852
H49   H     H_    0.846244 0.022252 0.936360 0.137761
H50   H     H_    0.124420 0.922918 0.045957 0.129618
H51   H     H_    0.375910 0.423169 0.954353 0.128524
H52   H     H_    0.653470 0.518949 0.062292 0.139048
H53   H     H_    0.062195 0.126614 0.956856 0.089785
H54   H     H_    0.960232 0.217947 0.070021 0.110626
H55   H     H_    0.540422 0.708046 0.932528 0.107817
H56   H     H_    0.541759 0.887327 0.390415 0.142619
H57   H     H_    0.437130 0.632894 0.045156 0.089914
H58   H     H_    0.066202 0.139948 0.087324 0.100070
H59   H     H_    0.951036 0.192536 0.939426 0.103040
H60   H     H_    0.549615 0.684946 0.063493 0.101909
H61   H     H_    0.431537 0.642835 0.914421 0.099683
H62   H     H_    0.644245 0.778378 0.128657 0.129553
H63   H     H_    0.342713 0.759547 0.854322 0.129018
H64   H     H_    0.154614 0.260398 0.146535 0.128569
H65   H     H_    0.855589 0.279923 0.873133 0.129770
H66   H     H_    0.634194 0.327865 0.884140 0.139823
H67   H     H_    0.882801 0.486638 0.578540 0.177255
H68   H     H_    0.587535 0.192804 0.861016 0.146678
H69   H     H_    0.683736 0.076492 0.838826 0.127845
H70   H     H_    0.707295 0.225612 0.804892 0.105560
H71   H     H_    0.742659 0.174076 0.889404 0.170736
H72   H     H_    0.403783 0.111795 0.137339 0.148429
H73   H     H_    0.367085 0.970714 0.103822 0.146733
H74   H     H_    0.288214 0.049366 0.187784 0.139222
H75   H     H_    0.294971 0.202303 0.153483 0.122789
H76   H     H_    0.249422 0.085189 0.101729 0.193595
H77   H     H_    0.095579 0.607871 0.863596 0.145800
H78   H     H_    0.041750 0.388620 0.393038 0.142072
H79   H     H_    0.131059 0.467808 0.899462 0.147252
H80   H     H_    0.210271 0.546463 0.813790 0.139391
H81   H     H_    0.205356 0.699498 0.846681 0.124257
H82   H     H_    0.249702 0.582294 0.899352 0.192722
H83   H     H_    0.865795 0.831595 0.112561 0.140549
H84   H     H_    0.912973 0.699387 0.137790 0.145721
H85   H     H_    0.817024 0.578079 0.160869 0.128742
H86   H     H_    0.793381 0.726185 0.193626 0.101335
H87   H     H_    0.757778 0.673533 0.109671 0.171693
H88   H     H_    0.896363 0.273221 0.539031 0.116022
O1    O     O_R   0.788190 0.043000 0.172520 -0.528448
O2    O     O_R   0.454170 0.051610 0.669840 -0.526389
O3    O     O_R   0.045830 0.551610 0.330160 -0.533268
O4    O     O_R   0.954170 0.551610 0.669840 -0.530519
O5    O     O_R   0.681920 0.959720 0.327070 -0.538943
O6    O     O_R   0.318080 0.959720 0.672930 -0.540295
O7    O     O_R   0.181920 0.459720 0.327070 -0.540079
O8    O     O_R   0.818080 0.459720 0.672930 -0.526614
O9    O     O_3   0.668190 0.168190 0.250820 -0.270577
O10   O     O_3   0.331810 0.168190 0.749180 -0.278002
O11   O     O_3   0.168190 0.668190 0.250820 -0.286067
O12   O     O_R   0.211810 0.043000 0.827480 -0.543085
O13   O     O_3   0.831810 0.668190 0.749180 -0.255130
O14   O     O_R   0.766240 0.292300 0.176860 -0.508131
O15   O     O_R   0.233760 0.292300 0.823140 -0.531002
O16   O     O_R   0.266240 0.792300 0.176860 -0.529789
O17   O     O_R   0.733760 0.792300 0.823140 -0.511331
O18   O     O_R   0.670310 0.409160 0.168720 -0.534540
O19   O     O_R   0.329690 0.409160 0.831280 -0.542188
O20   O     O_R   0.170310 0.909160 0.168720 -0.541606
O21   O     O_R   0.829690 0.909160 0.831280 -0.535196
O22   O     O_R   0.556160 0.251900 0.173380 -0.499449
O23   O     O_R   0.288190 0.543000 0.172520 -0.541169
O24   O     O_R   0.443840 0.251900 0.826620 -0.521917
O25   O     O_R   0.056160 0.751900 0.173380 -0.519534
O26   O     O_R   0.943840 0.751900 0.826620 -0.506104
O27   O     O_R   0.545410 0.050140 0.168240 -0.532147
O28   O     O_R   0.454590 0.050140 0.831760 -0.520205
O29   O     O_R   0.045410 0.550140 0.168240 -0.520673
O30   O     O_R   0.954590 0.550140 0.831760 -0.535615
O31   O     O_R   0.681530 0.958350 0.176970 -0.524535
O32   O     O_R   0.318470 0.958350 0.823030 -0.519035
O33   O     O_R   0.181530 0.458350 0.176970 -0.520197
O34   O     O_R   0.711810 0.543000 0.827480 -0.530232
O35   O     O_R   0.818470 0.458350 0.823030 -0.524047
O36   O     O_R   0.788610 0.044480 0.334450 -0.520387
O37   O     O_R   0.211390 0.044480 0.665550 -0.527299
O38   O     O_R   0.288610 0.544480 0.334450 -0.519862
O39   O     O_R   0.711390 0.544480 0.665550 -0.528454
O40   O     O_R   0.766630 0.293670 0.326970 -0.503918
O41   O     O_R   0.233370 0.293670 0.673030 -0.488079
O42   O     O_R   0.266630 0.793670 0.326970 -0.497734
O43   O     O_R   0.733370 0.793670 0.673030 -0.492503
O44   O     O_R   0.670730 0.410640 0.330640 -0.533668
O45   O     O_R   0.556550 0.253260 0.323480 -0.492325
O46   O     O_R   0.329270 0.410640 0.669360 -0.541970
O47   O     O_R   0.170730 0.910640 0.330640 -0.531917
O48   O     O_R   0.829270 0.910640 0.669360 -0.540984
O49   O     O_3   0.635120 0.197091 0.965392 -0.552153
O50   O     O_3   0.362509 0.115114 0.031297 -0.556442
O51   O     O_3   0.136947 0.613680 0.969567 -0.555191
O52   O     O_3   0.865386 0.699727 0.033279 -0.551979
O53   O     O_R   0.443450 0.253260 0.676520 -0.494557
O54   O     O_R   0.056550 0.753260 0.323480 -0.492690
O55   O     O_R   0.943450 0.753260 0.676520 -0.495669
O56   O     O_R   0.545830 0.051610 0.330160 -0.535872

loop_
_geom_bond_atom_site_label_1
_geom_bond_atom_site_label_2
_ccdc_geom_bond_type
Cr4   O13   S    
C99   C103  A    
C73   H46   S    
C143  H15   S    
C23   O42   A    
C43   C89   S    
C25   O43   A    
C111  C118  A    
C94   H36   S    
C66   C97   A    
Cr2   O28   S    
Cr3   O33   S    
Cr2   O6    S    
C82   C87   A    
C100  C104  A    
C10   H25   S    
C98   C108  A    
C38   H35   S    
C51   H75   S    
C67   C138  A    
C61   O19   A    
C38   C45   S    
C52   H79   S    
C134  C143  A    
C76   H53   S    
C65   C96   A    
C123  C145  A    
C26   O45   A    
C69   H51   S    
C85   H62   S    
C81   C86   A    
Cr4   O35   S    
C105  H37   S    
C35   C71   A    
C17   C30   S    
C102  C111  A    
C28   O54   A    
C20   C132  A    
C19   C32   S    
C53   H80   S    
C77   H54   S    
C22   C122  S    
C29   O4    A    
C83   O17   A    
Cr4   O8    S    
C98   C102  A    
Cr9   O24   S    
C62   C88   A    
C34   C39   S    
C103  C112  A    
C37   H33   S    
Cr12  O5    S    
C21   C123  S    
C50   H73   S    
C37   C38   S    
C48   H66   S    
C91   O25   A    
C139  O12   A    
C30   O5    A    
C34   C44   S    
Cr12  O27   S    
Cr7   O17   S    
C20   C33   S    
C42   C116  S    
C17   C133  A    
C18   C130  A    
C54   O52   S    
C81   H61   S    
C52   O51   S    
C115  H88   S    
C14   C130  A    
C31   O6    A    
C84   C88   A    
C95   C139  S    
C28   O3    A    
C50   O50   S    
C9    H24   S    
C66   C70   A    
C32   O7    A    
Cr12  O9    S    
C67   H49   S    
C92   O30   A    
C141  O34   A    
Cr7   O13   S    
Cr8   O18   S    
C89   O27   A    
C41   C45   S    
C90   O28   A    
C18   C31   S    
C19   C135  A    
Cr10  O54   S    
C83   C138  S    
Cr10  O11   S    
C113  C115  A    
Cr11  O21   S    
C122  C126  A    
C70   H52   S    
C47   C92   S    
C41   C127  S    
C68   H50   S    
Cr3   O11   S    
C44   C105  S    
C5    C9    A    
C133  C142  A    
C74   C76   A    
Cr8   O45   S    
C35   C58   A    
C64   C68   A    
C53   H81   S    
Cr10  O47   S    
C32   O38   A    
C48   H68   S    
C78   C80   A    
C113  H67   S    
C72   O20   A    
C43   C94   S    
C49   H70   S    
C5    H19   S    
C33   O39   A    
C24   C57   A    
C107  C108  A    
C50   H72   S    
C37   C47   S    
C26   C99   S    
C114  H78   S    
C13   C56   A    
C15   H29   S    
C16   C132  A    
Cr2   O2    S    
C74   H47   S    
C71   H44   S    
C7    H21   S    
C89   O22   A    
C61   O15   A    
C76   C82   A    
C3    C128  A    
C77   C84   A    
C12   H27   S    
C124  C146  A    
C55   H86   S    
C121  C125  A    
C62   C97   A    
C8    C12   A    
C144  H16   S    
C73   C79   A    
C21   O44   A    
C20   C136  A    
C75   C77   A    
Cr1   O9    S    
C108  H12   S    
C86   H63   S    
Cr4   O4    S    
C52   C53   S    
Cr10  O25   S    
Cr8   O9    S    
C101  C106  A    
C54   C55   S    
C137  O31   A    
C6    H20   S    
C36   H32   S    
C4    H18   S    
C127  H39   S    
C119  H4    S    
C96   C140  S    
C47   C127  S    
C117  H2    S    
C140  O23   A    
C54   H83   S    
C57   C75   A    
C45   C116  S    
C13   C69   A    
Cr6   O38   S    
C34   C36   S    
C112  H56   S    
C37   C41   S    
C102  C103  A    
Cr5   O15   S    
C21   O40   A    
C114  C117  A    
Cr6   O16   S    
C104  C113  A    
C40   C44   S    
C15   C131  A    
C1    C24   S    
C146  H9    S    
C135  H7    S    
Cr7   O39   S    
C46   C73   A    
C64   H41   S    
C94   C105  S    
C100  C110  A    
C5    C147  A    
C11   H26   S    
C104  C106  A    
C23   C121  S    
C58   C93   A    
C3    C7    A    
C48   O49   S    
C23   O47   A    
Cr8   O22   S    
C101  C109  A    
C148  H11   S    
C63   H40   S    
Cr8   O44   S    
C91   O29   A    
C22   O41   A    
C28   C101  S    
C65   H42   S    
C107  H1    S    
Cr5   O41   S    
C115  C117  A    
C116  C127  S    
C134  H6    S    
C111  H45   S    
C147  H10   S    
C109  H23   S    
C31   O37   A    
C2    C72   S    
Cr5   O10   S    
Cr1   O1    S    
C118  H3    S    
C72   O16   A    
C56   C74   A    
C12   C129  A    
C24   C70   A    
Cr9   O10   S    
C139  O32   A    
Cr11  O48   S    
C125  C147  A    
C40   C94   S    
C126  C148  A    
Cr3   O3    S    
C56   C60   A    
C51   H76   S    
C78   H55   S    
C9    C14   A    
C80   C85   A    
C133  H5    S    
C14   H28   S    
C11   C16   A    
Cr11  O13   S    
C50   C51   S    
C39   O49   S    
Cr11  O55   S    
Cr12  O56   S    
C97   C141  S    
Cr4   O30   S    
C60   C96   A    
C48   C49   S    
Cr1   O40   S    
Cr6   O23   S    
C22   O46   A    
C25   C120  S    
Cr1   O14   S    
C8    H22   S    
C29   C100  S    
Cr11  O26   S    
C33   O8    A    
C6    C10   A    
C112  C119  A    
C137  O1    A    
C99   C107  A    
C63   C93   A    
C2    C68   A    
C87   H64   S    
C109  C110  A    
C41   O51   S    
C65   C69   A    
C124  C129  A    
C49   H69   S    
C45   C91   S    
Cr2   O32   S    
C79   H57   S    
C36   C43   S    
Cr5   O12   S    
Cr6   O11   S    
Cr9   O46   S    
C27   C98   S    
C46   C59   A    
C121  C143  A    
C122  C144  A    
C140  O33   A    
C4    C8    A    
C57   C62   A    
C142  H14   S    
C2    C46   A    
C7    C11   A    
C42   O52   S    
C106  C114  A    
C51   H74   S    
C34   H31   S    
C27   O2    A    
C38   C42   S    
C10   C15   A    
C35   C138  A    
C116  H38   S    
C75   H48   S    
C83   O21   A    
C118  C119  A    
C141  O35   A    
C125  C130  A    
C3    H13   S    
C1    O18   A    
C110  H34   S    
C18   C134  A    
C136  C145  A    
C55   H87   S    
Cr12  O31   S    
C59   C95   A    
C128  C132  A    
C60   C87   A    
C19   C131  A    
Cr9   O19   S    
C63   C67   A    
Cr10  O20   S    
C17   C129  A    
C36   C40   S    
C120  C142  A    
C53   H82   S    
C79   C81   A    
C39   C43   S    
C136  H8    S    
Cr6   O42   S    
C1    O14   A    
C54   H84   S    
C49   H71   S    
C84   H59   S    
C6    C148  A    
C88   H65   S    
C82   H58   S    
C4    C146  A    
C30   O36   A    
C16   H30   S    
C52   H77   S    
C29   O55   A    
C66   H43   S    
C135  C144  A    
C25   O48   A    
C92   O26   A    
C58   C85   A    
C44   C90   S    
Cr3   O7    S    
C39   C105  S    
Cr7   O43   S    
C90   O24   A    
C64   C95   A    
Cr9   O53   S    
C80   H60   S    
C26   O56   A    
C27   O53   A    
Cr7   O34   S    
C40   O50   S    
Cr3   O29   S    
C59   C86   A    
Cr2   O10   S    
Cr5   O37   S    
C123  C128  A    
C126  C131  A    
Cr1   O36   S    
C42   C47   S    
C93   C137  S    
C13   C61   S    
C55   H85   S    
C145  H17   S    
C71   C78   A    
C120  C124  A    
