data_mof_unit_2370.cif
_audit_creation_date              2012-12-11T20:44:23-0500
_audit_creation_method            fapswitch 2.2
_symmetry_space_group_name_H-M    P1
_symmetry_Int_Tables_number       1
_space_group_crystal_system       triclinic
_cell_length_a                    8.273533
_cell_length_b                    19.074929
_cell_length_c                    18.718551
_cell_angle_alpha                 100.452769
_cell_angle_beta                  93.456191
_cell_angle_gamma                 91.890613
_cell_volume                      2896.89362685

loop_
_atom_site_label
_atom_site_type_symbol
_atom_type_description
_atom_site_fract_x
_atom_site_fract_y
_atom_site_fract_z
_atom_type_partial_charge
Ba1   Ba    Ba6+2 0.153030 0.533740 0.468880 1.647833
Ba2   Ba    Ba6+2 0.657140 0.466250 0.531070 1.646202
C1    C     C_3   0.342085 0.717670 0.204144 -0.365437
C2    C     C_R   0.987262 0.271895 0.473093 0.047815
C3    C     C_R   0.141038 0.188047 0.560876 -0.156785
C4    C     C_3   0.927086 0.722002 0.307954 0.382956
C5    C     C_R   0.207628 0.255523 0.556708 0.004574
C6    C     C_R   0.677152 0.807111 0.430237 -0.159746
C7    C     C_R   0.608517 0.740823 0.437501 -0.002491
C8    C     C_R   0.864489 0.800295 0.532127 -0.152209
C9    C     C_R   0.828864 0.725714 0.521232 0.075575
C10   C     C_R   0.020788 0.153417 0.507546 0.002158
C11   C     C_R   0.120048 0.299614 0.519420 -0.248449
C12   C     C_3   0.387499 0.694137 0.275878 0.357000
C13   C     C_R   0.797624 0.842847 0.482579 -0.004619
C14   C     C_R   0.694073 0.697755 0.476742 -0.239834
C15   C     C_R   0.237782 0.036540 0.541165 -0.080275
C16   C     C_3   0.956089 0.788888 0.276006 -0.378370
C17   C     C_R   0.336086 0.986616 0.564940 -0.081380
C18   C     C_R   0.287497 0.915463 0.548156 -0.062175
C19   C     C_R   0.136798 0.895981 0.512211 -0.077233
C20   C     C_R   0.018564 0.946151 0.506085 0.012164
C21   C     C_R   0.072529 0.020084 0.517174 0.037734
C22   C     C_R   0.853595 0.922333 0.485614 -0.015889
C23   C     C_3   0.505227 0.684679 0.639537 0.310371
C24   C     C_R   0.745369 0.976006 0.470537 0.038306
C25   C     C_R   0.799226 0.050071 0.481651 0.015563
C26   C     C_R   0.964238 0.073840 0.502693 -0.017365
C27   C     C_R   0.580542 0.959379 0.445825 -0.080879
C28   C     C_3   0.800534 0.380066 0.310090 0.368405
C29   C     C_R   0.482138 0.009340 0.422102 -0.077802
C30   C     C_R   0.530312 0.080553 0.439035 -0.066426
C31   C     C_R   0.680825 0.100194 0.474806 -0.082433
C32   C     C_2   0.596058 0.528929 0.303860 -0.264893
C33   C     C_3   0.682073 0.576258 0.260766 -0.051084
C34   C     C_3   0.525698 0.765518 0.658910 -0.395792
C35   C     C_2   0.640751 0.556963 0.179867 -0.130350
C36   C     C_2   0.510339 0.513215 0.153206 -0.078165
C37   C     C_2   0.418596 0.478247 0.204608 -0.114345
C38   C     C_1   0.469422 0.487273 0.274244 0.079808
C39   C     C_R   0.348221 0.490098 0.932429 0.454150
C40   C     C_3   0.772753 0.364595 0.227410 0.256905
C41   C     C_R   0.454984 0.502848 0.074853 0.449704
C42   C     C_R   0.384963 0.518320 0.809087 -0.146092
C43   C     C_R   0.333175 0.515215 0.736314 0.018536
C44   C     C_R   0.091002 0.446595 0.752685 0.014823
C45   C     C_3   0.894965 0.274131 0.680387 0.365276
C46   C     C_R   0.141360 0.450063 0.826320 -0.140570
C47   C     C_R   0.290808 0.485205 0.854935 -0.064073
C48   C     C_R   0.190234 0.477033 0.707705 -0.268787
C49   C     C_3   0.046857 0.665009 0.708771 0.741371
C50   C     C_3   0.950884 0.608858 0.739887 -0.302663
C51   C     C_3   0.303375 0.316337 0.368462 0.336851
C52   C     C_3   0.296868 0.235466 0.346909 -0.381953
C53   C     C_3   0.597913 0.310993 0.130873 0.279882
C54   C     C_3   0.429216 0.275352 0.110758 -0.151959
C55   C     C_3   0.388344 0.263170 0.028697 -0.509373
C56   C     C_3   0.864624 0.201527 0.701186 -0.364647
C57   C     C_3   0.209510 0.700597 0.819033 0.259009
C58   C     C_3   0.332934 0.760840 0.851893 -0.152761
C59   C     C_3   0.449211 0.738008 0.909022 -0.479563
C60   C     C_3   0.424821 0.318514 0.725139 0.366214
C61   C     C_3   0.458818 0.298392 0.799431 -0.355681
C62   C     C_R   0.954423 0.197193 0.459211 -0.154445
H1    H     H_    0.351289 0.636676 0.270641 0.056008
H2    H     H_    0.211118 0.706646 0.188552 0.154695
H3    H     H_    0.204878 0.217948 0.300863 0.115201
H4    H     H_    0.263946 0.210933 0.393685 0.054008
H5    H     H_    0.417315 0.216987 0.330356 0.138043
H6    H     H_    0.520995 0.701961 0.285396 -0.066814
H7    H     H_    0.411795 0.687832 0.160495 0.075808
H8    H     H_    0.621066 0.663016 0.620834 0.024088
H9    H     H_    0.409589 0.671130 0.594513 0.083278
H10   H     H_    0.621992 0.781231 0.703459 0.135141
H11   H     H_    0.560220 0.787285 0.610602 0.061580
H12   H     H_    0.764644 0.416576 0.208728 -0.032542
H13   H     H_    0.409818 0.788488 0.676549 0.128917
H14   H     H_    0.371285 0.775658 0.208968 0.105584
H15   H     H_    0.898631 0.834575 0.308955 0.069981
H16   H     H_    0.832873 0.273640 0.625899 0.075925
H17   H     H_    0.027485 0.283110 0.678301 -0.066933
H18   H     H_    0.733301 0.191468 0.706175 0.155644
H19   H     H_    0.906637 0.158754 0.658921 0.069090
H20   H     H_    0.931349 0.199613 0.754036 0.107776
H21   H     H_    0.291355 0.320147 0.715465 -0.080526
H22   H     H_    0.481411 0.372317 0.725966 0.080563
H23   H     H_    0.878387 0.336519 0.203542 0.030833
H24   H     H_    0.406967 0.337894 0.842018 0.072617
H25   H     H_    0.591373 0.297526 0.812217 0.154224
H26   H     H_    0.985288 0.730444 0.364153 0.072013
H27   H     H_    0.402648 0.244808 0.799934 0.105923
H28   H     H_    0.870666 0.174866 0.413565 0.070740
H29   H     H_    0.186566 0.163543 0.605264 0.067476
H30   H     H_    0.631845 0.830189 0.384821 0.064867
H31   H     H_    0.949643 0.823522 0.576911 0.081308
H32   H     H_    0.161376 0.354623 0.522976 0.065187
H33   H     H_    0.648602 0.643958 0.476884 0.063954
H34   H     H_    0.147126 0.640161 0.677926 -0.059724
H35   H     H_    0.300605 0.085472 0.537713 0.079271
H36   H     H_    0.458575 0.001994 0.587327 0.079076
H37   H     H_    0.371627 0.875499 0.557939 0.096901
H38   H     H_    0.794115 0.714923 0.310317 -0.082661
H39   H     H_    0.112204 0.841351 0.488358 0.130059
H40   H     H_    0.517752 0.910327 0.448705 0.077787
H41   H     H_    0.359806 0.993883 0.399539 0.077738
H42   H     H_    0.446335 0.120695 0.429592 0.086840
H43   H     H_    0.703800 0.155102 0.497708 0.130740
H44   H     H_    0.708512 0.584575 0.144606 0.100729
H45   H     H_    0.841103 0.631989 0.764475 0.128783
H46   H     H_    0.311041 0.444644 0.184424 0.091690
H47   H     H_    0.497241 0.547787 0.829804 0.100148
H48   H     H_    0.063570 0.426542 0.860928 0.099807
H49   H     H_    0.626339 0.537996 0.362088 0.069889
H50   H     H_    0.087403 0.802369 0.276402 0.149982
H51   H     H_    0.150342 0.475354 0.651270 0.067373
H52   H     H_    0.902060 0.780637 0.219180 0.109440
H53   H     H_    0.687549 0.398678 0.334475 -0.008144
H54   H     H_    0.896467 0.422985 0.325217 0.020646
H55   H     H_    0.689529 0.275397 0.104272 0.039821
H56   H     H_    0.022751 0.587169 0.781907 0.004777
H57   H     H_    0.601841 0.362205 0.110146 0.030970
H58   H     H_    0.423642 0.223244 0.129363 0.125702
H59   H     H_    0.337558 0.309754 0.138733 0.131280
H60   H     H_    0.390823 0.314774 0.009112 0.162111
H61   H     H_    0.265024 0.237522 0.015916 0.145302
H62   H     H_    0.476594 0.227687 0.999630 0.133261
H63   H     H_    0.275507 0.652401 0.798345 0.022145
H64   H     H_    0.133497 0.688888 0.862826 0.047986
H65   H     H_    0.403905 0.776279 0.808255 0.143047
H66   H     H_    0.268299 0.808127 0.877544 0.114595
H67   H     H_    0.914817 0.564145 0.694695 0.103603
H68   H     H_    0.381169 0.722671 0.953645 0.137415
H69   H     H_    0.536292 0.783009 0.932444 0.139631
H70   H     H_    0.518458 0.692021 0.883860 0.148069
H71   H     H_    0.181925 0.333987 0.382852 -0.019731
H72   H     H_    0.391345 0.331812 0.416369 0.077544
N1    N     N_R   0.490394 0.525927 0.958316 -0.249345
N2    N     N_R   0.542487 0.532250 0.027881 -0.248725
N3    N     N_R   0.313170 0.466399 0.049033 -0.251485
N4    N     N_R   0.260838 0.460083 0.979207 -0.251479
O1    O     O_2   0.114910 0.675240 0.550030 -0.478717
O2    O     O_2   0.757951 0.459223 0.749465 -0.476482
O3    O     O_3   0.833599 0.326805 0.732766 -0.594632
O4    O     O_3   0.867890 0.586390 0.543600 -0.491927
O5    O     O_3   0.439510 0.461180 0.412500 -0.498739
O6    O     O_2   0.623160 0.539640 0.674980 -0.451492
O7    O     O_3   0.461999 0.657644 0.701045 -0.650589
O8    O     O_2   0.531797 0.243946 0.531523 -0.508939
O9    O     O_3   0.490703 0.268026 0.671718 -0.593770
O10   O     O_3   0.355250 0.627820 0.418550 -0.467728
O11   O     O_2   0.294024 0.755217 0.475384 -0.508631
O12   O     O_3   0.350135 0.346006 0.309367 -0.604209
O13   O     O_3   0.935402 0.694284 0.664462 -0.640631
O14   O     O_3   0.308408 0.734885 0.332604 -0.592786
O15   O     O_2   0.187140 0.460320 0.325000 -0.470864
O16   O     O_3   0.941730 0.590880 0.379870 -0.479987
O17   O     O_2   0.998532 0.523015 0.246565 -0.487614
O18   O     O_3   0.627869 0.322622 0.207261 -0.635765
O19   O     O_3   0.109012 0.722544 0.764041 -0.642810
O20   O     O_3   0.992283 0.662871 0.264417 -0.584024
O21   O     O_2   0.695400 0.324710 0.449950 -0.462675
O22   O     O_3   0.942410 0.413600 0.456340 -0.495656
O23   O     O_3   0.455050 0.372170 0.581390 -0.468319
O24   O     O_3   0.847984 0.318068 0.334375 -0.636568
O25   O     O_3   0.370790 0.538810 0.587440 -0.482439
O26   O     O_3   0.868570 0.409120 0.620070 -0.485220
P1    P     P_3+3 0.943060 0.664750 0.570190 0.968757
P2    P     P_3+3 0.360910 0.439170 0.334000 0.998244
P3    P     P_3+3 0.904337 0.585559 0.286359 0.957583
P4    P     P_3+3 0.867240 0.335250 0.429760 0.981195
P5    P     P_3+3 0.888499 0.410678 0.714246 0.953969
P6    P     P_3+3 0.393191 0.716448 0.414565 0.930996
P7    P     P_3+3 0.444472 0.564445 0.678004 0.929675
P8    P     P_3+3 0.419298 0.283352 0.586410 0.932084

loop_
_geom_bond_atom_site_label_1
_geom_bond_atom_site_label_2
_ccdc_geom_bond_type
C42   C47   A    
C5    C11   A    
C53   C54   S    
C53   H57   S    
C60   O9    S    
C61   H24   S    
Ba2   O4    S    
O24   P4    S    
C17   C18   A    
C31   H43   S    
C28   O24   S    
Ba2   O22   S    
C59   H69   S    
C53   H55   S    
C51   C52   S    
C25   C31   A    
Ba2   O5    S    
C60   H22   S    
C24   C25   A    
C60   C61   S    
C2    P4    S    
C10   C26   S    
C32   C38   D    
C43   C48   A    
C33   C35   S    
C7    C14   A    
C22   C24   A    
C32   C33   S    
C56   H20   S    
C34   H13   S    
C56   H18   S    
C55   H61   S    
C36   C37   S    
C10   C62   A    
C14   H33   S    
C52   H4    S    
Ba1   P1    S    
C57   H63   S    
C5    P8    S    
C45   O3    S    
O16   P3    S    
C44   P5    S    
C41   N2    A    
Ba1   Ba2   S    
C2    C11   A    
Ba1   O15   S    
C39   N4    A    
C59   H68   S    
O17   P3    D    
C57   O19   S    
C37   H46   S    
O10   P6    S    
C6    C7    A    
C51   H71   S    
C51   O12   S    
O20   P3    S    
C41   N3    A    
Ba2   O26   S    
C39   N1    A    
C49   H34   S    
C45   H17   S    
C57   C58   S    
C30   H42   S    
C19   C20   A    
O13   P1    S    
C9    P1    S    
C29   H41   S    
C16   H50   S    
C40   O18   S    
C51   H72   S    
C45   H16   S    
Ba2   O21   S    
C39   C47   S    
O12   P2    S    
C59   H70   S    
C53   O18   S    
C4    C16   S    
C60   H21   S    
C44   C46   A    
O1    P1    D    
O4    P1    S    
C49   C50   S    
C54   H59   S    
C6    H30   S    
C35   H44   S    
C58   H66   S    
C37   C38   D    
C3    C5    A    
C16   H15   S    
C52   H3    S    
C11   H32   S    
Ba1   P2    S    
C57   H64   S    
C4    H26   S    
O8    P8    D    
O11   P6    D    
C27   H40   S    
C58   C59   S    
C32   H49   S    
C54   H58   S    
C58   H65   S    
Ba1   O16   S    
C1    H7    S    
C35   C36   D    
C34   H11   S    
C43   P7    S    
O6    P7    D    
C9    C14   A    
C4    O20   S    
C29   C30   A    
O22   P4    S    
Ba1   O25   S    
O15   P2    D    
C17   H36   S    
C61   H25   S    
O14   P6    S    
Ba1   O10   S    
C23   O7    S    
C23   H8    S    
C15   C21   A    
C21   C26   A    
O9    P8    S    
C15   H35   S    
Ba2   O25   S    
C1    C12   S    
C34   H10   S    
Ba2   P4    S    
O21   P4    D    
C50   H56   S    
C13   C22   S    
C46   H48   S    
Ba1   O22   S    
C6    C13   A    
C33   P3    S    
C20   C22   A    
C1    H2    S    
Ba1   O5    S    
C62   H28   S    
C16   H52   S    
C55   H62   S    
C42   C43   A    
C54   C55   S    
C44   C48   A    
C46   C47   A    
C50   H67   S    
C8    H31   S    
Ba2   O23   S    
C3    H29   S    
N3    N4    A    
O7    P7    S    
C18   H37   S    
C28   H53   S    
Ba2   O6    S    
C28   H54   S    
N1    N2    A    
C2    C62   A    
C40   H12   S    
C8    C13   A    
C30   C31   A    
O3    P5    S    
C36   C41   S    
C27   C29   A    
Ba1   O4    S    
C56   H19   S    
C48   H51   S    
C45   C56   S    
C1    H14   S    
C52   H5    S    
C50   H45   S    
C49   O19   S    
C15   C17   A    
C12   H1    S    
C23   H9    S    
C4    H38   S    
C12   H6    S    
C38   P2    S    
Ba1   O1    S    
C8    C9    A    
C23   C34   S    
C19   H39   S    
C42   H47   S    
O26   P5    S    
C18   C19   A    
C24   C27   A    
C61   H27   S    
C25   C26   A    
C20   C21   A    
C28   C40   S    
C7    P6    S    
C40   H23   S    
C49   O13   S    
O23   P8    S    
O25   P7    S    
C12   O14   S    
O2    P5    D    
C55   H60   S    
O5    P2    S    
C3    C10   A    
