data_mof_unit_1654.cif
_audit_creation_date              2013-03-05T16:45:32-0500
_audit_creation_method            fapswitch 2.2
_symmetry_space_group_name_H-M    P1
_symmetry_Int_Tables_number       1
_space_group_crystal_system       triclinic
_cell_length_a                    15.812283
_cell_length_b                    10.724234
_cell_length_c                    9.937238
_cell_angle_alpha                 88.264051
_cell_angle_beta                  89.474386
_cell_angle_gamma                 91.304145
_cell_volume                      1683.81168531

loop_
_atom_site_label
_atom_site_type_symbol
_atom_site_description
_atom_site_fract_x
_atom_site_fract_y
_atom_site_fract_z
_atom_type_partial_charge
O1    O     O_R   0.500010 0.316790 0.614690 -0.602893
O2    O     O_R   0.500000 0.316760 0.385350 -0.597663
C1    C     C_R   0.505421 0.260755 0.501720 0.982860
O3    O     O_R   0.378030 0.499990 0.614640 -0.591207
O4    O     O_R   0.378020 0.499950 0.385300 -0.592007
C2    C     C_R   0.339564 0.499734 0.500532 0.911971
Zn1   Zn    Zn3+2 0.500010 0.500020 0.653130 1.074175
Zn2   Zn    Zn3+2 0.499990 0.499980 0.346870 1.107155
O5    O     O_R   0.500000 0.683240 0.614650 -0.596209
O6    O     O_R   0.499990 0.683210 0.385310 -0.575684
O7    O     O_R   0.621980 0.500050 0.614700 -0.573338
O8    O     O_R   0.621970 0.500010 0.385360 -0.554091
C3    C     C_R   0.503786 0.739916 0.497987 0.918144
C4    C     C_R   0.660429 0.500244 0.499462 0.911053
C5    C     C_R   0.955812 0.576150 0.595025 0.318743
C6    C     C_R   0.912958 0.505666 0.499036 -0.158736
C7    C     C_R   0.956865 0.436403 0.404875 0.395276
C8    C     C_R   0.044372 0.436985 0.407278 -0.184316
H1    H     H_    0.078935 0.383367 0.335060 0.245208
C9    C     C_R   0.087306 0.506201 0.502629 -0.117747
C10   C     C_R   0.044061 0.576610 0.596648 0.372452
C11   C     C_1   0.823783 0.503476 0.498021 0.188826
C12   C     C_1   0.176289 0.503631 0.502418 0.180135
C13   C     C_1   0.251169 0.501479 0.501726 0.007499
C14   C     C_1   0.748845 0.501729 0.498209 0.012574
C15   C     C_R   0.504219 0.057764 0.620710 0.028765
C16   C     C_R   0.522167 0.130327 0.505165 -0.234765
C17   C     C_R   0.557666 0.072513 0.391993 0.206017
C18   C     C_R   0.552190 0.941798 0.385629 0.214844
C19   C     C_R   0.517236 0.872148 0.496680 -0.221727
C20   C     C_R   0.503767 0.931786 0.616370 0.009753
C21   C     C_3   0.440501 0.911290 0.727261 -0.409367
C22   C     C_3   0.440382 0.053130 0.735150 0.452344
H2    H     H_    0.380225 0.868970 0.691319 0.217376
H3    H     H_    0.468306 0.862529 0.816206 0.249113
C23   C     C_R   0.427822 0.473181 0.072727 0.041244
N1    N     N_R   0.499440 0.499140 0.142800 -0.175596
C24   C     C_R   0.566556 0.549823 0.068370 0.413230
C25   C     C_R   0.565481 0.552793 0.924966 0.376662
N2    N     N_R   0.499440 0.499180 0.857150 -0.175845
C26   C     C_R   0.427076 0.476496 0.931302 0.031190
C27   C     C_3   0.366762 0.367716 0.926684 0.061014
C28   C     C_3   0.372063 0.358804 0.081317 0.056543
H4    H     H_    0.393367 0.289300 0.872833 0.155281
H5    H     H_    0.405441 0.274979 0.119900 0.172894
Cl1   Cl    Cl    0.100056 0.664887 0.715579 -0.355749
N3    N     N_R   0.474985 0.095790 0.862478 0.192052
O9    O     O_R   0.438161 0.061525 0.975724 -0.310898
O10   O     O_R   0.542238 0.168045 0.864083 -0.333638
Cl2   Cl    Cl    0.654909 0.617483 0.146131 -0.353431
Cl3   Cl    Cl    0.644947 0.640537 0.837090 -0.394845
N4    N     N_R   0.283081 0.401868 0.876979 0.271104
O11   O     O_R   0.266482 0.516593 0.841729 -0.288212
O12   O     O_R   0.223516 0.316668 0.871007 -0.235345
N5    N     N_R   0.292071 0.379204 0.152174 0.263346
O13   O     O_R   0.259874 0.291075 0.230952 -0.319023
O14   O     O_R   0.255334 0.486633 0.144474 -0.300114
Cl4   Cl    Cl    0.899202 0.663075 0.713048 -0.352391
Cl5   Cl    Cl    0.904090 0.347790 0.283363 -0.384678
N6    N     N_R   0.598632 0.144985 0.285057 0.246749
O15   O     O_R   0.658057 0.225965 0.312468 -0.322830
O16   O     O_R   0.578774 0.127875 0.160178 -0.236755
N7    N     N_R   0.583551 0.882225 0.269058 0.255487
O17   O     O_R   0.531178 0.852000 0.174570 -0.287357
O18   O     O_R   0.664257 0.888316 0.242353 -0.240337
N8    N     N_R   0.356766 0.103642 0.705816 0.182031
O19   O     O_R   0.294499 0.079776 0.789824 -0.257276
O20   O     O_R   0.341122 0.160381 0.591495 -0.389042

loop_
_geom_bond_atom_site_label_1
_geom_bond_atom_site_label_2
_geom_bond_distance
_ccdc_geom_bond_type
O4    Zn2   1.962619 S    
N8    O20   1.300823 A    
N5    O13   1.300475 A    
C18   N7    1.429917 S    
N1    C24   1.379766 A    
C24   Cl2   1.755849 S    
C26   C27   1.491973 S    
C15   C22   1.512566 S    
C25   Cl3   1.761582 S    
N3    O9    1.301416 A    
C9    C12   1.407894 S    
O8    C4    1.291601 A    
C19   C20   1.384445 A    
Zn2   O8    1.969774 S    
C2    C13   1.398220 S    
C21   C22   1.525554 S    
C1    C16   1.428945 S    
O2    C1    1.291285 A    
C23   C26   1.404911 A    
C15   C20   1.352867 A    
N3    O10   1.301970 A    
N5    O14   1.302524 A    
N4    O11   1.302149 A    
N6    O16   1.300211 A    
Zn1   O7    1.962619 S    
C28   H5    1.112718 S    
C15   C16   1.390800 A    
C18   C19   1.414668 A    
C27   H4    1.099897 S    
C23   N1    1.362593 A    
C7    Cl5   1.763362 S    
O3    Zn1   1.969774 S    
O4    C2    1.291507 A    
C28   N5    1.465969 S    
N2    C26   1.368364 A    
C5    Cl4   1.769395 S    
N4    O12   1.300233 A    
C22   N8    1.468534 S    
C7    C8    1.383978 A    
C8    C9    1.393259 A    
C17   N6    1.437804 S    
C4    C14   1.397719 S    
C24   C25   1.424691 A    
C22   N3    1.464931 S    
O7    C4    1.291516 A    
N7    O18   1.300838 A    
O3    C2    1.291705 A    
C6    C7    1.401047 A    
Zn2   N1    2.028283 S    
C12   C13   1.184742 T    
C5    C6    1.404502 A    
C21   H3    1.112456 S    
C3    C19   1.428795 S    
C5    C10   1.395559 A    
N8    O19   1.300905 A    
C9    C10   1.401846 A    
Zn2   O6    2.013112 S    
C10   Cl1   1.767977 S    
C27   C28   1.539867 S    
C25   N2    1.372683 A    
Zn1   O5    1.990358 S    
C8    H1    1.084643 S    
O5    C3    1.292821 A    
C17   C18   1.405894 A    
C23   C28   1.494080 S    
C6    C11   1.409868 S    
O1    C1    1.292340 A    
C21   H2    1.112801 S    
O1    Zn1   2.013111 S    
Zn1   N2    2.027079 S    
O6    C3    1.291505 A    
O2    Zn2   1.990356 S    
C20   C21   1.489453 S    
C27   N4    1.466990 S    
N6    O15   1.301230 A    
C16   C17   1.418007 A    
C11   C14   1.184636 T    
N7    O17   1.301156 A    
