data_mof_unit_1904.cif
_audit_creation_date              2012-12-11T16:14:40-0500
_audit_creation_method            fapswitch 2.2
_symmetry_space_group_name_H-M    P1
_symmetry_Int_Tables_number       1
_space_group_crystal_system       triclinic
_cell_length_a                    8.439756
_cell_length_b                    14.968937
_cell_length_c                    17.413592
_cell_angle_alpha                 96.797393
_cell_angle_beta                  95.934181
_cell_angle_gamma                 98.777526
_cell_volume                      2142.28829597

loop_
_atom_site_label
_atom_site_type_symbol
_atom_type_description
_atom_site_fract_x
_atom_site_fract_y
_atom_site_fract_z
_atom_type_partial_charge
Ba1   Ba    Ba6+2 0.159600 0.544390 0.464780 1.621990
Ba2   Ba    Ba6+2 0.650580 0.455600 0.535150 1.628296
C1    C     C_3   0.502036 0.833038 0.200991 0.143595
C2    C     C_R   0.890988 0.791382 0.518548 0.088626
C3    C     C_R   0.073593 0.235517 0.524241 -0.079256
C4    C     C_3   0.005528 0.787594 0.286206 0.459841
C5    C     C_R   0.166042 0.173386 0.552172 0.046447
C6    C     C_R   0.103807 0.080765 0.542814 -0.188532
C7    C     C_R   0.945341 0.046815 0.506081 0.014692
C8    C     C_R   0.854322 0.110106 0.473333 -0.037081
C9    C     C_R   0.875563 0.951697 0.499931 0.006022
C10   C     C_R   0.713432 0.922541 0.463987 -0.023334
C11   C     C_R   0.628924 0.986082 0.432123 -0.087997
C12   C     C_3   0.449623 0.769298 0.261675 0.469730
C13   C     C_R   0.699949 0.076282 0.433817 -0.032817
C14   C     C_R   0.961020 0.884194 0.527887 -0.148901
C15   C     C_R   0.731563 0.765360 0.484357 -0.299903
C16   C     C_3   0.074817 0.871553 0.250829 -0.283654
C17   C     C_R   0.919841 0.205526 0.481164 0.043533
C18   C     C_R   0.594758 0.536261 0.280354 -0.306913
C19   C     C_R   0.439775 0.488276 0.253616 0.057009
C20   C     C_R   0.384643 0.474112 0.172081 0.084489
C21   C     C_R   0.486195 0.510985 0.120173 0.003095
C22   C     C_R   0.643787 0.555101 0.148215 -0.140087
C23   C     C_3   0.558952 0.735401 0.645447 0.319364
C24   C     C_R   0.698933 0.565243 0.227917 0.051739
C25   C     C_R   0.420718 0.523558 0.836145 -0.119076
C26   C     C_R   0.365825 0.516161 0.756731 0.091169
C27   C     C_R   0.103889 0.436874 0.778174 -0.013980
C28   C     C_3   0.717518 0.340973 0.300531 0.313613
C29   C     C_R   0.158076 0.444583 0.858303 -0.122975
C30   C     C_R   0.318085 0.486672 0.887204 0.001930
C31   C     C_1   0.377423 0.494568 0.969197 0.013769
C32   C     C_1   0.428762 0.502038 0.037635 0.027127
C33   C     C_R   0.210129 0.470419 0.728286 -0.202037
C34   C     C_3   0.561032 0.838405 0.661579 -0.110156
C35   C     C_3   0.662509 0.312793 0.212782 -0.183001
C36   C     C_3   0.029870 0.674896 0.714286 0.361923
C37   C     C_3   0.019097 0.707279 0.800812 -0.106149
C38   C     C_3   0.196997 0.256398 0.330725 0.427087
C39   C     C_3   0.117028 0.170900 0.273230 0.150646
C40   C     C_3   0.919548 0.217761 0.740036 0.468401
C41   C     C_3   0.820286 0.144293 0.677752 -0.312258
C42   C     C_3   0.374128 0.193231 0.735179 0.486238
C43   C     C_3   0.445651 0.148128 0.802863 -0.115114
C44   C     C_R   0.641878 0.829300 0.457607 0.003898
H1    H     H_    0.099299 0.774104 0.819514 0.121800
H2    H     H_    0.715345 0.108276 0.701448 0.126438
H3    H     H_    0.247379 0.158839 0.716660 -0.042578
H4    H     H_    0.094848 0.775437 0.333596 0.113480
H5    H     H_    0.675655 0.694559 0.479545 0.072475
H6    H     H_    0.506639 0.966969 0.403716 0.124454
H7    H     H_    0.081744 0.901202 0.558052 0.088938
H8    H     H_    0.541259 0.559326 0.858227 0.073848
H9    H     H_    0.724527 0.579880 0.108046 0.093810
H10   H     H_    0.076691 0.418274 0.897583 0.090719
H11   H     H_    0.166845 0.468215 0.667717 0.042004
H12   H     H_    0.063090 0.657667 0.837192 0.083683
H13   H     H_    0.130910 0.927820 0.297689 0.070733
H14   H     H_    0.806874 0.405344 0.311008 0.058573
H15   H     H_    0.366960 0.658814 0.177875 0.118560
H16   H     H_    0.296311 0.649892 0.263081 0.210847
H17   H     H_    0.660222 0.238316 0.196115 0.115907
H18   H     H_    0.536789 0.324794 0.198686 0.113158
H19   H     H_    0.885793 0.355494 0.180320 0.201056
H20   H     H_    0.732539 0.338459 0.107268 0.188240
H21   H     H_    0.266051 0.721834 0.717875 0.194141
H22   H     H_    0.195142 0.626787 0.654083 0.169446
H23   H     H_    0.212482 0.130798 0.256994 0.074735
H24   H     H_    0.942396 0.611082 0.694190 0.083684
H25   H     H_    0.783921 0.652231 0.805365 0.206077
H26   H     H_    0.811176 0.758604 0.779311 0.253357
H27   H     H_    0.101720 0.293215 0.351292 0.045031
H28   H     H_    0.373800 0.190186 0.375184 0.178337
H29   H     H_    0.353277 0.285583 0.430941 0.218288
H30   H     H_    0.694681 0.766189 0.180397 0.204504
H31   H     H_    0.538038 0.741127 0.108802 0.160487
H32   H     H_    0.015499 0.140566 0.159299 0.166667
H33   H     H_    0.931497 0.216808 0.212783 0.201021
H34   H     H_    0.555194 0.740086 0.284716 -0.047728
H35   H     H_    0.058309 0.083755 0.351999 0.163576
H36   H     H_    0.938911 0.059541 0.267302 0.168951
H37   H     H_    0.603424 0.965451 0.196948 0.181617
H38   H     H_    0.693912 0.918221 0.268289 0.195672
H39   H     H_    0.675806 0.721630 0.627385 0.006888
H40   H     H_    0.461398 0.708714 0.596836 0.047727
H41   H     H_    0.803633 0.885596 0.679749 0.180020
H42   H     H_    0.693168 0.951148 0.728626 0.172245
H43   H     H_    0.977782 0.894927 0.213836 0.101691
H44   H     H_    0.028736 0.247489 0.714938 -0.043770
H45   H     H_    0.555155 0.867712 0.605888 0.046887
H46   H     H_    0.872845 0.152667 0.834819 0.179625
H47   H     H_    0.025023 0.120147 0.789825 0.136042
H48   H     H_    0.306142 0.298847 0.803504 0.165613
H49   H     H_    0.497063 0.321135 0.781548 0.214826
H50   H     H_    0.436148 0.148126 0.919417 0.184453
H51   H     H_    0.258198 0.112137 0.864806 0.184329
H52   H     H_    0.575671 0.177930 0.818273 0.133416
H53   H     H_    0.438022 0.073728 0.783667 0.064269
H54   H     H_    0.167332 0.353478 0.484624 0.190043
H55   H     H_    0.073806 0.367668 0.567394 0.200859
H56   H     H_    0.452587 0.851335 0.689404 0.103779
H57   H     H_    0.183210 0.037303 0.564793 0.069424
H58   H     H_    0.629599 0.119109 0.404215 0.109043
H59   H     H_    0.890792 0.863772 0.358731 0.140438
H60   H     H_    0.816424 0.752710 0.347079 0.136148
H61   H     H_    0.175793 0.383199 0.179031 0.216574
H62   H     H_    0.154905 0.464235 0.121087 0.201446
H63   H     H_    0.639591 0.544501 0.341732 0.069697
H64   H     H_    0.166710 0.855013 0.213382 0.135898
H65   H     H_    0.610833 0.352591 0.329708 0.030642
H66   H     H_    0.392202 0.842995 0.164176 0.097227
H67   H     H_    0.776692 0.175799 0.626770 0.141083
H68   H     H_    0.895301 0.093193 0.658681 0.037095
N1    N     N_3   0.322784 0.695289 0.223360 -0.469780
N2    N     N_3   0.706283 0.883493 0.712381 -0.487508
N3    N     N_3   0.973553 0.176920 0.808276 -0.492054
N4    N     N_3   0.378966 0.290852 0.759033 -0.493155
N5    N     N_3   0.362196 0.161864 0.871691 -0.508355
N6    N     N_3   0.144744 0.329589 0.536818 -0.472899
N7    N     N_3   0.858867 0.805856 0.317408 -0.540556
N8    N     N_3   0.231249 0.420059 0.139385 -0.489461
N9    N     N_3   0.766908 0.365247 0.166083 -0.506721
N10   N     N_3   0.191614 0.658227 0.710234 -0.543409
N11   N     N_3   0.856076 0.716484 0.816567 -0.488560
N12   N     N_3   0.288224 0.227390 0.396270 -0.533407
N13   N     N_3   0.607121 0.794086 0.148709 -0.513402
N14   N     N_3   0.041800 0.197872 0.202001 -0.485771
N15   N     N_3   0.997011 0.113627 0.309221 -0.515542
N16   N     N_3   0.581670 0.923259 0.239764 -0.483712
O1    O     O_2   0.167760 0.722240 0.545330 -0.472155
O2    O     O_2   0.777968 0.448702 0.771486 -0.482069
O3    O     O_3   0.821494 0.281990 0.763112 -0.574263
O4    O     O_3   0.895630 0.608830 0.542770 -0.491011
O5    O     O_3   0.421020 0.453750 0.407560 -0.493971
O6    O     O_2   0.649640 0.543870 0.686710 -0.461235
O7    O     O_3   0.531342 0.695520 0.713058 -0.646416
O8    O     O_2   0.480329 0.174833 0.527298 -0.480493
O9    O     O_3   0.468006 0.180357 0.674024 -0.599520
O10   O     O_3   0.383340 0.666720 0.405900 -0.489041
O11   O     O_2   0.313540 0.826618 0.463145 -0.494900
O12   O     O_3   0.303989 0.310503 0.291901 -0.659174
O13   O     O_3   0.004458 0.743829 0.668867 -0.651345
O14   O     O_3   0.386090 0.820211 0.321237 -0.613341
O15   O     O_2   0.160650 0.456070 0.313260 -0.471299
O16   O     O_3   0.956180 0.620960 0.366010 -0.498549
O17   O     O_2   0.015842 0.544920 0.226914 -0.474699
O18   O     O_3   0.972166 0.712610 0.226800 -0.591723
O19   O     O_2   0.642530 0.277700 0.454650 -0.472913
O20   O     O_3   0.914670 0.391160 0.457170 -0.503789
O21   O     O_3   0.426950 0.333280 0.594040 -0.415277
O22   O     O_3   0.785875 0.270739 0.330427 -0.645437
O23   O     O_3   0.389270 0.546240 0.592370 -0.484376
O24   O     O_3   0.854110 0.379030 0.633930 -0.486746
P1    P     P_3+3 0.994810 0.708030 0.567580 0.968435
P2    P     P_3+3 0.329370 0.428660 0.324010 0.948184
P3    P     P_3+3 0.911385 0.610279 0.263818 0.953559
P4    P     P_3+3 0.815490 0.291960 0.432360 0.967890
P5    P     P_3+3 0.892786 0.388472 0.736388 0.966636
P6    P     P_3+3 0.432112 0.785384 0.412806 0.918115
P7    P     P_3+3 0.483121 0.576524 0.689280 0.943596
P8    P     P_3+3 0.381601 0.214253 0.588791 1.002907

loop_
_geom_bond_atom_site_label_1
_geom_bond_atom_site_label_2
_ccdc_geom_bond_type
C42   H3    S    
Ba2   O20   S    
O7    P7    S    
H33   N14   S    
C36   H24   S    
H42   N2    S    
C37   N11   S    
C38   O12   S    
C1    N16   S    
C36   O13   S    
C41   H67   S    
H50   N5    S    
Ba1   O15   S    
H32   N14   S    
H21   N10   S    
C15   H5    S    
C25   H8    S    
C5    C6    A    
C27   P5    S    
O16   P3    S    
C22   H9    S    
C10   C11   A    
Ba2   O4    S    
C40   O3    S    
C39   H23   S    
C22   C24   A    
C8    C13   A    
C41   H68   S    
C36   C37   S    
C1    N13   S    
C12   N1    S    
C38   H27   S    
C24   P3    S    
C34   H56   S    
Ba1   Ba2   S    
H26   N11   S    
Ba1   P1    S    
C14   H7    S    
C35   N9    S    
O15   P2    D    
C28   O22   S    
C29   C30   A    
C26   C33   A    
C6    C7    A    
C28   H14   S    
H15   N1    S    
C40   H44   S    
C21   C22   A    
H54   N6    S    
C12   H34   S    
C13   H58   S    
O14   P6    S    
C7    C8    A    
C8    C17   A    
H31   N13   S    
C43   N5    S    
Ba2   O19   S    
C38   N12   S    
Ba2   O24   S    
C19   C20   A    
H55   N6    S    
C39   N14   S    
H22   N10   S    
Ba1   O16   S    
H47   N3    S    
C2    C14   A    
C35   H17   S    
C26   P7    S    
C20   N8    S    
O22   P4    S    
O6    P7    D    
H49   N4    S    
C4    C16   S    
C5    P8    S    
C12   O14   S    
O2    P5    D    
C3    N6    S    
C15   C44   A    
H37   N16   S    
C10   C44   A    
C43   H53   S    
C3    C5    A    
C16   H43   S    
C37   H12   S    
Ba2   O6    S    
O5    P2    S    
C28   C35   S    
O23   P7    S    
O3    P5    S    
H51   N5    S    
Ba1   P2    S    
C23   O7    S    
H46   N3    S    
C11   H6    S    
C4    O18   S    
C9    C14   A    
O11   P6    D    
H35   N15   S    
O4    P1    S    
C42   N4    S    
C1    H66   S    
Ba2   P4    S    
O21   P8    S    
C44   P6    S    
C23   H39   S    
C31   C32   T    
H59   N7    S    
Ba1   O20   S    
O8    P8    D    
C4    H4    S    
H36   N15   S    
Ba1   O23   S    
C7    C9    A    
O19   P4    D    
H41   N2    S    
Ba1   O10   S    
C2    C15   A    
C34   H45   S    
C38   C39   S    
Ba2   O23   S    
C11   C13   A    
C29   H10   S    
C40   C41   S    
Ba1   O4    S    
C34   N2    S    
C35   H18   S    
C42   C43   S    
C37   H1    S    
C41   H2    S    
Ba2   O21   S    
C21   C32   S    
O20   P4    S    
C25   C30   A    
H20   N9    S    
C17   P4    S    
O9    P8    S    
C16   H64   S    
H62   N8    S    
Ba1   O1    S    
O13   P1    S    
C9    C10   A    
C40   N3    S    
C3    C17   A    
C1    C12   S    
C42   O9    S    
C27   C33   A    
Ba2   O5    S    
C4    N7    S    
C28   H65   S    
C33   H11   S    
H29   N12   S    
C30   C31   S    
O1    P1    D    
C43   H52   S    
O24   P5    S    
C27   C29   A    
O10   P6    S    
C39   N15   S    
H48   N4    S    
H28   N12   S    
C18   C24   A    
H60   N7    S    
H38   N16   S    
C23   H40   S    
C19   P2    S    
O18   P3    S    
H19   N9    S    
C6    H57   S    
C23   C34   S    
C18   H63   S    
C16   H13   S    
H16   N1    S    
C2    P1    S    
C18   C19   A    
C25   C26   A    
H30   N13   S    
C20   C21   A    
H25   N11   S    
H61   N8    S    
O12   P2    S    
Ba1   O5    S    
C36   N10   S    
O17   P3    D    
