data_mof_unit_715.cif
_audit_creation_date              2013-03-05T16:00:22-0500
_audit_creation_method            fapswitch 2.2
_symmetry_space_group_name_H-M    P1
_symmetry_Int_Tables_number       1
_space_group_crystal_system       triclinic
_cell_length_a                    14.720868
_cell_length_b                    14.521748
_cell_length_c                    14.330042
_cell_angle_alpha                 77.673645
_cell_angle_beta                  102.537502
_cell_angle_gamma                 114.528128
_cell_volume                      2694.09416104

loop_
_atom_site_label
_atom_site_type_symbol
_atom_site_description
_atom_site_fract_x
_atom_site_fract_y
_atom_site_fract_z
_atom_type_partial_charge
O1    O     O_R   0.977910 0.338120 0.530560 -0.559095
O2    O     O_R   0.022090 0.661880 0.469440 -0.548291
O3    O     O_R   0.839850 0.379180 0.491410 -0.533845
O4    O     O_R   0.160150 0.620820 0.508590 -0.547477
C1    C     C_R   0.880108 0.311396 0.512769 0.836920
C2    C     C_R   0.119629 0.688155 0.486297 0.840366
O5    O     O_R   0.069040 0.479460 0.643530 -0.570385
O6    O     O_R   0.930960 0.520540 0.356470 -0.578616
O7    O     O_R   0.930990 0.520530 0.604380 -0.570138
O8    O     O_R   0.069010 0.479470 0.395620 -0.564397
C3    C     C_R   0.000338 0.500337 0.668887 0.806412
C4    C     C_R   0.000072 0.500378 0.331053 0.777951
Cu1   Cu    Cu3+1 0.081740 0.475690 0.523180 0.946527
Cu2   Cu    Cu3+1 0.918260 0.524310 0.476820 0.944808
C5    C     C_1   0.000942 0.501100 0.771172 -0.204964
C6    C     C_1   0.000347 0.501282 0.228606 -0.206998
C7    C     C_1   0.001135 0.501766 0.856497 -0.010915
C8    C     C_1   0.000683 0.501932 0.143107 -0.018721
C9    C     C_1   0.001157 0.502292 0.957033 -0.003729
C10   C     C_1   0.001014 0.502343 0.042432 -0.003573
C11   C     C_R   0.811372 0.201871 0.521398 -0.276413
C12   C     C_R   0.187842 0.796744 0.480912 -0.254543
C13   C     C_R   0.779993 0.022489 0.572890 -0.216703
C14   C     C_R   0.223009 0.976219 0.427173 -0.215971
C15   C     C_R   0.847885 0.123036 0.553808 0.378017
C16   C     C_R   0.158890 0.874030 0.422493 0.386863
C17   C     C_R   0.706115 0.176029 0.498383 0.339798
C18   C     C_R   0.285689 0.823131 0.533527 0.337763
C19   C     C_R   0.637472 0.076080 0.527801 -0.033685
C20   C     C_R   0.358366 0.923516 0.516238 -0.050418
C21   C     C_R   0.675260 0.997232 0.557557 -0.094594
C22   C     C_R   0.322661 0.002211 0.474800 -0.085137
C23   C     C_R   0.531975 0.051430 0.522875 0.014467
C24   C     C_R   0.464414 0.947658 0.534892 0.003456
C25   C     C_R   0.504263 0.871238 0.555305 -0.233069
C26   C     C_R   0.491603 0.127207 0.508089 -0.249988
C27   C     C_R   0.607509 0.894344 0.568630 0.348273
C28   C     C_R   0.388726 0.104717 0.479198 0.334035
H1    H     H_    0.810808 0.964408 0.600244 0.208684
H2    H     H_    0.197065 0.034549 0.386124 0.202516
H3    H     H_    0.456605 0.791710 0.555165 0.222599
H4    H     H_    0.538565 0.204750 0.520236 0.219748
N1    N     N_R   0.795420 0.560790 0.441960 -0.198867
N2    N     N_R   0.204580 0.439210 0.558040 -0.199061
C29   C     C_R   0.707665 0.650749 0.327738 -0.246359
C30   C     C_R   0.291746 0.345391 0.667108 -0.233117
C31   C     C_R   0.794409 0.632006 0.363992 0.070838
C32   C     C_R   0.206153 0.367088 0.634994 0.058480
C33   C     C_R   0.715044 0.511231 0.490692 0.090524
C34   C     C_R   0.282943 0.487705 0.506896 0.128591
C35   C     C_R   0.627982 0.535434 0.463666 -0.031144
C36   C     C_R   0.370057 0.463712 0.530841 -0.014097
C37   C     C_R   0.622272 0.599199 0.375063 0.016153
C38   C     C_R   0.375468 0.395621 0.617304 0.037808
C39   C     C_R   0.545073 0.493679 0.517385 -0.076282
C40   C     C_R   0.452651 0.507378 0.475471 -0.075375
C41   C     C_R   0.445163 0.561158 0.379485 0.390008
C42   C     C_R   0.552341 0.441327 0.613106 0.341888
C43   C     C_R   0.530001 0.604763 0.330138 0.340144
C44   C     C_R   0.465624 0.382750 0.656627 0.369307
H5    H     H_    0.276352 0.547736 0.451774 0.169068
H6    H     H_    0.718845 0.449504 0.546052 0.199194
H7    H     H_    0.142049 0.329401 0.673892 0.151158
H8    H     H_    0.859292 0.669751 0.326516 0.136573
H9    H     H_    0.706909 0.703240 0.261600 0.179244
H10   H     H_    0.292804 0.291587 0.732099 0.171169
N3    N     N_R   0.640902 0.811400 0.584750 0.096499
O9    O     O_R   0.597040 0.728227 0.641252 -0.423467
O10   O     O_R   0.697948 0.809721 0.527832 -0.410809
N4    N     N_R   0.353017 0.186525 0.457387 0.103131
O11   O     O_R   0.409895 0.277254 0.420647 -0.407617
O12   O     O_R   0.270290 0.174629 0.486042 -0.412856
O13   O     O_3   0.350861 0.554683 0.329219 -0.631090
C45   C     C_3   0.345140 0.650178 0.284286 0.065900
H11   H     H_    0.263637 0.636729 0.268730 0.157738
H12   H     H_    0.370300 0.673119 0.212377 0.196312
C46   C     C_3   0.397879 0.738452 0.345972 -0.391385
H13   H     H_    0.370331 0.714616 0.416781 0.216516
H14   H     H_    0.480853 0.760186 0.358545 0.245400
C47   C     C_3   0.376489 0.832739 0.295749 -0.899219
H15   H     H_    0.400818 0.857189 0.223201 0.260107
H16   H     H_    0.418705 0.896576 0.339067 0.263944
H17   H     H_    0.294694 0.815985 0.288146 0.244691
O14   O     O_3   0.644439 0.447967 0.667173 -0.649105
C48   C     C_3   0.675436 0.519019 0.733273 0.098082
H18   H     H_    0.691687 0.479567 0.806504 0.168459
H19   H     H_    0.617648 0.548844 0.737030 0.173029
C49   C     C_3   0.772039 0.608781 0.707776 -0.318682
H20   H     H_    0.829781 0.579446 0.704463 0.228841
H21   H     H_    0.755914 0.650325 0.635686 0.269270
C50   C     C_3   0.814212 0.682818 0.782228 -0.863971
H22   H     H_    0.758143 0.713951 0.786547 0.285152
H23   H     H_    0.883555 0.747349 0.760852 0.257593
H24   H     H_    0.833772 0.643453 0.854404 0.241321
O15   O     O_3   0.307630 0.750911 0.604256 -0.606631
C51   C     C_3   0.296530 0.766001 0.694521 0.062237
H25   H     H_    0.222407 0.771274 0.691705 0.128240
H26   H     H_    0.358906 0.837010 0.717082 0.157712
C52   C     C_3   0.301459 0.675343 0.769431 -0.297730
H27   H     H_    0.242315 0.603450 0.745484 0.239742
H28   H     H_    0.376285 0.671101 0.775809 0.228239
C53   C     C_3   0.285254 0.684966 0.867973 -0.947917
H29   H     H_    0.346225 0.754054 0.895386 0.256661
H30   H     H_    0.286104 0.616527 0.919882 0.266827
H31   H     H_    0.211104 0.690143 0.862953 0.262583
O16   O     O_3   0.671100 0.248504 0.443362 -0.604460
C54   C     C_3   0.664209 0.243838 0.344607 0.087761
H32   H     H_    0.605521 0.169340 0.325221 0.143771
H33   H     H_    0.738098 0.253537 0.326913 0.120197
C55   C     C_3   0.634493 0.330460 0.285185 -0.304470
H34   H     H_    0.560461 0.321411 0.301293 0.245929
H35   H     H_    0.691785 0.404916 0.305502 0.234422
C56   C     C_3   0.627066 0.331304 0.177203 -0.940717
H36   H     H_    0.701038 0.342611 0.159230 0.260109
H37   H     H_    0.605335 0.394998 0.136479 0.253193
H38   H     H_    0.568969 0.258203 0.154798 0.262508
O17   O     O_3   0.066797 0.851700 0.363339 -0.605351
C57   C     C_3   0.072272 0.821547 0.277563 0.074037
H39   H     H_    0.993915 0.779920 0.244100 0.157326
H40   H     H_    0.110745 0.767028 0.291514 0.104269
C58   C     C_3   0.122645 0.914308 0.204901 -0.385333
H41   H     H_    0.083340 0.967737 0.191813 0.230521
H42   H     H_    0.202886 0.955185 0.234274 0.217280
C59   C     C_3   0.119095 0.881640 0.109329 -0.899722
H43   H     H_    0.159174 0.829111 0.120859 0.252769
H44   H     H_    0.156538 0.950053 0.058454 0.260299
H45   H     H_    0.039656 0.842553 0.076605 0.256286
O18   O     O_3   0.949935 0.142213 0.568245 -0.599483
C60   C     C_3   0.982709 0.156614 0.478161 0.108590
H46   H     H_    0.064002 0.207719 0.485010 0.201067
H47   H     H_    0.943642 0.195854 0.417909 0.110627
C61   C     C_3   0.971483 0.055052 0.452044 -0.348827
H48   H     H_    0.019160 0.021723 0.507606 0.245366
H49   H     H_    0.891701 0.000214 0.449824 0.234453
C62   C     C_3   0.002943 0.070617 0.353300 -0.870881
H50   H     H_    0.953753 0.100778 0.296496 0.243203
H51   H     H_    0.995227 0.996480 0.336316 0.288844
H52   H     H_    0.082590 0.125200 0.352764 0.278194
O19   O     O_3   0.521802 0.649219 0.234776 -0.629269
C63   C     C_3   0.493223 0.573308 0.174575 0.044844
H53   H     H_    0.415518 0.516065 0.182977 0.186548
H54   H     H_    0.546462 0.533306 0.191813 0.144075
C64   C     C_3   0.494746 0.624150 0.069638 -0.343517
H55   H     H_    0.442696 0.665165 0.051408 0.222395
H56   H     H_    0.572258 0.680905 0.060467 0.225611
C65   C     C_3   0.462824 0.545800 0.000564 -0.903640
H57   H     H_    0.514685 0.504722 0.016815 0.256224
H58   H     H_    0.465551 0.585378 0.925195 0.264012
H59   H     H_    0.384508 0.489665 0.006797 0.258151
O20   O     O_3   0.474021 0.327590 0.747663 -0.626391
C66   C     C_3   0.487860 0.238177 0.741899 0.106412
H60   H     H_    0.542231 0.226699 0.805796 0.170495
H61   H     H_    0.520873 0.242859 0.677060 0.144021
C67   C     C_3   0.387503 0.145749 0.745441 -0.364534
H62   H     H_    0.352816 0.144165 0.807668 0.224645
H63   H     H_    0.335191 0.152589 0.678170 0.254659
C68   C     C_3   0.401666 0.045568 0.756104 -0.925068
H64   H     H_    0.437600 0.045248 0.695804 0.263075
H65   H     H_    0.326962 0.980924 0.755277 0.253064
H66   H     H_    0.449553 0.034539 0.825526 0.255278

loop_
_geom_bond_atom_site_label_1
_geom_bond_atom_site_label_2
_geom_bond_distance
_ccdc_geom_bond_type
C64   C65   1.526471 S    
C39   C40   1.438851 A    
C28   N4    1.440130 S    
C68   H64   1.108481 S    
C17   C19   1.418234 A    
O13   C45   1.427224 S    
C26   H4    1.077650 S    
O15   C51   1.410794 S    
C63   C64   1.527661 S    
O18   C60   1.419262 S    
C57   H40   1.114935 S    
C37   C43   1.398311 A    
C62   H50   1.110850 S    
C38   C44   1.396484 A    
C46   H13   1.107259 S    
O5    C3    1.306877 A    
C45   H12   1.107569 S    
C18   O15   1.384476 S    
O1    C1    1.306672 A    
C25   C27   1.391751 A    
C15   O18   1.385455 S    
C14   C16   1.396287 A    
C65   H57   1.111087 S    
C46   C47   1.526648 S    
O16   C54   1.410846 S    
C42   C44   1.399882 A    
C64   H55   1.111608 S    
C2    C12   1.472362 S    
C51   C52   1.527378 S    
C19   C23   1.430590 A    
C23   C26   1.413442 A    
C40   C41   1.435631 A    
C53   H31   1.110864 S    
C5    C7    1.224196 T    
C24   C25   1.410197 A    
C66   C67   1.530936 S    
C41   O13   1.393277 S    
O4    Cu1   1.927335 S    
C57   H39   1.109307 S    
C58   C59   1.526166 S    
C7    C9    1.442261 S    
C55   H34   1.111580 S    
C3    C5    1.466232 S    
C64   H56   1.112013 S    
C4    C6    1.466193 S    
C61   H48   1.111624 S    
C33   C35   1.420030 A    
C45   C46   1.544963 S    
C51   H26   1.112791 S    
C34   C36   1.418653 A    
C66   H60   1.110958 S    
C16   O17   1.383849 S    
N4    O11   1.301327 A    
C22   C28   1.406092 A    
C67   H63   1.110178 S    
C60   C61   1.532650 S    
C29   C31   1.383745 A    
C11   C17   1.413749 A    
C29   C37   1.404475 A    
C68   H65   1.110261 S    
C12   C18   1.408412 A    
Cu1   Cu2   2.692172 S    
C66   H61   1.116132 S    
C54   H33   1.115586 S    
O2    C2    1.303659 A    
C47   H17   1.109973 S    
O2    Cu2   1.945029 S    
C36   C38   1.420805 A    
C65   H58   1.110439 S    
C48   H19   1.117990 S    
C30   C32   1.383698 A    
C45   H11   1.111423 S    
C20   C24   1.426830 A    
N3    O9    1.301239 A    
O14   C48   1.417308 S    
C67   C68   1.525240 S    
O4    C2    1.296992 A    
C50   H22   1.110599 S    
N1    C33   1.357468 A    
C32   H7    1.081693 S    
C17   O16   1.383731 S    
C48   H18   1.111223 S    
C21   C27   1.408006 A    
C35   C37   1.411709 A    
C57   C58   1.534806 S    
C13   C21   1.406299 A    
O7    Cu2   1.787871 S    
C14   C22   1.405650 A    
C42   O14   1.383834 S    
C50   H23   1.110392 S    
C65   H59   1.111275 S    
C52   H27   1.110990 S    
C49   C50   1.525667 S    
C43   O19   1.383894 S    
O6    C4    1.306603 A    
C51   H25   1.116722 S    
C30   C38   1.404849 A    
C23   C24   1.417348 A    
C67   H62   1.111578 S    
C46   H14   1.110263 S    
C6    C8    1.224296 T    
C44   O20   1.387374 S    
C63   H53   1.114233 S    
C53   H30   1.109890 S    
O7    C3    1.306044 A    
C55   C56   1.525151 S    
C58   H41   1.111521 S    
C56   H36   1.111008 S    
C62   H52   1.110283 S    
O8    C4    1.306280 A    
C59   H45   1.110885 S    
C47   H16   1.109424 S    
C52   H28   1.111603 S    
C49   H21   1.110786 S    
C68   H66   1.110626 S    
C29   H9    1.083261 S    
C54   C55   1.528590 S    
O1    Cu1   1.945028 S    
C54   H32   1.114468 S    
C31   H8    1.078632 S    
C59   H44   1.110352 S    
C60   H46   1.111406 S    
C48   C49   1.529090 S    
N2    C34   1.354983 A    
C62   H51   1.108854 S    
C11   C15   1.410937 A    
O6    Cu2   1.789149 S    
C33   H6    1.074587 S    
C63   H54   1.115965 S    
C47   H15   1.110676 S    
O3    C1    1.300304 A    
O8    Cu1   1.787867 S    
C8    C10   1.442470 S    
O19   C63   1.414153 S    
C30   H10   1.082212 S    
O3    Cu2   1.927335 S    
C56   H38   1.110813 S    
C9    C10   1.224383 T    
C18   C20   1.413171 A    
C19   C21   1.421167 A    
O17   C57   1.418183 S    
C50   H24   1.111012 S    
C20   C22   1.417151 A    
C61   C62   1.526049 S    
C13   H1    1.081726 S    
C27   N3    1.438521 S    
C26   C28   1.395143 A    
C14   H2    1.080602 S    
C35   C39   1.429691 A    
C13   C15   1.393597 A    
C53   H29   1.110862 S    
C25   H3    1.074073 S    
C55   H35   1.111663 S    
C58   H42   1.110605 S    
C41   C43   1.412931 A    
N2    C32   1.352566 A    
C60   H47   1.116865 S    
O5    Cu1   1.789152 S    
C52   C53   1.526004 S    
C1    C11   1.484234 S    
C49   H20   1.110410 S    
C61   H49   1.110219 S    
C12   C16   1.408257 A    
C39   C42   1.424611 A    
C34   H5    1.065966 S    
O20   C66   1.416674 S    
Cu2   N1    2.022467 S    
N4    O12   1.301415 A    
N3    O10   1.301514 A    
N1    C31   1.352884 A    
Cu1   N2    2.022467 S    
C36   C40   1.440094 A    
C59   H43   1.111213 S    
C56   H37   1.110213 S    
