data_mof_unit_1290.cif
_audit_creation_date              2012-12-10T20:49:49-0500
_audit_creation_method            fapswitch 2.2
_symmetry_space_group_name_H-M    P1
_symmetry_Int_Tables_number       1
_space_group_crystal_system       triclinic
_cell_length_a                    8.115988
_cell_length_b                    8.927483
_cell_length_c                    16.924432
_cell_angle_alpha                 89.989236
_cell_angle_beta                  83.304648
_cell_angle_gamma                 90.200136
_cell_volume                      1217.89491409

loop_
_atom_site_label
_atom_site_type_symbol
_atom_type_description
_atom_site_fract_x
_atom_site_fract_y
_atom_site_fract_z
_atom_type_partial_charge
C1    C     C_R   0.500225 0.781974 0.499816 0.959904
C2    C     C_R   0.486604 0.645675 0.226969 0.121785
C3    C     C_R   0.482209 0.646075 0.857667 -0.153011
C4    C     C_R   0.513142 0.663041 0.145244 -0.173488
C5    C     C_R   0.427727 0.520097 0.902531 0.085204
C6    C     C_R   0.601046 0.554527 0.098629 0.050199
C7    C     C_R   0.369870 0.393570 0.865649 -0.182337
C8    C     C_R   0.672194 0.432543 0.133086 -0.224564
C9    C     C_R   0.379294 0.387939 0.783260 0.113712
C10   C     C_R   0.647258 0.413602 0.215007 0.132823
C11   C     C_2   0.442208 0.516184 0.987732 0.146037
C12   C     C_R   0.499856 0.218029 0.499854 0.957838
C13   C     C_2   0.588916 0.553593 0.013831 0.103349
C14   C     C_3   0.812940 0.726373 0.971385 -0.751912
C15   C     C_3   0.152622 0.541905 0.041711 -0.767740
C16   C     C_1   0.500322 0.934811 0.499716 -0.110770
C17   C     C_1   0.499804 0.065217 0.499736 -0.113178
C18   C     C_R   0.474444 0.499842 0.652931 0.924568
C19   C     C_R   0.525682 0.501303 0.346976 0.917717
C20   C     C_R   0.451663 0.508589 0.738230 -0.126278
C21   C     C_R   0.550291 0.518450 0.261867 -0.129725
C22   C     C_R   0.500031 0.639307 0.775516 0.119387
H1    H     H_    0.323752 0.297370 0.900607 0.182138
H2    H     H_    0.052714 0.484249 0.080869 0.254778
H3    H     H_    0.113877 0.548830 0.981063 0.252406
H4    H     H_    0.169432 0.656575 0.065084 0.246784
H5    H     H_    0.737819 0.347835 0.096030 0.164610
H6    H     H_    0.458199 0.756975 0.117456 0.166604
H7    H     H_    0.518313 0.747126 0.886527 0.173621
H8    H     H_    0.816147 0.495806 0.955425 0.235848
H9    H     H_    0.915376 0.744693 0.922841 0.255361
H10   H     H_    0.864754 0.728222 0.029290 0.247570
H11   H     H_    0.722613 0.819257 0.970081 0.247708
H12   H     H_    0.328426 0.420536 0.095337 0.253099
I1    I     I_    0.604559 0.828817 0.712202 -0.303036
I2    I     I_    0.350398 0.816721 0.292688 -0.307461
I3    I     I_    0.745926 0.217650 0.262906 -0.315288
I4    I     I_    0.292685 0.191212 0.730702 -0.308791
N1    N     N_1   0.926360 0.500000 0.499990 -0.004606
N2    N     N_1   0.073640 0.500000 0.500010 -0.004228
N3    N     N_2   0.733669 0.583792 0.959820 -0.303973
N4    N     N_2   0.305146 0.458493 0.040233 -0.313664
O1    O     O_R   0.363150 0.714660 0.500000 -0.604640
O2    O     O_R   0.636850 0.285340 0.500000 -0.606978
O3    O     O_R   0.636850 0.714660 0.500000 -0.606887
O4    O     O_R   0.363150 0.285340 0.500000 -0.607235
O5    O     O_R   0.346950 0.500000 0.615800 -0.603984
O6    O     O_R   0.653050 0.500000 0.384200 -0.602270
O7    O     O_R   0.620700 0.500000 0.615800 -0.599215
O8    O     O_R   0.379300 0.500000 0.384200 -0.598783
Zn1   Zn    Zn3+2 0.317220 0.500000 0.500010 1.055336
Zn2   Zn    Zn3+2 0.682780 0.500000 0.499990 1.055655

loop_
_geom_bond_atom_site_label_1
_geom_bond_atom_site_label_2
_ccdc_geom_bond_type
C12   C17   S    
C2    C4    A    
H8    N3    S    
C19   C21   S    
N2    Zn1   S    
C5    C7    A    
C9    C20   A    
H12   N4    S    
C14   H9    S    
C3    C5    A    
O7    Zn2   S    
C1    O3    A    
C18   O5    A    
O2    Zn2   S    
C2    C21   A    
C13   N3    S    
N1    Zn2   S    
C12   O2    A    
C1    C16   S    
C6    C13   S    
C22   I1    S    
C11   C13   D    
C19   O8    A    
O1    Zn1   S    
C14   H11   S    
C14   N3    S    
C7    H1    S    
C8    C10   A    
C9    I4    S    
C4    H6    S    
C20   C22   A    
C5    C11   S    
C18   C20   S    
C10   I3    S    
C10   C21   A    
C15   H3    S    
C7    C9    A    
O6    Zn2   S    
C15   N4    S    
C11   N4    S    
C4    C6    A    
C2    I2    S    
N1    N2    T    
C3    H7    S    
C8    H5    S    
C19   O6    A    
C15   H2    S    
C15   H4    S    
C6    C8    A    
O3    Zn2   S    
O8    Zn1   S    
O4    Zn1   S    
C1    O1    A    
O5    Zn1   S    
C18   O7    A    
C14   H10   S    
C16   C17   T    
C3    C22   A    
C12   O4    A    
