data_mof_unit_2904.cif
_audit_creation_date              2013-03-05T15:53:42-0500
_audit_creation_method            fapswitch 2.2
_symmetry_space_group_name_H-M    P1
_symmetry_Int_Tables_number       1
_space_group_crystal_system       triclinic
_cell_length_a                    12.941279
_cell_length_b                    13.236799
_cell_length_c                    27.677264
_cell_angle_alpha                 94.665825
_cell_angle_beta                  90.070207
_cell_angle_gamma                 118.857202
_cell_volume                      4134.20144754

loop_
_atom_site_label
_atom_site_type_symbol
_atom_site_description
_atom_site_fract_x
_atom_site_fract_y
_atom_site_fract_z
_atom_type_partial_charge
O1    O     O_R   0.296680 0.802170 0.437540 -0.496667
O2    O     O_R   0.525380 0.838530 0.443500 -0.490238
C1    C     C_R   0.628277 0.896334 0.427275 0.540718
O3    O     O_R   0.702130 0.995190 0.446810 -0.525584
O4    O     O_R   0.661770 0.181390 0.458760 -0.485075
C2    C     C_R   0.571094 0.169258 0.433241 0.565515
O5    O     O_R   0.499820 0.198480 0.455280 -0.500667
O6    O     O_R   0.311660 0.976250 0.449080 -0.512917
C3    C     C_R   0.268542 0.876448 0.425741 0.550412
O7    O     O_R   0.297580 0.804960 0.544440 -0.496179
O8    O     O_R   0.526220 0.841130 0.542590 -0.510139
C4    C     C_R   0.626602 0.899015 0.565214 0.538632
O9    O     O_R   0.703030 0.997990 0.553710 -0.504910
O10   O     O_R   0.662610 0.183990 0.557860 -0.495566
C5    C     C_R   0.599946 0.222397 0.579636 0.548465
O11   O     O_R   0.500730 0.201280 0.562180 -0.522413
O12   O     O_R   0.312500 0.978850 0.548170 -0.494080
C6    C     C_R   0.327625 0.902791 0.569618 0.562643
Cr1   Cr    Cr6+3 0.416430 0.829200 0.492370 1.039929
Cr2   Cr    Cr6+3 0.674630 0.087020 0.504170 1.023984
Cr3   Cr    Cr6+3 0.408920 0.083740 0.503490 1.021353
O13   O     O_3   0.499990 0.999990 0.500010 -0.294256
C7    C     C_1   0.592249 0.197467 0.383919 -0.008257
C8    C     C_R   0.726029 0.254820 0.269511 -0.087736
C9    C     C_R   0.744074 0.280028 0.220764 0.230860
C10   C     C_R   0.552100 0.272188 0.216596 -0.152246
C11   C     C_R   0.534872 0.245739 0.264747 -0.112888
C12   C     C_R   0.622608 0.239027 0.291567 -0.002968
C13   C     C_R   0.656687 0.291102 0.194513 0.023862
C14   C     C_1   0.677884 0.335598 0.147484 0.011930
C15   C     C_1   0.606901 0.217069 0.341925 -0.048698
C16   C     C_1   0.696002 0.379323 0.109626 0.020316
H1    H     H_    0.792805 0.247951 0.290431 0.147591
H2    H     H_    0.485015 0.281305 0.196943 0.119424
H3    H     H_    0.454201 0.233048 0.281376 0.129171
C17   C     C_R   0.188156 0.754297 0.349480 -0.093853
C18   C     C_R   0.188033 0.750701 0.299090 -0.006261
C19   C     C_R   0.174856 0.743850 0.197976 -0.036458
C20   C     C_R   0.186125 0.657760 0.219696 -0.095668
C21   C     C_R   0.193149 0.659770 0.270182 0.223258
C22   C     C_R   0.156665 0.734292 0.148065 -0.117215
H4    H     H_    0.152528 0.659926 0.126676 0.146754
H5    H     H_    0.179699 0.681549 0.367494 0.200318
H6    H     H_    0.188785 0.588168 0.197174 0.165774
C23   C     C_R   0.128363 0.810728 0.126589 -0.001460
C24   C     C_R   0.207168 0.946351 0.356022 -0.136013
C25   C     C_R   0.189632 0.937911 0.305725 0.017743
C26   C     C_R   0.184697 0.842017 0.277084 0.024849
C27   C     C_R   0.182195 0.025763 0.283406 -0.128956
C28   C     C_R   0.166543 0.017342 0.233033 -0.128414
C29   C     C_R   0.162140 0.922910 0.204345 0.023276
C30   C     C_R   0.175207 0.836967 0.226469 0.051748
C31   C     C_R   0.137723 0.908753 0.154262 -0.130434
C32   C     C_R   0.211508 0.856262 0.377642 -0.021566
H7    H     H_    0.117868 0.969137 0.137594 0.127343
H8    H     H_    0.157142 0.084153 0.216554 0.122827
H9    H     H_    0.186612 0.099963 0.304960 0.121454
H10   H     H_    0.222925 0.024688 0.377852 0.130594
C33   C     C_R   0.743561 0.952478 0.354778 -0.129288
C34   C     C_R   0.747028 0.941224 0.304842 0.002912
C35   C     C_R   0.744708 0.923048 0.203911 0.007541
C36   C     C_R   0.825370 0.026390 0.230408 -0.113613
C37   C     C_R   0.827294 0.035156 0.280737 -0.133014
C38   C     C_R   0.748208 0.911761 0.153878 -0.116832
H11   H     H_    0.812709 0.984518 0.135822 0.155249
H12   H     H_    0.804469 0.034987 0.374230 0.142748
H13   H     H_    0.888578 0.099297 0.212204 0.181835
H14   H     H_    0.890378 0.115788 0.300776 0.136481
C39   C     C_R   0.680328 0.803491 0.127866 -0.005195
C40   C     C_R   0.577592 0.757237 0.353310 -0.112113
C41   C     C_R   0.584209 0.742253 0.302990 0.017786
C42   C     C_R   0.665461 0.836699 0.278593 0.059103
C43   C     C_R   0.508219 0.636767 0.276316 -0.084221
C44   C     C_R   0.509658 0.626305 0.225743 -0.124324
C45   C     C_R   0.587436 0.721199 0.201319 0.004808
C46   C     C_R   0.665130 0.827146 0.227913 0.062017
C47   C     C_R   0.595072 0.710085 0.151083 -0.133398
C48   C     C_R   0.653704 0.864409 0.378798 -0.008142
H15   H     H_    0.542003 0.626375 0.130883 0.132220
H16   H     H_    0.450847 0.543860 0.205794 0.126172
H17   H     H_    0.448113 0.562283 0.294502 0.176267
H18   H     H_    0.509855 0.688493 0.372095 0.161052
C49   C     C_R   0.732926 0.291306 0.654230 -0.134836
C50   C     C_R   0.745233 0.305817 0.704935 0.008472
C51   C     C_R   0.768490 0.339277 0.806663 0.006538
C52   C     C_R   0.865095 0.353374 0.779358 -0.132073
C53   C     C_R   0.853285 0.335933 0.728750 -0.130849
C54   C     C_R   0.782319 0.368973 0.856671 -0.135480
H19   H     H_    0.869268 0.404946 0.874343 0.133697
H20   H     H_    0.806206 0.299325 0.632839 0.127265
H21   H     H_    0.950378 0.380601 0.797064 0.113105
H22   H     H_    0.929182 0.348457 0.708238 0.114835
C55   C     C_R   0.687394 0.364991 0.882674 -0.005951
C56   C     C_R   0.528659 0.249894 0.658990 -0.133597
C57   C     C_R   0.538119 0.259532 0.709148 0.004951
C58   C     C_R   0.646947 0.288612 0.732387 0.056086
C59   C     C_R   0.439663 0.238943 0.736309 -0.129484
C60   C     C_R   0.450200 0.252047 0.786701 -0.126971
C61   C     C_R   0.559647 0.287300 0.810237 0.009810
C62   C     C_R   0.657942 0.303179 0.783135 0.056834
C63   C     C_R   0.574597 0.315819 0.860090 -0.131924
C64   C     C_R   0.624428 0.262686 0.631199 -0.005047
H23   H     H_    0.500649 0.309970 0.880464 0.132037
H24   H     H_    0.374018 0.238793 0.807181 0.111255
H25   H     H_    0.355019 0.214271 0.718575 0.107883
H26   H     H_    0.443527 0.225369 0.641709 0.139343
C65   C     C_1   0.301084 0.896382 0.620015 -0.016931
C66   C     C_R   0.306491 0.834132 0.742434 -0.105937
C67   C     C_R   0.278271 0.821447 0.791174 -0.105478
C68   C     C_R   0.163410 0.920061 0.783334 -0.106657
C69   C     C_R   0.191587 0.932697 0.734626 -0.104640
C70   C     C_R   0.261365 0.887865 0.713809 0.039072
C71   C     C_R   0.205135 0.862834 0.811556 0.036319
C72   C     C_1   0.162338 0.835856 0.859443 -0.059272
C73   C     C_1   0.282724 0.892834 0.662744 -0.061289
C74   C     C_1   0.119142 0.807704 0.898032 -0.016515
H27   H     H_    0.360837 0.799410 0.726768 0.119987
H28   H     H_    0.310413 0.776316 0.812473 0.114807
H29   H     H_    0.156560 0.974758 0.712915 0.108831
C75   C     C_1   0.639038 0.867938 0.612364 -0.011677
C76   C     C_R   0.637573 0.916212 0.738876 -0.113427
C77   C     C_R   0.639327 0.903782 0.788513 -0.111016
C78   C     C_R   0.649937 0.726669 0.770279 -0.106407
C79   C     C_R   0.648243 0.739123 0.720656 -0.106588
C80   C     C_R   0.643335 0.834585 0.704901 0.030294
C81   C     C_R   0.646316 0.809336 0.804310 0.031128
C82   C     C_1   0.660916 0.801628 0.855143 -0.058875
C83   C     C_1   0.642926 0.849535 0.654049 -0.058815
C84   C     C_1   0.681065 0.792524 0.896594 -0.010922
H30   H     H_    0.632987 0.990072 0.727005 0.121363
H31   H     H_    0.637559 0.968728 0.814470 0.119169
H32   H     H_    0.656473 0.653839 0.782167 0.119331
H33   H     H_    0.652079 0.675270 0.694718 0.117987
O14   O     O_R   0.820790 0.857990 0.068830 -0.515257
O15   O     O_R   0.016700 0.827330 0.062850 -0.501224
C85   C     C_R   0.065512 0.772671 0.079064 0.546066
O16   O     O_R   0.041970 0.673520 0.060040 -0.513290
O17   O     O_R   0.817980 0.483660 0.048840 -0.477829
C86   C     C_R   0.716427 0.440021 0.066946 0.545820
O18   O     O_R   0.637200 0.461990 0.052510 -0.519612
O19   O     O_R   0.664790 0.681920 0.057970 -0.503243
C87   C     C_R   0.719785 0.782509 0.080728 0.547261
O20   O     O_R   0.815840 0.852920 0.961840 -0.504390
O21   O     O_R   0.012100 0.822630 0.963670 -0.494183
C88   C     C_R   0.058113 0.767075 0.941599 0.545869
O22   O     O_R   0.037010 0.668460 0.953040 -0.511770
O23   O     O_R   0.813390 0.478970 0.949660 -0.504329
C89   C     C_R   0.710081 0.431983 0.929758 0.546592
O24   O     O_R   0.632250 0.456930 0.945520 -0.516439
O25   O     O_R   0.660200 0.677230 0.958780 -0.494047
C90   C     C_R   0.716055 0.776824 0.943279 0.547261
Cr4   Cr    Cr6+3 0.914010 0.832750 0.013970 1.033890
Cr5   Cr    Cr6+3 0.922310 0.578600 0.003000 1.041511
Cr6   Cr    Cr6+3 0.656280 0.574630 0.003870 1.024550
O26   O     O_3   0.830870 0.661990 0.006950 -0.247085
N1    N     N_R   0.851622 0.296416 0.199139 0.061421
O27   O     O_R   0.945366 0.325399 0.226427 -0.323108
O28   O     O_R   0.853836 0.271920 0.152785 -0.353386
H34   H     H_    0.106075 0.951642 0.798542 0.112749
N2    N     N_R   0.211193 0.572626 0.290913 0.067935
O29   O     O_R   0.284078 0.600353 0.328203 -0.396495
O30   O     O_R   0.173316 0.471215 0.267259 -0.303993

loop_
_geom_bond_atom_site_label_1
_geom_bond_atom_site_label_2
_geom_bond_distance
_ccdc_geom_bond_type
C22   H4    1.084696 S    
O11   Cr3   2.066573 S    
C49   C64   1.402289 A    
C78   H32   1.083974 S    
C40   C48   1.402503 A    
C43   C44   1.396356 A    
C39   C47   1.404679 A    
C57   C58   1.406977 A    
C50   C53   1.402012 A    
C76   H30   1.084219 S    
C42   C46   1.397880 A    
C88   O22   1.265761 A    
O15   C85   1.271682 A    
C25   C27   1.402817 A    
O4    Cr2   1.903488 S    
C51   C52   1.403218 A    
C4    O9    1.270395 A    
O8    Cr1   1.928344 S    
C10   C11   1.396300 A    
C81   C82   1.437667 S    
C36   H13   1.082800 S    
C34   C37   1.400003 A    
O4    C2    1.303560 A    
C17   C18   1.391562 A    
C69   C70   1.400871 A    
C84   C90   1.432074 S    
C18   C21   1.419033 A    
C52   H21   1.083590 S    
C33   H12   1.084581 S    
C74   C88   1.436944 S    
O19   Cr6   1.942609 S    
C19   C30   1.406267 A    
C34   C42   1.407550 A    
O15   Cr4   1.924808 S    
C27   H9    1.083596 S    
C66   C67   1.400069 A    
C55   C89   1.459632 S    
C69   H29   1.083456 S    
C50   C58   1.413478 A    
C6    C65   1.436327 S    
C45   C46   1.410200 A    
C4    C75   1.431387 S    
C10   H2    1.083869 S    
C56   H26   1.084520 S    
O23   C89   1.271806 A    
O6    C3    1.273794 A    
C80   C83   1.437495 S    
C40   C41   1.399327 A    
Cr5   O26   1.967787 S    
C67   C71   1.402020 A    
C59   H25   1.083863 S    
O20   C90   1.266772 A    
C23   C31   1.404036 A    
C33   C34   1.381130 A    
C63   H23   1.084751 S    
C44   H16   1.083643 S    
C53   H22   1.083535 S    
C24   H10   1.084215 S    
C9    N1    1.440203 S    
C56   C57   1.383517 A    
O23   Cr5   1.946629 S    
C33   C48   1.404505 A    
C43   H17   1.082538 S    
C67   H28   1.083490 S    
C59   C60   1.389706 A    
C31   H7    1.084261 S    
C35   C46   1.410786 A    
C9    C13   1.415496 A    
O1    Cr1   2.050190 S    
C44   C45   1.402598 A    
C29   C30   1.412973 A    
C25   C26   1.414777 A    
O10   Cr2   1.939821 S    
C78   C79   1.397936 A    
Cr1   O13   1.971506 S    
O1    C3    1.266277 A    
C8    C9    1.408888 A    
C19   C22   1.386273 A    
C55   C63   1.399874 A    
C20   C21   1.397399 A    
C41   C43   1.402441 A    
C52   C53   1.396898 A    
O21   C88   1.272400 A    
C78   C81   1.403081 A    
C28   C29   1.402069 A    
C39   C87   1.455879 S    
O5    Cr3   2.019883 S    
O12   Cr3   1.903879 S    
C66   C70   1.402187 A    
C29   C31   1.398536 A    
C7    C15   1.206782 T    
C77   C81   1.400085 A    
C35   C38   1.383860 A    
O24   Cr6   2.062490 S    
C82   C84   1.204493 T    
C76   C80   1.403514 A    
C13   C14   1.444306 S    
O14   C87   1.268567 A    
C49   C50   1.399222 A    
Cr4   O26   1.971039 S    
O7    Cr1   2.037115 S    
C86   O18   1.265363 A    
O14   Cr4   2.045350 S    
C24   C32   1.401383 A    
C36   C37   1.387532 A    
C75   C83   1.204307 T    
O12   C6    1.300575 A    
Cr6   O26   1.977617 S    
C47   H15   1.084318 S    
O16   Cr5   2.064516 S    
C68   C69   1.399049 A    
C24   C25   1.396897 A    
C38   C39   1.399736 A    
C89   O24   1.269869 A    
C18   C26   1.415604 A    
C45   C47   1.394883 A    
C68   C71   1.401996 A    
C65   C73   1.206755 T    
C76   C77   1.398298 A    
C2    O5    1.296082 A    
C16   C86   1.435616 S    
C79   H33   1.083558 S    
O17   Cr5   1.907277 S    
O20   Cr4   2.037796 S    
C61   C63   1.388481 A    
Cr2   O13   1.978104 S    
C60   C61   1.399482 A    
C1    O3    1.262740 A    
C77   H31   1.083627 S    
C71   C72   1.441802 S    
C51   C54   1.394686 A    
C49   H20   1.084237 S    
C54   C55   1.405600 A    
N1    O27   1.300283 A    
C23   C85   1.462724 S    
O9    Cr2   2.020791 S    
O2    Cr1   1.922624 S    
O10   C5    1.276195 A    
C66   H27   1.083610 S    
C21   N2    1.442807 S    
C12   C15   1.441494 S    
C8    C12   1.400134 A    
C85   O16   1.262454 A    
O6    Cr3   1.947970 S    
C72   C74   1.207134 T    
O8    C4    1.275115 A    
C57   C59   1.401189 A    
C20   H6    1.084219 S    
C37   H14   1.083857 S    
C8    H1    1.083263 S    
C61   C62   1.412417 A    
C11   H3    1.083716 S    
N2    O29   1.300531 A    
N1    O28   1.301256 A    
O2    C1    1.278362 A    
C41   C42   1.412347 A    
O21   Cr4   1.924992 S    
C51   C62   1.409371 A    
O19   C87   1.274316 A    
C38   H11   1.085060 S    
C14   C16   1.206701 T    
C19   C20   1.397458 A    
O22   Cr5   2.024481 S    
O7    C6    1.296245 A    
C60   H24   1.083826 S    
C2    C7    1.436328 S    
C58   C62   1.399714 A    
N2    O30   1.300731 A    
C5    C64   1.460615 S    
C35   C36   1.398308 A    
C40   H18   1.083920 S    
C28   H8    1.083628 S    
C17   C32   1.398250 A    
O17   C86   1.275894 A    
O3    Cr2   2.056588 S    
C26   C30   1.399446 A    
C54   H19   1.084294 S    
C56   C64   1.406178 A    
C10   C13   1.402847 A    
C27   C28   1.396246 A    
O25   Cr6   1.901003 S    
C11   C12   1.397909 A    
C22   C23   1.402183 A    
O25   C90   1.271788 A    
C17   H5    1.079048 S    
C3    C32   1.462130 S    
Cr3   O13   1.967560 S    
C1    C48   1.459488 S    
C70   C73   1.441093 S    
C68   H34   1.083524 S    
C5    O11   1.261050 A    
O18   Cr6   2.017013 S    
C79   C80   1.399255 A    
