data_mof_unit_3050.cif
_audit_creation_date              2012-12-10T18:46:19-0500
_audit_creation_method            fapswitch 2.2
_symmetry_space_group_name_H-M    P1
_symmetry_Int_Tables_number       1
_space_group_crystal_system       triclinic
_cell_length_a                    9.843054
_cell_length_b                    10.713395
_cell_length_c                    13.119282
_cell_angle_alpha                 90.093504
_cell_angle_beta                  69.727822
_cell_angle_gamma                 89.942296
_cell_volume                      1297.76251983

loop_
_atom_site_label
_atom_site_type_symbol
_atom_type_description
_atom_site_fract_x
_atom_site_fract_y
_atom_site_fract_z
_atom_type_partial_charge
C1    C     C_R   0.499979 0.740112 0.500072 0.867158
C2    C     C_R   0.365873 0.511018 0.822836 -0.123841
C3    C     C_R   0.608831 0.935968 0.524513 -0.182603
C4    C     C_R   0.419370 0.505163 0.704435 0.855837
C5    C     C_R   0.608966 0.063862 0.524334 -0.188883
C6    C     C_R   0.500151 0.127419 0.499852 -0.016010
C7    C     C_R   0.391292 0.063952 0.475437 -0.193733
C8    C     C_R   0.391195 0.936069 0.475565 -0.186623
C9    C     C_R   0.499966 0.872526 0.500085 -0.010128
C10   C     C_R   0.956571 0.416029 0.438410 -0.056180
C11   C     C_R   0.100464 0.416100 0.438381 -0.065920
C12   C     C_R   0.430007 0.521117 0.985172 0.093155
C13   C     C_R   0.043540 0.584186 0.561349 -0.077549
C14   C     C_R   0.899841 0.584370 0.561072 -0.040749
C15   C     C_R   0.500049 0.259874 0.499913 0.868697
C16   C     C_R   0.580824 0.503469 0.295416 0.900440
C17   C     C_R   0.766525 0.644662 0.019670 -0.226324
C18   C     C_R   0.630462 0.525315 0.178646 -0.117344
C19   C     C_R   0.235009 0.452132 0.881381 -0.193015
C20   C     C_R   0.198426 0.432244 0.992237 -0.113995
C21   C     C_R   0.296213 0.463034 0.043634 -0.167836
C22   C     C_R   0.455243 0.558739 0.877414 0.095794
C23   C     C_R   0.539712 0.543372 0.029723 0.087200
C24   C     C_R   0.660333 0.619367 0.973798 0.138931
C25   C     C_R   0.671926 0.670891 0.873760 -0.240271
C26   C     C_R   0.570454 0.641188 0.826096 -0.199685
C27   C     C_R   0.533900 0.489992 0.127644 -0.285022
C28   C     C_R   0.751058 0.600618 0.123144 0.153995
H1    H     H_    0.693081 0.112601 0.544084 0.156398
H2    H     H_    0.450277 0.423890 0.168847 0.151560
H3    H     H_    0.163614 0.417559 0.840803 0.160096
H4    H     H_    0.262774 0.443423 0.129449 0.138854
H5    H     H_    0.096713 0.387800 0.037624 0.155569
H6    H     H_    0.582043 0.684368 0.749046 0.150626
H7    H     H_    0.692818 0.887145 0.544438 0.150794
H8    H     H_    0.307244 0.112749 0.455579 0.152454
H9    H     H_    0.307091 0.887331 0.455797 0.161439
H10   H     H_    0.924922 0.348998 0.389078 0.127473
H11   H     H_    0.177802 0.349066 0.389015 0.119369
H12   H     H_    0.075267 0.651481 0.610437 0.122896
H13   H     H_    0.823149 0.652273 0.609481 0.113357
H14   H     H_    0.760784 0.732515 0.831425 0.139303
H15   H     H_    0.858440 0.703078 0.977012 0.161776
I1    I     I_    0.908160 0.661778 0.189843 -0.387321
N1    N     N_R   0.142790 0.500030 0.500030 -0.076536
N2    N     N_R   0.857180 0.499940 0.500010 -0.071135
O1    O     O_R   0.385370 0.683250 0.500010 -0.626060
O2    O     O_R   0.614700 0.683220 0.500010 -0.619091
O3    O     O_R   0.328400 0.499990 0.653620 -0.612194
O4    O     O_R   0.557730 0.499960 0.653620 -0.610945
O5    O     O_R   0.385300 0.316780 0.499990 -0.627553
O6    O     O_R   0.614630 0.316750 0.499990 -0.625184
O7    O     O_R   0.442270 0.500040 0.346380 -0.612979
O8    O     O_R   0.671600 0.500010 0.346380 -0.582161
Zn1   Zn    Zn3+2 0.346870 0.500020 0.500000 0.947729
Zn2   Zn    Zn3+2 0.653130 0.499980 0.500000 0.965968

loop_
_geom_bond_atom_site_label_1
_geom_bond_atom_site_label_2
_ccdc_geom_bond_type
C25   H14   S    
C10   N2    A    
C2    C4    S    
C23   C24   A    
C17   H15   S    
C1    O2    A    
C2    C22   A    
C6    C7    A    
C3    C9    A    
C15   O5    A    
C8    H9    S    
C7    H8    S    
C5    H1    S    
C19   C20   A    
C3    H7    S    
C4    O3    A    
C10   H10   S    
C19   H3    S    
C16   O8    A    
C6    C15   S    
C1    C9    S    
C7    C8    A    
C14   N2    A    
O3    Zn1   S    
C15   O6    A    
C24   C25   A    
C27   H2    S    
C13   N1    A    
C12   C23   A    
C14   H13   S    
C20   H5    S    
O1    Zn1   S    
C28   I1    S    
O5    Zn1   S    
C23   C27   A    
O7    Zn1   S    
C5    C6    A    
C11   H11   S    
C21   H4    S    
O8    Zn2   S    
C11   N1    A    
C17   C24   A    
C10   C11   A    
C12   C22   A    
C18   C28   A    
C20   C21   A    
N1    Zn1   S    
C16   C18   S    
C22   C26   A    
N2    Zn2   S    
C2    C19   A    
O2    Zn2   S    
C16   O7    A    
C1    O1    A    
C13   H12   S    
C25   C26   A    
C13   C14   A    
C17   C28   A    
C12   C21   A    
C26   H6    S    
O4    Zn2   S    
C18   C27   A    
O6    Zn2   S    
C4    O4    A    
C8    C9    A    
C3    C5    A    
