data_mof_unit_902.cif
_audit_creation_date              2012-12-11T15:48:09-0500
_audit_creation_method            fapswitch 2.2
_symmetry_space_group_name_H-M    P1
_symmetry_Int_Tables_number       1
_space_group_crystal_system       triclinic
_cell_length_a                    6.916293
_cell_length_b                    17.817544
_cell_length_c                    19.370674
_cell_angle_alpha                 108.376259
_cell_angle_beta                  89.441632
_cell_angle_gamma                 90.608844
_cell_volume                      2265.17031238

loop_
_atom_site_label
_atom_site_type_symbol
_atom_type_description
_atom_site_fract_x
_atom_site_fract_y
_atom_site_fract_z
_atom_type_partial_charge
O1    O     O_R   0.494330 0.415710 0.413720 -0.544168
O2    O     O_R   0.819360 0.430070 0.560210 -0.548529
O3    O     O_R   0.994320 0.584290 0.586280 -0.532228
C1    C     C_R   0.650018 0.415704 0.582128 0.766194
O4    O     O_R   0.823740 0.406290 0.412670 -0.515556
O5    O     O_R   0.998730 0.560340 0.437690 -0.524910
C2    C     C_R   0.654576 0.382168 0.385316 0.753042
O6    O     O_R   0.489920 0.439660 0.562310 -0.549345
O7    O     O_3   0.662330 0.550570 0.508380 -0.353189
V1    V     V_3+5 0.935370 0.490620 0.498440 1.582392
O8    O     O_R   0.328720 0.569930 0.439790 -0.537893
C3    C     C_R   0.160231 0.585038 0.418092 0.744317
O9    O     O_R   0.324340 0.593710 0.587330 -0.519824
C4    C     C_R   0.154702 0.616731 0.615111 0.714442
V2    V     V_3+5 0.435940 0.509380 0.501560 1.582767
O10   O     O_3   0.159110 0.449430 0.491620 -0.377693
C5    C     C_R   0.274697 0.747876 0.697625 0.192259
C6    C     C_R   0.278552 0.806714 0.766267 0.162517
C7    C     C_R   0.125690 0.811586 0.817706 -0.195048
C8    C     C_R   0.985999 0.748984 0.802766 -0.088434
C9    C     C_R   0.001211 0.684215 0.737771 -0.147831
C10   C     C_R   0.142136 0.684324 0.684076 -0.184503
C11   C     C_R   0.093952 0.601788 0.295435 0.093960
C12   C     C_R   0.151806 0.634183 0.368539 -0.136863
C13   C     C_R   0.200500 0.714673 0.394952 -0.163996
C14   C     C_R   0.190003 0.763728 0.349957 0.020665
C15   C     C_R   0.154010 0.728396 0.274893 0.018517
C16   C     C_R   0.125494 0.645286 0.246322 0.017402
C17   C     C_R   0.221919 0.846520 0.377559 -0.072520
C18   C     C_R   0.206883 0.894025 0.331322 0.146289
C19   C     C_R   0.153855 0.859305 0.256907 0.005272
C20   C     C_R   0.148062 0.775710 0.228011 -0.002408
C21   C     C_R   0.143301 0.738925 0.151800 0.037829
C22   C     C_R   0.141381 0.656097 0.124181 -0.153561
C23   C     C_R   0.133820 0.609384 0.169910 0.192752
C24   C     C_R   0.113675 0.904322 0.209242 -0.076356
C25   C     C_R   0.118602 0.867429 0.132648 -0.189933
C26   C     C_R   0.151507 0.785497 0.104759 0.132046
H1    H     H_    0.236182 0.739007 0.451957 0.154651
H2    H     H_    0.146365 0.626069 0.066311 0.189255
C27   C     C_R   0.759227 0.199085 0.881612 -0.057368
C28   C     C_R   0.617220 0.137884 0.870574 -0.200671
C29   C     C_R   0.473653 0.129266 0.816196 -0.025917
C30   C     C_R   0.469388 0.182301 0.775386 0.075662
C31   C     C_R   0.621754 0.237376 0.781175 0.051507
C32   C     C_R   0.767417 0.247887 0.835061 -0.033703
C33   C     C_R   0.314383 0.180633 0.727647 -0.100940
C34   C     C_R   0.316177 0.227792 0.682662 -0.169818
C35   C     C_R   0.473531 0.277284 0.683090 0.104416
C36   C     C_R   0.626472 0.282539 0.732433 0.082383
C37   C     C_R   0.784343 0.332686 0.732404 0.069821
C38   C     C_R   0.926513 0.343979 0.785110 -0.205619
C39   C     C_R   0.913481 0.307157 0.839112 -0.037860
C40   C     C_R   0.479622 0.321890 0.635010 -0.200503
C41   C     C_R   0.641041 0.369337 0.633137 -0.079065
C42   C     C_R   0.793982 0.373712 0.681436 -0.152497
H3    H     H_    0.188754 0.143074 0.724852 0.145270
H4    H     H_    0.195404 0.224414 0.646514 0.137778
H5    H     H_    0.360982 0.318190 0.597836 0.126441
H6    H     H_    0.918446 0.410933 0.680721 0.150176
H7    H     H_    0.042373 0.386228 0.787153 0.159687
C43   C     C_R   0.775233 0.250035 0.300112 0.014571
C44   C     C_R   0.764908 0.189389 0.232978 -0.147623
H8    H     H_    0.865814 0.141100 0.221484 0.173458
C45   C     C_R   0.621217 0.187395 0.181889 -0.107948
C46   C     C_R   0.488698 0.250391 0.196895 -0.031304
C47   C     C_R   0.499285 0.312685 0.263672 -0.038013
C48   C     C_R   0.642328 0.313527 0.316173 -0.161133
O11   O     O_R   0.774940 0.060470 0.937800 -0.538603
O12   O     O_R   0.440880 0.093730 0.087350 -0.537484
O13   O     O_R   0.266130 0.939630 0.062280 -0.531972
C49   C     C_R   0.610034 0.117850 0.114416 0.749391
O14   O     O_R   0.445480 0.069960 0.939820 -0.514886
O15   O     O_R   0.270770 0.915690 0.913690 -0.527292
C50   C     C_R   0.613660 0.084792 0.917559 0.759902
O16   O     O_R   0.770300 0.084410 0.086380 -0.540202
O17   O     O_3   0.602600 0.949510 0.991670 -0.364530
V3    V     V_3+5 0.329470 0.009370 0.001550 1.606192
O18   O     O_R   0.940760 0.906160 0.912560 -0.529586
C51   C     C_R   0.111152 0.881944 0.885281 0.769145
O19   O     O_R   0.936150 0.929930 0.060100 -0.534069
C52   C     C_R   0.105022 0.915121 0.081894 0.799951
V4    V     V_3+5 0.828930 0.990450 0.998310 1.593543
O20   O     O_3   0.105670 0.050490 0.008320 -0.363775
I1    I     I_    0.457873 0.760601 0.611137 -0.225488
I2    I     I_    0.238221 0.734614 0.993425 -0.360351
I3    I     I_    0.199056 0.488135 0.116287 -0.200846
C53   C     C_2   0.896268 0.210099 0.942262 0.828955
O21   O     O_2   0.836053 0.231397 0.004958 -0.533409
O22   O     O_R   0.092217 0.194146 0.927723 -0.643775
H9    H     H_    0.170023 0.202315 0.973505 0.330556
C54   C     C_2   0.341461 0.059346 0.793455 0.776076
O23   O     O_2   0.354852 0.013523 0.731509 -0.538614
O24   O     O_R   0.191457 0.049757 0.838762 -0.627057
H10   H     H_    0.105742 0.002471 0.814483 0.283750
I4    I     I_    0.532956 0.881096 0.789670 -0.287700
C55   C     C_2   0.046737 0.339441 0.900631 0.833590
O25   O     O_2   0.981791 0.370729 0.961774 -0.509686
O26   O     O_R   0.246144 0.338596 0.887873 -0.653685
H11   H     H_    0.322548 0.363015 0.934055 0.333415
C56   C     C_2   0.920554 0.242344 0.353340 0.806890
O27   O     O_2   0.081870 0.217255 0.332393 -0.520119
O28   O     O_R   0.871149 0.260738 0.426962 -0.670128
H12   H     H_    0.982211 0.252600 0.457570 0.295864
C57   C     C_2   0.348745 0.255189 0.140848 0.806294
O29   O     O_2   0.406364 0.250916 0.079870 -0.544637
O30   O     O_R   0.152228 0.265780 0.158278 -0.627556
H13   H     H_    0.072250 0.270075 0.116206 0.341282
C58   C     C_2   0.373984 0.381725 0.274845 0.834817
O31   O     O_2   0.210132 0.381064 0.298764 -0.521082
O32   O     O_R   0.447947 0.448232 0.260288 -0.635669
H14   H     H_    0.355992 0.494119 0.274553 0.302779
C59   C     C_2   0.826796 0.747255 0.855297 0.842181
O33   O     O_2   0.857705 0.765885 0.920483 -0.537844
O34   O     O_R   0.641466 0.721818 0.829500 -0.637429
H15   H     H_    0.546514 0.722773 0.869896 0.323284
C60   C     C_2   0.880077 0.612524 0.729869 0.836831
O35   O     O_2   0.732179 0.601943 0.694033 -0.504335
O36   O     O_R   0.929019 0.558811 0.765894 -0.662253
H16   H     H_    0.053278 0.573854 0.794445 0.269967
I5    I     I_    0.902365 0.501961 0.268087 -0.229046
C61   C     C_2   0.273755 0.884469 0.454913 0.846755
O37   O     O_2   0.424065 0.866802 0.478491 -0.522420
O38   O     O_R   0.151777 0.941357 0.500293 -0.625327
H17   H     H_    0.202913 0.963350 0.551703 0.332601
I6    I     I_    0.326464 0.012158 0.371506 -0.242503
C62   C     C_2   0.045662 0.986961 0.238495 0.783187
O39   O     O_2   0.117943 0.038605 0.217093 -0.559187
O40   O     O_R   0.899591 0.005531 0.291477 -0.630554
H18   H     H_    0.866383 0.063776 0.308355 0.312937

loop_
_geom_bond_atom_site_label_1
_geom_bond_atom_site_label_2
_ccdc_geom_bond_type
C41   C42   A    
C44   C45   A    
C56   O27   D    
O12   V3    S    
C6    I4    S    
C27   C28   A    
C7    C8    A    
C1    O6    A    
C18   I6    S    
C55   O25   D    
C11   I5    S    
O17   V3    S    
C38   C39   A    
C57   O30   S    
C14   C15   A    
C17   C18   A    
C26   I2    S    
C22   H2    S    
C24   C25   A    
C37   C42   A    
C38   H7    S    
C60   O36   S    
O5    C3    A    
C18   C19   A    
O17   V4    S    
V2    O10   S    
C22   C23   A    
C9    C60   S    
O19   V4    S    
C2    C48   S    
C23   I3    S    
C47   C58   S    
V4    O20   S    
C16   C23   A    
C27   C32   A    
O1    V2    S    
O7    V1    S    
C30   C33   A    
C49   O16   A    
O13   C52   A    
C46   C47   A    
C56   O28   S    
C35   C40   A    
O15   C51   A    
O9    C4    A    
O14   C50   A    
O24   H10   S    
O8    V2    S    
O16   V4    S    
C55   O26   S    
C21   C22   A    
C40   H5    S    
C47   C48   A    
C33   C34   A    
C12   C13   A    
O4    C2    A    
C6    C7    A    
C36   C37   A    
C13   C14   A    
C31   C32   A    
O14   V3    S    
O19   C52   A    
C42   H6    S    
O2    C1    A    
C29   C30   A    
C62   O40   S    
C25   C26   A    
O11   V4    S    
C33   H3    S    
O18   C51   A    
O26   H11   S    
C11   C12   A    
C17   C61   S    
C43   C44   A    
C54   O24   S    
C5    C6    A    
C28   C50   S    
C11   C16   A    
C8    C9    A    
O3    C4    A    
C29   C54   S    
C34   C35   A    
C53   O22   S    
C45   C46   A    
O6    V2    S    
O9    V2    S    
C1    C41   S    
C5    I1    S    
C25   C52   S    
C24   C62   S    
C28   C29   A    
O30   H13   S    
C61   O38   S    
C62   O39   D    
O2    V1    S    
O28   H12   S    
C30   C31   A    
C59   O33   D    
C27   C53   S    
C40   C41   A    
O32   H14   S    
C15   C20   A    
O1    C2    A    
C19   C20   A    
C21   C26   A    
O5    V1    S    
O36   H16   S    
C34   H4    S    
C45   C49   S    
C57   O29   D    
C3    C12   S    
C60   O35   D    
C5    C10   A    
C43   C48   A    
C39   C55   S    
C20   C21   A    
C43   C56   S    
C58   O32   S    
O40   H18   S    
C37   C38   A    
O3    V1    S    
V1    O10   S    
C58   O31   D    
C13   H1    S    
O18   V4    S    
C4    C10   S    
O22   H9    S    
C8    C59   S    
C31   C36   A    
C32   C39   A    
C54   O23   D    
O11   C50   A    
O7    V2    S    
C7    C51   S    
C44   H8    S    
V3    O20   S    
O4    V1    S    
C53   O21   D    
C14   C17   A    
C35   C36   A    
O15   V3    S    
C15   C16   A    
C19   C24   A    
O12   C49   A    
C46   C57   S    
C61   O37   D    
C9    C10   A    
O13   V3    S    
O34   H15   S    
O8    C3    A    
O38   H17   S    
C59   O34   S    
