data_mof_unit_3727.cif
_audit_creation_date              2012-12-11T15:54:39-0500
_audit_creation_method            fapswitch 2.2
_symmetry_space_group_name_H-M    P1
_symmetry_Int_Tables_number       1
_space_group_crystal_system       triclinic
_cell_length_a                    6.929592
_cell_length_b                    14.526798
_cell_length_c                    16.113271
_cell_angle_alpha                 89.929978
_cell_angle_beta                  90.296149
_cell_angle_gamma                 90.104001
_cell_volume                      1622.01339971

loop_
_atom_site_label
_atom_site_type_symbol
_atom_type_description
_atom_site_fract_x
_atom_site_fract_y
_atom_site_fract_z
_atom_type_partial_charge
O1    O     O_R   0.638180 0.333920 0.163320 -0.546331
O2    O     O_R   0.361820 0.666080 0.836680 -0.547730
O3    O     O_R   0.308470 0.344960 0.336080 -0.551903
O4    O     O_R   0.691530 0.655040 0.663920 -0.550395
O5    O     O_R   0.138140 0.166110 0.336680 -0.540215
O6    O     O_R   0.861860 0.833890 0.663320 -0.537801
C1    C     C_R   0.477792 0.367122 0.365104 0.666748
C2    C     C_R   0.522208 0.632879 0.634895 0.674580
O7    O     O_R   0.308460 0.344950 0.163930 -0.512561
O8    O     O_R   0.691540 0.655050 0.836070 -0.510803
O9    O     O_R   0.138140 0.166100 0.163310 -0.543233
O10   O     O_R   0.861860 0.833900 0.836690 -0.535455
C3    C     C_R   0.476799 0.366597 0.134537 0.750181
C4    C     C_R   0.523203 0.633425 0.865478 0.741387
O11   O     O_R   0.638180 0.333930 0.336700 -0.547121
O12   O     O_R   0.361820 0.666070 0.663300 -0.544658
O13   O     O_3   0.471670 0.191340 0.250000 -0.360095
O14   O     O_3   0.528330 0.808660 0.750000 -0.366172
V1    V     V_3+5 0.196830 0.260900 0.250000 1.459454
V2    V     V_3+5 0.803170 0.739100 0.750000 1.455945
O15   O     O_R   0.808420 0.155070 0.163920 -0.509701
O16   O     O_R   0.191580 0.844930 0.836080 -0.542208
C5    C     C_R   0.976680 0.132330 0.135442 0.758892
C6    C     C_R   0.023737 0.867235 0.865083 0.740992
O17   O     O_R   0.808420 0.155080 0.336070 -0.540157
O18   O     O_R   0.191580 0.844920 0.663930 -0.538305
C7    C     C_R   0.977510 0.133132 0.364689 0.680440
C8    C     C_R   0.022490 0.866857 0.635300 0.689299
V3    V     V_3+5 0.696830 0.239130 0.250000 1.475961
V4    V     V_3+5 0.303170 0.760870 0.750000 1.437902
O19   O     O_3   0.971850 0.308690 0.250010 -0.375962
O20   O     O_3   0.028150 0.691310 0.749990 -0.370891
H1    H     H_    0.756228 0.829781 0.268820 0.123504
H2    H     H_    0.243768 0.170225 0.731147 0.135053
C9    C     C_R   0.114712 0.184776 0.528261 -0.139961
C10   C     C_R   0.885263 0.815215 0.471716 -0.139647
C11   C     C_R   0.181955 0.211950 0.606091 -0.131015
C12   C     C_R   0.818021 0.788046 0.393882 -0.128810
C13   C     C_R   0.192914 0.148588 0.670583 -0.104600
C14   C     C_R   0.807081 0.851410 0.329387 -0.112580
C15   C     C_R   0.136933 0.057531 0.657731 -0.124853
C16   C     C_R   0.863079 0.942462 0.342244 -0.129672
C17   C     C_R   0.070323 0.027458 0.579062 0.060885
C18   C     C_R   0.929679 0.972531 0.420917 0.063064
C19   C     C_R   0.058793 0.092481 0.512894 0.071937
C20   C     C_R   0.941199 0.907507 0.487086 0.071670
C21   C     C_R   0.011622 0.934904 0.566220 -0.181605
C22   C     C_R   0.988377 0.065084 0.433763 -0.179535
H3    H     H_    0.105703 0.237296 0.480777 0.105298
H4    H     H_    0.894255 0.762697 0.519201 0.104789
H5    H     H_    0.224365 0.282790 0.616539 0.121143
H6    H     H_    0.775596 0.717209 0.383432 0.119061
H7    H     H_    0.145112 0.011500 0.710426 0.123242
H8    H     H_    0.854916 0.988494 0.289550 0.120900
C23   C     C_R   0.172159 0.994088 0.954825 0.329258
C24   C     C_R   0.830414 0.003859 0.048548 0.372620
C25   C     C_R   0.154345 0.058072 0.019043 -0.220596
C26   C     C_R   0.846993 0.940561 0.982612 -0.260686
H9    H     H_    0.275077 0.103562 0.031657 0.179460
H10   H     H_    0.727742 0.894510 0.969427 0.128320
C27   C     C_R   0.985976 0.063681 0.066927 -0.155262
C28   C     C_R   0.015854 0.934774 0.934816 -0.164050
C29   C     C_R   0.320332 0.470953 0.470000 -0.163358
C30   C     C_R   0.679668 0.529050 0.529998 -0.162763
H11   H     H_    0.179349 0.449395 0.448138 0.112891
H12   H     H_    0.820651 0.550608 0.551861 0.113192
C31   C     C_R   0.331160 0.534683 0.535052 -0.153232
C32   C     C_R   0.668840 0.465319 0.464946 -0.153619
H13   H     H_    0.198075 0.560454 0.561090 0.115839
H14   H     H_    0.801925 0.439548 0.438909 0.115071
C33   C     C_R   0.510984 0.564573 0.566051 -0.040698
C34   C     C_R   0.489016 0.435428 0.433948 -0.039105
C35   C     C_R   0.326934 0.450336 0.012173 0.361258
C36   C     C_R   0.673044 0.549727 0.987869 0.357737
C37   C     C_R   0.342452 0.515529 0.947638 -0.322143
C38   C     C_R   0.657533 0.484528 0.052401 -0.322810
H15   H     H_    0.220183 0.526565 0.906667 0.158358
H16   H     H_    0.779798 0.473493 0.093374 0.156385
C39   C     C_R   0.513926 0.565197 0.934504 -0.107886
C40   C     C_R   0.486067 0.434849 0.065527 -0.107685
O21   O     O_3   0.342110 0.993603 0.911334 -0.637926
H17   H     H_    0.400756 0.932407 0.921157 0.286942
O22   O     O_3   0.665254 0.006916 0.096168 -0.641227
H18   H     H_    0.571518 0.960664 0.075282 0.280547
O23   O     O_3   0.159590 0.399812 0.022586 -0.645741
H19   H     H_    0.064444 0.417695 0.979338 0.286946
O24   O     O_3   0.840362 0.600273 0.977470 -0.648298
H20   H     H_    0.935477 0.582421 0.020740 0.283908

loop_
_geom_bond_atom_site_label_1
_geom_bond_atom_site_label_2
_ccdc_geom_bond_type
C7    C22   S    
C26   C28   A    
C12   C14   A    
O24   H20   S    
C29   H11   S    
C8    C21   S    
O13   V3    S    
O4    C2    A    
V1    O19   S    
O21   H17   S    
C13   C15   A    
O23   H19   S    
O9    V1    S    
C36   C38   A    
C30   C32   A    
C9    C11   A    
C38   H16   S    
O3    C1    A    
C11   H5    S    
C25   H9    S    
C12   H6    S    
O12   V4    S    
C23   C28   A    
C30   C33   A    
O7    C3    A    
O5    C7    A    
O7    V1    S    
O6    C8    A    
O8    V2    S    
C9    H3    S    
O3    V1    S    
O14   V4    S    
C36   O24   S    
C23   O21   S    
C17   C21   A    
C31   C33   A    
C1    O11   A    
C3    C40   S    
C2    O12   A    
V3    O19   S    
C15   C17   A    
C16   C18   A    
C18   C20   A    
O11   V3    S    
O17   V3    S    
C29   C31   A    
H1    C14   S    
H2    C13   S    
O8    C4    A    
C1    C34   S    
O15   V3    S    
C31   H13   S    
C30   H12   S    
C17   C19   A    
O22   H18   S    
C32   C34   A    
C35   O23   S    
O10   V2    S    
O1    V3    S    
C4    C39   S    
C10   C20   A    
C37   H15   S    
C15   H7    S    
O18   V4    S    
C36   C39   A    
C23   C25   A    
O16   C6    A    
O1    C3    A    
C35   C37   A    
C10   C12   A    
C9    C19   A    
C10   H4    S    
C24   O22   S    
V2    O20   S    
C19   C22   A    
C20   C21   A    
C2    C33   S    
C6    C28   S    
O16   V4    S    
C38   C40   A    
C14   C16   A    
C25   C27   A    
O5    V1    S    
O17   C7    A    
O6    V2    S    
O10   C6    A    
O18   C8    A    
O2    V4    S    
O15   C5    A    
C11   C13   A    
C16   H8    S    
V4    O20   S    
C37   C39   A    
O9    C5    A    
O13   V1    S    
C35   C40   A    
C24   C26   A    
O14   V2    S    
O2    C4    A    
O4    V2    S    
C5    C27   S    
C29   C34   A    
C32   H14   S    
C24   C27   A    
C26   H10   S    
C18   C22   A    
