data_mof_unit_3430.cif
_audit_creation_date              2012-12-10T18:23:59-0500
_audit_creation_method            fapswitch 2.2
_symmetry_space_group_name_H-M    P1
_symmetry_Int_Tables_number       1
_space_group_crystal_system       triclinic
_cell_length_a                    15.713867
_cell_length_b                    14.961544
_cell_length_c                    14.130121
_cell_angle_alpha                 88.969523
_cell_angle_beta                  91.701438
_cell_angle_gamma                 88.954273
_cell_volume                      3319.45573172

loop_
_atom_site_label
_atom_site_type_symbol
_atom_type_description
_atom_site_fract_x
_atom_site_fract_y
_atom_site_fract_z
_atom_type_partial_charge
C1    C     C_R   0.502048 0.327021 0.500730 0.945405
C2    C     C_R   0.500337 0.046627 0.499592 -0.061521
C3    C     C_R   0.451684 0.906950 0.568934 -0.004688
C4    C     C_R   0.548191 0.093053 0.430995 -0.004697
C5    C     C_R   0.593784 0.951948 0.363656 0.186398
C6    C     C_R   0.406048 0.048064 0.636230 0.186403
C7    C     C_R   0.586089 0.045661 0.356611 0.194431
C8    C     C_R   0.413743 0.954351 0.643288 0.194381
C9    C     C_R   0.429791 0.528732 0.795632 -0.060477
C10   C     C_R   0.570208 0.471268 0.204368 -0.060472
C11   C     C_R   0.570986 0.468735 0.801959 0.256854
C12   C     C_R   0.497947 0.672979 0.499269 0.945414
C13   C     C_R   0.429014 0.531265 0.198041 0.256848
C14   C     C_R   0.576460 0.477893 0.902922 0.007822
C15   C     C_R   0.423540 0.522107 0.097078 0.007822
C16   C     C_R   0.337965 0.500061 0.498736 0.929901
C17   C     C_R   0.662035 0.499939 0.501264 0.929881
C18   C     C_R   0.501040 0.500823 0.949561 0.008854
C19   C     C_R   0.498960 0.499176 0.050439 0.008852
C20   C     C_R   0.427389 0.525179 0.895315 -0.028363
C21   C     C_R   0.572611 0.474820 0.104685 -0.028362
C22   C     C_R   0.652801 0.463109 0.959762 0.214894
C23   C     C_R   0.495489 0.768626 0.498493 -0.149603
C24   C     C_R   0.347199 0.536891 0.040238 0.214894
C25   C     C_R   0.648503 0.457630 0.059001 -0.196660
C26   C     C_R   0.351497 0.542370 0.940999 -0.196665
C27   C     C_3   0.971772 0.422380 0.469311 0.231896
C28   C     C_3   0.028228 0.577623 0.530689 0.231894
C29   C     C_3   0.023933 0.487919 0.409963 -0.211174
C30   C     C_3   0.976067 0.512083 0.590038 -0.211173
C31   C     C_1   0.249025 0.499742 0.496133 -0.164740
C32   C     C_1   0.750975 0.500259 0.503867 -0.164763
C33   C     C_3   0.032086 0.432907 0.556281 -0.210252
C34   C     C_R   0.504471 0.231374 0.501496 -0.149602
C35   C     C_3   0.967914 0.567096 0.443719 -0.210250
C36   C     C_3   0.082878 0.499504 0.497358 0.150998
C37   C     C_3   0.917122 0.500499 0.502642 0.150999
C38   C     C_1   0.173716 0.499472 0.495679 -0.052025
C39   C     C_1   0.826284 0.500530 0.504321 -0.052029
C40   C     C_R   0.442870 0.814296 0.559870 0.335299
C41   C     C_R   0.557056 0.185695 0.440092 0.335297
C42   C     C_3   0.741057 0.465447 0.920154 -0.924154
C43   C     C_3   0.258943 0.534553 0.079846 -0.924157
C44   C     C_3   0.937879 0.333890 0.434507 -0.866008
C45   C     C_R   0.547841 0.813206 0.437182 -0.308586
C46   C     C_3   0.062121 0.666112 0.565493 -0.865993
C47   C     C_3   0.649335 0.900890 0.295913 -0.921220
C48   C     C_3   0.350442 0.099122 0.703918 -0.921277
C49   C     C_3   0.604245 0.091690 0.262937 -0.804140
C50   C     C_3   0.395541 0.908336 0.736957 -0.804120
C51   C     C_3   0.634648 0.408886 0.755174 -0.806353
C52   C     C_3   0.365352 0.591115 0.244825 -0.806348
C53   C     C_R   0.452088 0.186805 0.562784 -0.308597
C54   C     C_R   0.547993 0.906102 0.433664 0.092468
C55   C     C_R   0.451883 0.093908 0.566261 0.092483
C56   C     C_R   0.499532 0.953379 0.500331 -0.061513
Cl1   Cl    Cl    0.355193 0.756858 0.607552 -0.664981
Cl2   Cl    Cl    0.644757 0.243091 0.392409 -0.664926
H1    H     H_    0.045192 0.477262 0.336714 0.147064
H2    H     H_    0.625998 0.449337 0.245791 0.172857
H3    H     H_    0.744099 0.517915 0.863924 0.246025
H4    H     H_    0.789286 0.483495 0.975328 0.237054
H5    H     H_    0.760508 0.399099 0.893713 0.246282
H6    H     H_    0.255900 0.482085 0.136076 0.246025
H7    H     H_    0.239492 0.600901 0.106287 0.246283
H8    H     H_    0.210713 0.516506 0.024672 0.237054
H9    H     H_    0.991815 0.289657 0.415099 0.236214
H10   H     H_    0.901797 0.300948 0.491318 0.255369
H11   H     H_    0.895086 0.345921 0.371485 0.254852
H12   H     H_    0.954808 0.522741 0.663286 0.147064
H13   H     H_    0.008186 0.710346 0.584901 0.236208
H14   H     H_    0.104915 0.654081 0.628515 0.254857
H15   H     H_    0.098204 0.699054 0.508682 0.255377
H16   H     H_    0.695611 0.857217 0.336756 0.238238
H17   H     H_    0.608996 0.859620 0.248649 0.243864
H18   H     H_    0.688438 0.944635 0.251267 0.253702
H19   H     H_    0.304227 0.142833 0.663033 0.238245
H20   H     H_    0.311267 0.055372 0.748479 0.253716
H21   H     H_    0.390747 0.140353 0.751257 0.243864
H22   H     H_    0.584015 0.049452 0.202768 0.222671
H23   H     H_    0.706036 0.443687 0.101446 0.150519
H24   H     H_    0.566449 0.154658 0.252553 0.261573
H25   H     H_    0.673255 0.105168 0.258341 0.269819
H26   H     H_    0.415679 0.950611 0.797133 0.222682
H27   H     H_    0.326538 0.894798 0.741483 0.269846
H28   H     H_    0.433387 0.845407 0.747403 0.261568
H29   H     H_    0.691677 0.446251 0.734651 0.239117
H30   H     H_    0.652801 0.351275 0.802479 0.208459
H31   H     H_    0.607162 0.377124 0.692529 0.279419
H32   H     H_    0.347199 0.648725 0.197521 0.208457
H33   H     H_    0.308323 0.553749 0.265349 0.239117
H34   H     H_    0.293964 0.556313 0.898553 0.150519
H35   H     H_    0.392838 0.622876 0.307471 0.279422
H36   H     H_    0.940026 0.622368 0.398647 0.147456
H37   H     H_    0.059974 0.377635 0.601353 0.147454
H38   H     H_    0.586156 0.773799 0.390447 0.181706
H39   H     H_    0.413794 0.226218 0.609535 0.181710
H40   H     H_    0.374002 0.550663 0.754209 0.172865
N1    N     N_R   0.500040 0.500070 0.750030 -0.110883
N2    N     N_R   0.499960 0.499930 0.249970 -0.110884
O1    O     O_R   0.500020 0.367860 0.580280 -0.650319
O2    O     O_R   0.499980 0.632140 0.419720 -0.650317
O3    O     O_R   0.500020 0.367840 0.419730 -0.575405
O4    O     O_R   0.499980 0.632160 0.580270 -0.575400
O5    O     O_R   0.376770 0.500000 0.580260 -0.609908
O6    O     O_R   0.623230 0.500000 0.419740 -0.609918
O7    O     O_R   0.376780 0.499980 0.419710 -0.632234
O8    O     O_R   0.623220 0.500020 0.580290 -0.632229
Zn1   Zn    Zn3+2 0.499990 0.500020 0.607200 0.966206
Zn2   Zn    Zn3+2 0.500010 0.499980 0.392800 0.966202

loop_
_geom_bond_atom_site_label_1
_geom_bond_atom_site_label_2
_ccdc_geom_bond_type
C48   H19   S    
N2    Zn2   S    
C9    H40   S    
C23   C45   A    
C8    C50   S    
C27   C29   S    
C14   C18   A    
C52   H32   S    
C6    C55   A    
C50   H26   S    
C27   C33   S    
C16   C31   S    
C15   C19   A    
C5    C47   S    
C29   C36   S    
C28   C46   S    
C6    C48   S    
O3    Zn2   S    
C48   H21   S    
C35   C37   S    
C24   C26   A    
C41   Cl2   S    
C12   O4    A    
C2    C55   A    
O4    Zn1   S    
C11   C14   A    
C4    C41   A    
O1    Zn1   S    
C23   C40   A    
N1    Zn1   S    
C33   C36   S    
O8    Zn1   S    
C11   N1    A    
C18   C19   A    
C32   C39   T    
C48   H20   S    
C21   C25   A    
C16   O7    A    
C27   C44   S    
C29   H1    S    
C28   C35   S    
C22   C25   A    
C43   H6    S    
C1    O3    A    
C46   H14   S    
C50   H27   S    
C42   H4    S    
C9    N1    A    
C25   H23   S    
C34   C41   A    
C4    C7    A    
C33   H37   S    
C30   H12   S    
C1    C34   S    
C53   C55   A    
C10   C21   A    
C54   C56   A    
C5    C54   A    
C44   H11   S    
C11   C51   S    
C7    C49   S    
C3    C8    A    
C17   O8    A    
C51   H29   S    
C5    C7    A    
C6    C8    A    
C53   H39   S    
C30   C37   S    
C49   H24   S    
C10   H2    S    
C12   O2    A    
C13   C52   S    
C3    C56   A    
C9    C20   A    
C12   C23   S    
C43   H7    S    
C52   H35   S    
C10   N2    A    
C42   H3    S    
C46   H13   S    
C16   O5    A    
C15   C24   A    
C45   C54   A    
C13   C15   A    
O7    Zn2   S    
C44   H10   S    
C1    O1    A    
O6    Zn2   S    
C35   H36   S    
C24   C43   S    
O5    Zn1   S    
C40   Cl1   S    
C30   C33   S    
C19   C21   A    
C3    C40   A    
C47   H16   S    
C44   H9    S    
C51   H30   S    
C47   H18   S    
C49   H22   S    
C29   C35   S    
C31   C38   T    
C49   H25   S    
C13   N2    A    
C36   C38   S    
C47   H17   S    
C37   C39   S    
C2    C56   A    
C17   O6    A    
C51   H31   S    
C14   C22   A    
C22   C42   S    
C20   C26   A    
C27   C37   S    
C43   H8    S    
C2    C4    A    
C28   C30   S    
C18   C20   A    
O2    Zn2   S    
C50   H28   S    
C28   C36   S    
C34   C53   A    
C17   C32   S    
C52   H33   S    
C45   H38   S    
C26   H34   S    
C42   H5    S    
C46   H15   S    
