data_mof_unit_3336.cif
_audit_creation_date              2012-12-10T16:52:10-0500
_audit_creation_method            fapswitch 2.2
_symmetry_space_group_name_H-M    P1
_symmetry_Int_Tables_number       1
_space_group_crystal_system       triclinic
_cell_length_a                    7.767844
_cell_length_b                    8.554994
_cell_length_c                    14.93129
_cell_angle_alpha                 91.303067
_cell_angle_beta                  85.669465
_cell_angle_gamma                 93.772406
_cell_volume                      987.107725031

loop_
_atom_site_label
_atom_site_type_symbol
_atom_type_description
_atom_site_fract_x
_atom_site_fract_y
_atom_site_fract_z
_atom_type_partial_charge
C1    C     C_R   0.545847 0.794748 0.497554 0.968866
C2    C     C_R   0.577746 0.628842 0.810969 0.109247
C3    C     C_R   0.495464 0.503164 0.232430 -0.161322
C4    C     C_R   0.504539 0.496834 0.767570 -0.161333
C5    C     C_R   0.571520 0.633798 0.185889 0.088175
C6    C     C_R   0.428485 0.366199 0.814110 0.088159
C7    C     C_R   0.569052 0.634184 0.092587 0.095614
C8    C     C_R   0.430966 0.365808 0.907412 0.095633
C9    C     C_R   0.498928 0.500513 0.047021 0.005483
C10   C     C_R   0.501093 0.499478 0.952978 0.005483
C11   C     C_R   0.426384 0.368096 0.095216 0.064789
C12   C     C_R   0.454153 0.205252 0.502447 0.968863
C13   C     C_R   0.573635 0.631896 0.904783 0.064792
C14   C     C_R   0.633739 0.766393 0.044100 -0.198798
C15   C     C_R   0.366286 0.233596 0.955898 -0.198796
C16   C     C_3   0.460884 0.123902 0.258520 -0.781569
C17   C     C_3   0.539114 0.876099 0.741488 -0.781547
C18   C     C_3   0.830805 0.772790 0.235783 -0.758578
C19   C     C_3   0.169178 0.227239 0.764226 -0.758558
C20   C     C_R   0.637108 0.764971 0.951497 -0.230259
C21   C     C_R   0.362918 0.235018 0.048502 -0.230257
C22   C     C_2   0.569946 0.958290 0.495673 -0.397675
C23   C     C_2   0.430054 0.041710 0.504328 -0.397690
C24   C     C_R   0.501571 0.498805 0.672519 0.940821
C25   C     C_R   0.498430 0.501196 0.327481 0.940824
C26   C     C_R   0.422264 0.371153 0.189030 0.109248
H1    H     H_    0.682314 0.872351 0.077273 0.175467
H2    H     H_    0.507196 0.065854 0.194739 0.244053
H3    H     H_    0.391546 0.034274 0.302918 0.235598
H4    H     H_    0.573861 0.175586 0.292744 0.255834
H5    H     H_    0.773983 0.800478 0.777537 0.221718
H6    H     H_    0.492807 0.934138 0.805274 0.244048
H7    H     H_    0.426133 0.824419 0.707264 0.255830
H8    H     H_    0.608446 0.965733 0.697092 0.235596
H9    H     H_    0.581632 0.792221 0.294236 0.220153
H10   H     H_    0.869596 0.675635 0.276328 0.264122
H11   H     H_    0.875879 0.885762 0.266967 0.229095
H12   H     H_    0.317716 0.127637 0.922725 0.175452
H13   H     H_    0.895359 0.764521 0.167063 0.240308
H14   H     H_    0.418338 0.207793 0.705758 0.220156
H15   H     H_    0.130380 0.324488 0.723761 0.264114
H16   H     H_    0.104640 0.235360 0.832953 0.240293
H17   H     H_    0.124094 0.114342 0.732964 0.229094
H18   H     H_    0.688710 0.870045 0.917536 0.157307
H19   H     H_    0.311318 0.129943 0.082462 0.157308
H20   H     H_    0.701978 0.009455 0.487212 0.183855
H21   H     H_    0.298022 0.990545 0.512790 0.183853
H22   H     H_    0.013833 0.382576 0.431928 0.195991
H23   H     H_    0.986167 0.617424 0.568072 0.195988
H24   H     H_    0.226024 0.199518 0.222457 0.221720
N1    N     N_2   0.950330 0.457950 0.475660 -0.180447
N2    N     N_2   0.049670 0.542050 0.524340 -0.180444
N3    N     N_2   0.344970 0.243549 0.241230 -0.308554
N4    N     N_2   0.655033 0.756449 0.758769 -0.308555
N5    N     N_2   0.644555 0.766733 0.232897 -0.319840
N6    N     N_2   0.355430 0.233273 0.767102 -0.319834
O1    O     O_R   0.389250 0.738570 0.505970 -0.621052
O2    O     O_R   0.610750 0.261430 0.494030 -0.621050
O3    O     O_R   0.678390 0.711620 0.490370 -0.624235
O4    O     O_R   0.321610 0.288380 0.509630 -0.624223
O5    O     O_R   0.355420 0.513510 0.639950 -0.627442
O6    O     O_R   0.644580 0.486490 0.360050 -0.627445
O7    O     O_R   0.644560 0.486560 0.624350 -0.621614
O8    O     O_R   0.355440 0.513440 0.375650 -0.621616
Zn1   Zn    Zn3+2 0.306940 0.517990 0.510420 0.934895
Zn2   Zn    Zn3+2 0.693060 0.482010 0.489580 0.934890

loop_
_geom_bond_atom_site_label_1
_geom_bond_atom_site_label_2
_ccdc_geom_bond_type
C19   N6    S    
C16   H2    S    
C2    C4    A    
C18   H13   S    
C15   H12   S    
C24   O5    A    
C14   C20   A    
C14   H1    S    
C24   O7    A    
C5    C7    A    
C9    C10   A    
C21   H19   S    
C11   C21   A    
C11   C26   A    
C19   H16   S    
C15   C21   A    
C3    C5    A    
H23   N2    S    
C12   O2    A    
O8    Zn1   S    
C1    O3    A    
C25   O8    A    
O7    Zn2   S    
C1    C22   S    
H5    N4    S    
C9    C11   A    
C12   C23   S    
H9    N5    S    
C17   H7    S    
C18   N5    S    
O1    Zn1   S    
C8    C10   A    
C22   H20   S    
C18   H11   S    
C5    N5    S    
O4    Zn1   S    
C8    C15   A    
C1    O1    A    
C25   O6    A    
C7    C14   A    
O3    Zn2   S    
C4    C24   S    
H22   N1    S    
H24   N3    S    
C23   H21   S    
C17   H8    S    
N1    Zn2   S    
C16   H4    S    
N1    N2    D    
C12   O4    A    
C26   N3    S    
O5    Zn1   S    
C3    C25   S    
C2    C13   A    
C4    C6    A    
C2    N4    S    
C6    N6    S    
C7    C9    A    
C17   H6    S    
O6    Zn2   S    
C22   C23   D    
C6    C8    A    
C13   C20   A    
C20   H18   S    
C16   H3    S    
C16   N3    S    
C18   H10   S    
C17   N4    S    
O2    Zn2   S    
C3    C26   A    
N2    Zn1   S    
C19   H15   S    
C19   H17   S    
H14   N6    S    
C10   C13   A    
