data_mof_unit_4039.cif
_audit_creation_date              2013-03-05T16:20:47-0500
_audit_creation_method            fapswitch 2.2
_symmetry_space_group_name_H-M    P1
_symmetry_Int_Tables_number       1
_space_group_crystal_system       triclinic
_cell_length_a                    8.253695
_cell_length_b                    18.737428
_cell_length_c                    19.043572
_cell_angle_alpha                 104.26158
_cell_angle_beta                  92.991938
_cell_angle_gamma                 91.186589
_cell_volume                      2848.77417185

loop_
_atom_site_label
_atom_site_type_symbol
_atom_site_description
_atom_site_fract_x
_atom_site_fract_y
_atom_site_fract_z
_atom_type_partial_charge
P1    P     P_3+3 0.941030 0.670050 0.569830 0.478516
O1    O     O_2   0.114280 0.679350 0.549180 -0.321346
O2    O     O_3   0.866400 0.589600 0.543550 -0.403339
O3    O     O_3   0.362150 0.623490 0.415650 -0.393929
O4    O     O_2   0.241574 0.753430 0.472396 -0.357503
O5    O     O_3   0.959279 0.700717 0.664491 -0.599389
O6    O     O_3   0.317402 0.734141 0.338756 -0.519001
H1    H     H_    0.329142 0.626236 0.278914 0.127045
C1    C     C_3   0.361588 0.702504 0.212479 -0.955279
H2    H     H_    0.229908 0.706072 0.199187 0.288869
H3    H     H_    0.422904 0.756685 0.215924 0.254108
P2    P     P_3+3 0.370400 0.428500 0.331430 0.469576
P3    P     P_3+3 0.914594 0.584725 0.286350 0.469007
O7    O     O_2   0.197490 0.449210 0.322030 -0.383194
O8    O     O_3   0.950520 0.583920 0.376610 -0.354865
O9    O     O_2   0.031850 0.528230 0.245135 -0.384536
O10   O     O_3   0.365184 0.332080 0.306080 -0.555171
O11   O     O_3   0.984222 0.670445 0.277001 -0.491440
C2    C     C_3   0.865961 0.722238 0.301424 0.387472
H4    H     H_    0.817434 0.716517 0.353280 0.057140
H5    H     H_    0.765518 0.715819 0.258964 0.046744
C3    C     C_3   0.940798 0.799613 0.314769 -0.857123
H6    H     H_    0.035057 0.809275 0.360200 0.279455
H7    H     H_    0.996644 0.806984 0.265104 0.259024
C4    C     C_3   0.811032 0.360691 0.306045 0.379533
H8    H     H_    0.699736 0.386244 0.329050 0.080094
H9    H     H_    0.912253 0.402438 0.317099 0.131578
C5    C     C_3   0.781737 0.330639 0.224382 -0.093376
H10   H     H_    0.669506 0.294599 0.213360 0.174458
H11   H     H_    0.886277 0.297413 0.202478 0.147970
Ba1   Ba    Ba6+2 0.155460 0.532000 0.467920 1.578981
C6    C     C_3   0.999874 0.643932 0.697156 0.214759
H12   H     H_    0.103326 0.613635 0.671099 0.085215
H13   H     H_    0.894161 0.605234 0.691891 0.148450
C7    C     C_3   0.047997 0.679422 0.777488 -0.151174
H14   H     H_    0.182001 0.686807 0.785287 0.157181
H15   H     H_    0.997514 0.735264 0.794292 0.160107
C8    C     C_3   0.279550 0.304095 0.355537 0.256124
H16   H     H_    0.168220 0.334897 0.369707 0.070389
H17   H     H_    0.357483 0.307613 0.405754 0.108095
C9    C     C_3   0.228213 0.223878 0.320235 -0.096793
H18   H     H_    0.177009 0.218596 0.263951 0.135334
H19   H     H_    0.131235 0.205938 0.350790 0.076838
P4    P     P_3+3 0.869270 0.329940 0.430110 0.454659
O12   O     O_2   0.696020 0.320600 0.450800 -0.338413
O13   O     O_3   0.943900 0.410390 0.456390 -0.410184
O14   O     O_3   0.448150 0.376500 0.584290 -0.349728
O15   O     O_3   0.850253 0.301526 0.335400 -0.627578
P5    P     P_3+3 0.881040 0.422089 0.715472 0.463782
O16   O     O_3   0.365880 0.544470 0.588730 -0.399310
O17   O     O_3   0.859790 0.416060 0.623340 -0.347709
O18   O     O_2   0.775224 0.486091 0.750860 -0.367027
O19   O     O_3   0.792692 0.343506 0.733786 -0.512679
Ba2   Ba    Ba6+2 0.654730 0.467990 0.532020 1.594683
P6    P     P_3+3 0.375405 0.717988 0.422996 0.459500
C10   C     C_3   0.387628 0.681491 0.284371 0.538877
H20   H     H_    0.520070 0.679502 0.296548 -0.055611
H21   H     H_    0.412576 0.660435 0.168294 0.220030
O20   O     O_3   0.444420 0.455520 0.411210 -0.389342
C11   C     C_3   0.527472 0.701422 0.669417 0.982521
H22   H     H_    0.627214 0.666924 0.643864 0.002226
C12   C     C_3   0.608421 0.771915 0.716704 -0.852476
H23   H     H_    0.690437 0.758712 0.759539 0.230701
H24   H     H_    0.681041 0.799840 0.683089 0.209805
H25   H     H_    0.515276 0.809911 0.742888 0.250458
P7    P     P_3+3 0.430799 0.571619 0.681529 0.441216
O21   O     O_2   0.612810 0.550740 0.677950 -0.359089
O22   O     O_3   0.434979 0.667875 0.713559 -0.604417
H26   H     H_    0.845404 0.840722 0.329349 0.206862
C13   C     C_3   0.902166 0.286074 0.716880 0.245881
H27   H     H_    0.915578 0.269163 0.657234 0.097406
H28   H     H_    0.022781 0.302919 0.745422 -0.003962
C14   C     C_3   0.838167 0.220391 0.742549 -0.098878
H29   H     H_    0.730518 0.194287 0.707586 0.158398
H30   H     H_    0.800795 0.239902 0.799208 0.128352
P8    P     P_3+3 0.435183 0.281584 0.575233 0.482266
C15   C     C_3   0.362658 0.277696 0.703555 0.360400
H31   H     H_    0.256571 0.241405 0.678035 0.075873
O23   O     O_2   0.570413 0.246970 0.526229 -0.362243
O24   O     O_3   0.494757 0.265763 0.659254 -0.491974
H32   H     H_    0.328811 0.336265 0.714739 0.073023
H33   H     H_    0.301864 0.257811 0.806100 0.233439
C16   C     C_3   0.410554 0.258880 0.774808 -0.887949
H34   H     H_    0.501230 0.300338 0.807080 0.248110
H35   H     H_    0.462592 0.203328 0.764246 0.262085
C17   C     C_R   0.003727 0.952757 0.530414 0.030755
C18   C     C_R   0.085524 0.909012 0.570743 -0.157035
C19   C     C_R   0.227627 0.047986 0.552390 -0.123125
C20   C     C_R   0.067957 0.022825 0.526162 0.092118
C21   C     C_R   0.283948 0.118788 0.553450 -0.115185
C22   C     C_R   0.184044 0.167871 0.528241 0.022319
C23   C     C_R   0.028829 0.142184 0.495428 0.050022
C24   C     C_R   0.971265 0.069089 0.493513 0.064347
C25   C     C_R   0.234506 0.241930 0.534735 0.120706
C26   C     C_R   0.130233 0.289455 0.510000 -0.511263
C27   C     C_R   0.982668 0.264178 0.472273 0.243611
C28   C     C_R   0.932197 0.189169 0.463531 -0.071273
C29   C     C_R   0.849038 0.926876 0.496567 0.040943
C30   C     C_R   0.788127 0.855035 0.497634 0.018190
C31   C     C_R   0.881287 0.809437 0.532730 -0.052626
C32   C     C_R   0.024454 0.839749 0.572669 -0.049259
H36   H     H_    0.169016 0.346311 0.516349 0.180336
H37   H     H_    0.406530 0.134657 0.575292 0.161200
H38   H     H_    0.092722 0.810349 0.605762 0.189108
C33   C     C_R   0.790413 0.158932 0.422545 -0.026447
C34   C     C_R   0.734366 0.087833 0.420378 -0.167833
C35   C     C_R   0.817528 0.042970 0.458982 0.006945
C36   C     C_R   0.754344 0.972317 0.461965 0.058131
C37   C     C_R   0.596127 0.946540 0.433930 -0.203665
C38   C     C_R   0.632868 0.829310 0.464621 -0.016322
C39   C     C_R   0.537393 0.876840 0.435123 -0.166705
C40   C     C_R   0.577528 0.756838 0.462404 0.180882
C41   C     C_R   0.677976 0.710430 0.490965 -0.483973
C42   C     C_R   0.827095 0.735483 0.527380 0.250686
H39   H     H_    0.719903 0.189669 0.391601 0.208553
H40   H     H_    0.415305 0.861116 0.412651 0.182656
H41   H     H_    0.636422 0.654452 0.487403 0.169280
H42   H     H_    0.313401 0.013728 0.571989 0.121625
H43   H     H_    0.196212 0.927660 0.603264 0.138667
H44   H     H_    0.626119 0.068889 0.386494 0.187046
H45   H     H_    0.512113 0.979634 0.411745 0.157367
C43   C     C_R   0.388850 0.512827 0.806718 -0.181196
H46   H     H_    0.494693 0.546693 0.830355 0.170175
C44   C     C_R   0.329856 0.517413 0.736865 0.278826
C45   C     C_R   0.151475 0.439510 0.815513 -0.300349
H47   H     H_    0.067408 0.414915 0.843762 0.124092
C46   C     C_R   0.091271 0.447429 0.748257 0.220716
C47   C     C_R   0.636593 0.553209 0.187477 -0.326052
H48   H     H_    0.690894 0.589363 0.158255 0.139854
C48   C     C_R   0.701854 0.555130 0.257393 0.244027
C49   C     C_R   0.447294 0.456847 0.197835 -0.244722
H49   H     H_    0.368994 0.408982 0.175138 0.141923
C50   C     C_R   0.483272 0.474231 0.272864 0.318422
C51   C     C_R   0.308598 0.466360 0.845024 0.120989
C52   C     C_R   0.185047 0.481520 0.707308 -0.422498
H50   H     H_    0.138573 0.485351 0.654210 0.148649
C53   C     C_R   0.515162 0.499229 0.153459 0.115053
C54   C     C_R   0.614738 0.521844 0.302139 -0.401624
H51   H     H_    0.657064 0.528083 0.358127 0.147475
C55   C     C_R   0.167119 0.367606 0.942744 -0.178041
C56   C     C_R   0.058052 0.350618 0.990062 -0.084263
C57   C     C_R   0.061456 0.393082 0.061066 -0.128031
C58   C     C_R   0.183458 0.447219 0.086210 -0.202199
C59   C     C_R   0.311806 0.454490 0.042440 0.079444
C60   C     C_R   0.281576 0.426824 0.966342 0.101975
C61   C     C_R   0.469951 0.482793 0.071804 -0.076499
C62   C     C_R   0.589026 0.485250 0.020173 0.116453
C63   C     C_R   0.541128 0.472363 0.944426 0.056722
C64   C     C_R   0.378065 0.453408 0.918047 -0.074391
C65   C     C_R   0.757067 0.497287 0.040437 -0.208881
C66   C     C_R   0.866638 0.510320 0.991714 -0.101685
C67   C     C_R   0.818407 0.497248 0.919130 0.017241
C68   C     C_R   0.662185 0.470645 0.895384 -0.186536
H52   H     H_    0.164241 0.332639 0.888528 0.126364
H53   H     H_    0.968268 0.306166 0.971089 0.136340
H54   H     H_    0.972220 0.383088 0.097038 0.170048
H55   H     H_    0.181334 0.480490 0.140740 0.186584
H56   H     H_    0.808848 0.495027 0.092745 0.170594
H57   H     H_    0.991637 0.526299 0.009432 0.154487
H58   H     H_    0.903650 0.505081 0.880986 0.189325
H59   H     H_    0.635531 0.446989 0.838515 0.187423
O25   O     O_3   0.765997 0.388625 0.190765 -0.764221
H60   H     H_    0.719035 0.366454 0.140892 0.324381
N1    N     N_R   0.988601 0.635682 0.824862 0.241895
O26   O     O_R   0.833831 0.632073 0.834043 -0.383931
O27   O     O_R   0.090421 0.614005 0.869132 -0.420819
N2    N     N_R   0.365370 0.175949 0.318991 0.265292
O28   O     O_R   0.487418 0.181742 0.279949 -0.377282
O29   O     O_R   0.360892 0.123798 0.353078 -0.435724
O30   O     O_3   0.424948 0.719936 0.616236 -0.746302
H61   H     H_    0.417102 0.676243 0.574345 0.327868
N3    N     N_R   0.962972 0.166044 0.739907 0.238810
O31   O     O_R   0.021626 0.151566 0.799419 -0.386995
O32   O     O_R   0.011840 0.129736 0.677810 -0.426584

loop_
_geom_bond_atom_site_label_1
_geom_bond_atom_site_label_2
_geom_bond_distance
_ccdc_geom_bond_type
C45   C51   1.417165 A    
P7    O22   1.754810 S    
C67   H58   1.070430 S    
P6    C40   1.850963 S    
C14   H30   1.112691 S    
C14   H29   1.109855 S    
O5    C6    1.396575 S    
C26   C27   1.393209 A    
P8    O23   1.542011 D    
O6    P6    1.749106 S    
O7    Ba1   2.871408 S    
C47   H48   1.081051 S    
H1    C10   1.112116 S    
C5    O25   1.395388 S    
C52   H50   1.082218 S    
N2    O29   1.300450 A    
C15   H31   1.110568 S    
N3    O31   1.300768 A    
C4    C5    1.522392 S    
O16   Ba2   2.924297 S    
P3    O11   1.747893 S    
P4    C27   1.869725 S    
C23   C24   1.431619 A    
C5    H10   1.114492 S    
C7    H15   1.112578 S    
C46   C52   1.379551 A    
O14   P8    1.744500 S    
C41   C42   1.393796 A    
C37   C39   1.389491 A    
C8    H16   1.105165 S    
O2    Ba2   2.800230 S    
C34   C35   1.412072 A    
C15   C16   1.518977 S    
C58   C59   1.406315 A    
P1    Ba1   3.415344 S    
C29   C36   1.421384 A    
C36   C37   1.413384 A    
C11   C12   1.522031 S    
P1    O1    1.520500 D    
C9    H18   1.111752 S    
Ba1   O20   2.925064 S    
C38   C39   1.399653 A    
C43   C51   1.438199 A    
C12   H24   1.111270 S    
P8    C25   1.850309 S    
C18   C32   1.392135 A    
P2    O20   1.564972 S    
O30   H61   0.990684 S    
C62   C63   1.435369 A    
N3    O32   1.299503 A    
P5    O17   1.729524 S    
Ba1   O13   2.799680 S    
P2    O10   1.750375 S    
P3    C48   1.844642 S    
C13   H27   1.113605 S    
C1    H2    1.110142 S    
C3    H26   1.110367 S    
C44   C52   1.381165 A    
C26   H36   1.081847 S    
C28   C33   1.399635 A    
P7    O21   1.560893 D    
C50   C54   1.391351 A    
C9    H19   1.107287 S    
N1    O26   1.300968 A    
O6    C10   1.401708 S    
O19   C13   1.406443 S    
C40   C41   1.398270 A    
P4    O13   1.568404 S    
C23   C28   1.422021 A    
C58   H55   1.072713 S    
Ba2   O20   2.768065 S    
P5    C46   1.825607 S    
P1    O5    1.749355 S    
C6    C7    1.537757 S    
C53   C61   1.533251 S    
C2    C3    1.520867 S    
C31   C42   1.424989 A    
C55   C56   1.392045 A    
C8    C9    1.528628 S    
C59   C61   1.430628 A    
N2    O28   1.301037 A    
C17   C18   1.412945 A    
C56   H53   1.082432 S    
Ba2   O21   2.871656 S    
C4    H8    1.105387 S    
C51   C64   1.552493 S    
C68   H59   1.073453 S    
C11   H22   1.114117 S    
P1    O2    1.568401 S    
C7    H14   1.109452 S    
C6    H13   1.107238 S    
C47   C53   1.419379 A    
C18   H43   1.077674 S    
C12   H23   1.110659 S    
C49   C53   1.421350 A    
C1    H3    1.110643 S    
C16   H34   1.110837 S    
C15   H32   1.109749 S    
C66   C67   1.378689 A    
P5    O18   1.536792 D    
C27   C28   1.424719 A    
O13   Ba2   2.938587 S    
C13   C14   1.526149 S    
C1    C10   1.521157 S    
C63   C64   1.418308 A    
C14   N3    1.457475 S    
O2    Ba1   2.937821 S    
O16   P7    1.765190 S    
C4    O15   1.395557 S    
C39   H40   1.079784 S    
O14   Ba2   2.780946 S    
C41   H41   1.081662 S    
C16   H35   1.110310 S    
P2    O7    1.499958 D    
O12   Ba2   2.850424 S    
H33   C16   1.105091 S    
C32   H38   1.079328 S    
P2    C50   1.841828 S    
P3    O8    1.732743 S    
P2    Ba1   3.435786 S    
C45   H47   1.063541 S    
P7    C44   1.849377 S    
C4    H9    1.107984 S    
P1    C42   1.870235 S    
C35   C36   1.428038 A    
C19   H42   1.077875 S    
C49   H49   1.079211 S    
C48   C54   1.392598 A    
C62   C65   1.418354 A    
C22   C23   1.416353 A    
P4    O12   1.520875 D    
C61   C62   1.433906 A    
C15   O24   1.401312 S    
C10   H20   1.108879 S    
C1    H21   1.109230 S    
C65   H56   1.074151 S    
C12   H25   1.110997 S    
C34   H44   1.074450 S    
C57   C58   1.392933 A    
O4    P6    1.541830 D    
P8    O24   1.745689 S    
C19   C21   1.391680 A    
C59   C60   1.420518 A    
C49   C50   1.399345 A    
C17   C20   1.428044 A    
C47   C48   1.401747 A    
C55   C60   1.411450 A    
O8    Ba1   2.725049 S    
O25   H60   0.992659 S    
C33   C34   1.391353 A    
C7    N1    1.455946 S    
C65   C66   1.388722 A    
C30   C31   1.422278 A    
C33   H39   1.078407 S    
O17   Ba2   2.725868 S    
C11   O30   1.399230 S    
C6    H12   1.105943 S    
C2    H4    1.112999 S    
N1    O27   1.300327 A    
O3    P6    1.742153 S    
C56   C57   1.388259 A    
C24   C35   1.417979 A    
C22   C25   1.414393 A    
C8    H17   1.111573 S    
C30   C38   1.418003 A    
C37   H45   1.077118 S    
C21   C22   1.401382 A    
P5    O19   1.748301 S    
C9    N2    1.457064 S    
C5    H11   1.112642 S    
C31   C32   1.401051 A    
C66   H57   1.081197 S    
C3    H7    1.110540 S    
O10   C8    1.399667 S    
Ba1   Ba2   4.506742 S    
C20   C24   1.420326 A    
C25   C26   1.397010 A    
C17   C29   1.419573 A    
C38   C40   1.413661 A    
C21   H37   1.080622 S    
O3    Ba1   2.781510 S    
C54   H51   1.081903 S    
P4    Ba2   3.415856 S    
C19   C20   1.413528 A    
C11   O22   1.411387 S    
C29   C30   1.432356 A    
C63   C68   1.398408 A    
P3    O9    1.544545 D    
C45   C46   1.392697 A    
O11   C2    1.405386 S    
C3    H6    1.110538 S    
O1    Ba1   2.849883 S    
C13   H28   1.109988 S    
C67   C68   1.384563 A    
Ba1   O16   2.768594 S    
C57   H54   1.075629 S    
C43   H46   1.078758 S    
C43   C44   1.415803 A    
C60   C64   1.419151 A    
P4    O15   1.747858 S    
C55   H52   1.076735 S    
C2    H5    1.110645 S    
