data_mof_unit_565.cif
_audit_creation_date              2012-12-10T18:05:13-0500
_audit_creation_method            fapswitch 2.2
_symmetry_space_group_name_H-M    P1
_symmetry_Int_Tables_number       1
_space_group_crystal_system       triclinic
_cell_length_a                    9.634958
_cell_length_b                    10.816677
_cell_length_c                    17.108155
_cell_angle_alpha                 84.134704
_cell_angle_beta                  92.70305
_cell_angle_gamma                 90.440955
_cell_volume                      1771.66666879

loop_
_atom_site_label
_atom_site_type_symbol
_atom_type_description
_atom_site_fract_x
_atom_site_fract_y
_atom_site_fract_z
_atom_type_partial_charge
C1    C     C_R   0.499646 0.262271 0.501412 0.752928
C2    C     C_R   0.500301 0.736856 0.504421 0.749587
C3    C     C_R   0.373646 0.935930 0.499251 -0.180271
C4    C     C_R   0.622332 0.061504 0.524607 -0.163566
C5    C     C_R   0.498713 0.870024 0.511321 0.018676
C6    C     C_R   0.498963 0.127776 0.505876 -0.006580
C7    C     C_R   0.079950 0.407335 0.543414 0.444944
C8    C     C_R   0.921768 0.586136 0.451753 0.424235
C9    C     C_R   0.929916 0.406556 0.544233 0.360166
C10   C     C_R   0.070040 0.579253 0.446741 0.320909
C11   C     C_R   0.515431 0.506924 0.650288 0.855052
C12   C     C_R   0.483539 0.489709 0.349676 0.888397
C13   C     C_R   0.517485 0.516279 0.736364 -0.393836
C14   C     C_R   0.470135 0.463151 0.264867 -0.378828
C15   C     C_R   0.392228 0.509856 0.775367 0.276396
C16   C     C_R   0.578066 0.414006 0.222453 0.206355
C17   C     C_R   0.393232 0.460193 0.854193 0.258817
C18   C     C_R   0.546625 0.383817 0.144736 0.218665
C19   C     C_R   0.518892 0.464439 0.900926 0.064623
C20   C     C_R   0.430601 0.441639 0.102020 0.057926
C21   C     C_R   0.642423 0.504664 0.864043 0.269313
C22   C     C_R   0.322319 0.482972 0.144748 0.257304
C23   C     C_R   0.642179 0.528754 0.781269 0.249271
C24   C     C_R   0.336429 0.472700 0.226774 0.265357
C25   C     C_R   0.373798 0.064129 0.495157 -0.195962
C26   C     C_R   0.621090 0.933064 0.529603 -0.214903
Cu1   Cu    Cu3+1 0.640660 0.500020 0.500000 1.037960
Cu2   Cu    Cu3+1 0.359340 0.499980 0.500000 1.021614
H1    H     H_    0.276099 0.112906 0.483626 0.177128
H2    H     H_    0.715243 0.883791 0.548269 0.132171
H3    H     H_    0.275501 0.889325 0.493278 0.130673
H4    H     H_    0.719545 0.108299 0.535681 0.204820
N1    N     N_2   0.525999 0.436196 0.984296 -0.029760
N2    N     N_2   0.419302 0.461180 0.018049 -0.039164
N3    N     N_R   0.852070 0.500030 0.499980 -0.262808
N4    N     N_R   0.147930 0.499970 0.500020 -0.268973
O1    O     O_R   0.618740 0.319660 0.500000 -0.535388
O2    O     O_R   0.381260 0.680340 0.500000 -0.601274
O3    O     O_R   0.381170 0.319630 0.500010 -0.551134
O4    O     O_R   0.618830 0.680370 0.499990 -0.583370
O5    O     O_R   0.631780 0.498870 0.613920 -0.600894
O6    O     O_R   0.368220 0.501130 0.386080 -0.527436
O7    O     O_R   0.394210 0.498840 0.613930 -0.504888
O8    O     O_R   0.605790 0.501160 0.386070 -0.465081
S1    S     S_3+6 0.751084 0.394647 0.262459 0.075343
O9    O     O_2   0.751272 0.316186 0.340209 -0.273459
O10   O     O_2   0.845436 0.335886 0.209655 -0.204349
O11   O     O_3   0.816035 0.535782 0.274471 -0.437630
H5    H     H_    0.806678 0.582823 0.221705 0.363653
S2    S     S_3+6 0.251899 0.607748 0.737922 0.048592
O12   O     O_2   0.137444 0.532520 0.703372 -0.301218
O13   O     O_2   0.197286 0.672536 0.803724 -0.224634
O14   O     O_3   0.306150 0.716457 0.668471 -0.552776
H6    H     H_    0.220277 0.757869 0.645223 0.350093
S3    S     S_3+6 0.616170 0.246052 0.112857 0.109206
O15   O     O_2   0.743324 0.276866 0.067159 -0.125482
O16   O     O_2   0.654442 0.154103 0.182378 -0.266617
O17   O     O_3   0.498740 0.178830 0.054931 -0.452293
H7    H     H_    0.423027 0.151199 0.089946 0.347132
S4    S     S_3+6 0.240358 0.382807 0.887498 0.129497
O18   O     O_2   0.146570 0.476388 0.916028 -0.106015
O19   O     O_2   0.165748 0.326177 0.820960 -0.298563
O20   O     O_3   0.275986 0.269057 0.959849 -0.486752
H8    H     H_    0.184147 0.238594 0.977307 0.392560
S5    S     S_3+6 0.798799 0.519868 0.921478 0.131235
O21   O     O_2   0.869479 0.395622 0.932311 -0.157156
O22   O     O_2   0.893989 0.614276 0.881328 -0.222343
O23   O     O_3   0.764532 0.564184 0.010038 -0.506304
H9    H     H_    0.856477 0.578586 0.035814 0.403684
S6    S     S_3+6 0.163857 0.537829 0.097689 0.069274
O24   O     O_2   0.085641 0.429654 0.068577 -0.216252
O25   O     O_2   0.076142 0.597299 0.153747 -0.270121
O26   O     O_3   0.197609 0.643853 0.021998 -0.466315
H10   H     H_    0.105922 0.679116 0.003393 0.395695
O27   O     O_3   0.762507 0.568375 0.745023 -0.513567
C27   C     C_3   0.750392 0.697120 0.720193 0.183141
H11   H     H_    0.735354 0.751155 0.771205 0.164134
H12   H     H_    0.662067 0.716816 0.676539 0.128367
C28   C     C_3   0.882213 0.743119 0.681263 -0.711029
H13   H     H_    0.900888 0.690541 0.630280 0.221405
H14   H     H_    0.872770 0.843511 0.660714 0.157807
H15   H     H_    0.971377 0.731092 0.724402 0.318740
O28   O     O_3   0.218575 0.459025 0.269796 -0.459796
C29   C     C_3   0.180835 0.331545 0.277064 0.150326
H16   H     H_    0.272107 0.267482 0.282973 0.075056
H17   H     H_    0.115854 0.311279 0.224528 0.214475
C30   C     C_3   0.098055 0.301864 0.350040 -0.593853
H18   H     H_    0.016145 0.372306 0.352509 0.308940
H19   H     H_    0.049529 0.208479 0.349558 0.190475
H20   H     H_    0.167972 0.302160 0.403176 0.232763
O29   O     O_3   0.156856 0.300271 0.565137 -0.566773
C31   C     C_3   0.140536 0.247762 0.642606 0.127995
H21   H     H_    0.076113 0.163133 0.639652 0.178627
H22   H     H_    0.094278 0.312619 0.680089 0.208845
C32   C     C_3   0.280709 0.204424 0.679980 -0.708227
H23   H     H_    0.350498 0.284674 0.686863 0.235319
H24   H     H_    0.266136 0.154077 0.738891 0.241111
H25   H     H_    0.330172 0.140019 0.643348 0.230188
O30   O     O_3   0.844688 0.658370 0.394180 -0.472010
C33   C     C_3   0.849015 0.784632 0.408054 0.063027
H26   H     H_    0.947530 0.828900 0.392114 0.123857
H27   H     H_    0.836469 0.796225 0.470600 0.113623
C34   C     C_3   0.737160 0.855223 0.355909 -0.663056
H28   H     H_    0.633787 0.811619 0.364440 0.229229
H29   H     H_    0.733426 0.953174 0.369802 0.219149
H30   H     H_    0.761387 0.854484 0.293119 0.250738
O31   O     O_3   0.867473 0.294581 0.571780 -0.584558
C35   C     C_3   0.810294 0.298178 0.646614 0.096578
H31   H     H_    0.696418 0.300050 0.637917 0.193507
H32   H     H_    0.847888 0.377780 0.678427 0.209714
C36   C     C_3   0.833844 0.176763 0.699859 -0.875687
H33   H     H_    0.928521 0.181886 0.738755 0.261348
H34   H     H_    0.745858 0.159698 0.739390 0.242444
H35   H     H_    0.840505 0.096503 0.664638 0.246472
O32   O     O_3   0.121710 0.612303 0.372995 -0.470367
C37   C     C_3   0.185250 0.730569 0.366209 0.178725
H36   H     H_    0.299378 0.720387 0.367697 0.165307
H37   H     H_    0.159058 0.787845 0.413173 0.047356
C38   C     C_3   0.145982 0.798727 0.285874 -0.707444
H38   H     H_    0.032536 0.792782 0.272253 0.275948
H39   H     H_    0.176958 0.897977 0.284784 0.178231
H40   H     H_    0.201313 0.756805 0.239639 0.276548

loop_
_geom_bond_atom_site_label_1
_geom_bond_atom_site_label_2
_ccdc_geom_bond_type
S3    O15   D    
C32   H23   S    
O26   H10   S    
C36   H33   S    
C27   C28   S    
C30   H18   S    
C32   H25   S    
O14   H6    S    
C35   H31   S    
S4    O20   S    
C35   C36   S    
C19   C21   A    
C8    O30   S    
C27   H12   S    
C38   H40   S    
C6    C25   A    
O32   C37   S    
C37   H36   S    
C13   C23   A    
S4    O19   D    
C7    N4    A    
C15   S2    S    
C14   C24   A    
C2    O2    A    
C33   H26   S    
C12   O6    A    
Cu1   O8    S    
C34   H29   S    
O28   C29   S    
C35   H32   S    
O23   H9    S    
S5    O22   D    
S2    O13   D    
O31   C35   S    
C29   C30   S    
C11   O7    A    
S6    O24   D    
C34   H30   S    
C18   C20   A    
C1    O1    A    
C20   N2    S    
S1    O10   D    
C33   H27   S    
S2    O12   D    
C38   H39   S    
C25   H1    S    
S2    O14   S    
C1    C6    S    
C3    C25   A    
C27   H11   S    
C4    C6    A    
C19   N1    S    
O29   C31   S    
C28   H14   S    
Cu2   O3    S    
Cu1   N3    S    
O17   H7    S    
S1    O9    D    
C31   C32   S    
O20   H8    S    
S4    O18   D    
C10   N4    A    
C8    N3    A    
O27   C27   S    
Cu1   O5    S    
O30   C33   S    
Cu2   O2    S    
Cu1   O4    S    
S5    O23   S    
C7    O29   S    
S6    O26   S    
C31   H22   S    
N1    N2    D    
C36   H34   S    
S3    O16   D    
C29   H16   S    
C3    H3    S    
C4    H4    S    
C18   S3    S    
C16   C18   A    
O11   H5    S    
C12   C14   S    
C26   H2    S    
C13   C15   A    
C14   C16   A    
C28   H13   S    
S3    O17   S    
C2    C5    S    
C20   C22   A    
Cu1   Cu2   S    
S1    O11   S    
C7    C9    A    
C21   S5    S    
C24   O28   S    
C23   O27   S    
C3    C5    A    
C16   S1    S    
C28   H15   S    
C4    C26   A    
C38   H38   S    
C32   H24   S    
C15   C17   A    
C9    O31   S    
Cu2   O7    S    
C37   C38   S    
C21   C23   A    
C12   O8    A    
C11   C13   S    
Cu1   O1    S    
Cu2   O6    S    
C31   H21   S    
C17   C19   A    
C37   H37   S    
C11   O5    A    
C36   H35   S    
C22   C24   A    
C33   C34   S    
C1    O3    A    
C17   S4    S    
C5    C26   A    
C2    O4    A    
Cu2   N4    S    
C8    C10   A    
S5    O21   D    
C30   H20   S    
C34   H28   S    
C9    N3    A    
C30   H19   S    
C29   H17   S    
S6    O25   D    
C22   S6    S    
C10   O32   S    
