data_mof_unit_2462.cif
_audit_creation_date              2013-03-05T16:06:17-0500
_audit_creation_method            fapswitch 2.2
_symmetry_space_group_name_H-M    P1
_symmetry_Int_Tables_number       1
_space_group_crystal_system       triclinic
_cell_length_a                    10.903572
_cell_length_b                    9.676773
_cell_length_c                    27.783929
_cell_angle_alpha                 91.846983
_cell_angle_beta                  101.358122
_cell_angle_gamma                 90.170684
_cell_volume                      2872.48497493

loop_
_atom_site_label
_atom_site_type_symbol
_atom_site_description
_atom_site_fract_x
_atom_site_fract_y
_atom_site_fract_z
_atom_type_partial_charge
O1    O     O_R   0.319640 0.618740 0.500000 -0.494186
O2    O     O_R   0.680360 0.381260 0.500000 -0.486044
O3    O     O_R   0.680360 0.618740 0.500000 -0.502435
O4    O     O_R   0.319640 0.381260 0.500000 -0.506880
C1    C     C_R   0.263291 0.500046 0.502041 0.930819
C2    C     C_R   0.736376 0.500383 0.497610 0.925334
O5    O     O_R   0.500020 0.618770 0.430260 -0.532501
O6    O     O_R   0.499980 0.381230 0.569740 -0.536104
O7    O     O_R   0.499980 0.618770 0.569740 -0.546188
O8    O     O_R   0.500020 0.381230 0.430260 -0.506012
C3    C     C_R   0.501194 0.498220 0.407876 0.813546
C4    C     C_R   0.496422 0.501716 0.592207 0.836276
Cu1   Cu    Cu3+1 0.500000 0.640660 0.500000 1.108188
Cu2   Cu    Cu3+1 0.500000 0.359340 0.500000 1.119156
C5    C     C_R   0.421818 0.587509 0.174533 0.585963
C6    C     C_R   0.583748 0.438609 0.828510 0.578889
O9    O     O_2   0.349614 0.674500 0.195529 -0.498835
O10   O     O_2   0.669108 0.366118 0.809217 -0.510096
N1    N     N_R   0.500585 0.499216 0.202979 -0.470736
N2    N     N_R   0.495174 0.514233 0.798648 -0.463596
C7    C     C_R   0.573026 0.407946 0.182652 0.559663
C8    C     C_R   0.413797 0.596314 0.818281 0.552747
C9    C     C_R   0.606774 0.546485 0.288639 -0.063979
C10   C     C_R   0.492899 0.634486 0.721297 -0.076218
C11   C     C_R   0.606686 0.546082 0.338886 -0.249814
C12   C     C_R   0.489415 0.631298 0.670873 -0.198743
C13   C     C_R   0.397930 0.445813 0.321437 -0.092335
C14   C     C_R   0.487771 0.381149 0.669763 -0.152105
C15   C     C_R   0.397783 0.446653 0.271302 -0.086256
C16   C     C_R   0.485463 0.384302 0.719819 -0.085295
C17   C     C_R   0.502022 0.497178 0.254684 0.326476
C18   C     C_R   0.490712 0.510998 0.746320 0.311744
C19   C     C_R   0.493495 0.499751 0.102236 -0.047022
C20   C     C_R   0.503212 0.518593 0.899825 -0.048624
C21   C     C_R   0.415315 0.587516 0.123529 -0.096945
C22   C     C_R   0.588000 0.437934 0.879423 -0.090918
C23   C     C_R   0.325294 0.664472 0.093236 -0.154396
C24   C     C_R   0.681608 0.367446 0.910546 -0.145843
C25   C     C_R   0.570335 0.406037 0.131910 -0.016411
C26   C     C_R   0.419950 0.604025 0.869217 -0.008996
C27   C     C_R   0.502463 0.495018 0.355417 -0.003203
C28   C     C_R   0.491225 0.504903 0.644892 -0.076924
H1    H     H_    0.315636 0.409198 0.333454 0.171482
H2    H     H_    0.486658 0.281739 0.650616 0.191937
H3    H     H_    0.316445 0.408747 0.245267 0.161759
H4    H     H_    0.481089 0.287828 0.738124 0.168542
H5    H     H_    0.256857 0.721822 0.109075 0.230245
H6    H     H_    0.754564 0.315814 0.895590 0.227574
C29   C     C_R   0.417635 0.600898 0.970814 0.081348
C30   C     C_R   0.576935 0.417662 0.030946 0.051243
C31   C     C_R   0.590505 0.432695 0.981587 -0.095672
C32   C     C_R   0.407029 0.589636 0.020824 -0.078800
C33   C     C_R   0.502886 0.515944 0.950876 0.054505
C34   C     C_R   0.493405 0.503866 0.051203 0.043059
C35   C     C_R   0.354320 0.703231 0.940751 -0.111905
C36   C     C_R   0.635915 0.310557 0.059806 -0.094187
C37   C     C_R   0.349326 0.699948 0.890396 -0.118794
C38   C     C_R   0.637098 0.307920 0.109849 -0.109764
O11   O     O_2   0.325913 0.669055 0.788672 -0.529049
O12   O     O_2   0.646395 0.318585 0.211365 -0.517722
C39   C     C_R   0.311253 0.654638 0.042141 0.374424
C40   C     C_R   0.690548 0.373586 0.961443 0.286498
H7    H     H_    0.485258 0.727839 0.652327 0.206842
H8    H     H_    0.687854 0.584660 0.364830 0.115615
H9    H     H_    0.497318 0.733516 0.740865 0.174680
H10   H     H_    0.687556 0.585960 0.276042 0.151525
H11   H     H_    0.292879 0.775718 0.868386 0.198338
H12   H     H_    0.689065 0.227421 0.130975 0.200215
H13   H     H_    0.309366 0.788382 0.955713 0.209454
H14   H     H_    0.680060 0.226172 0.043909 0.204796
C41   C     C_R   0.062539 0.373820 0.499189 0.340497
C42   C     C_R   0.936648 0.628138 0.499635 0.347271
C43   C     C_R   0.931127 0.376234 0.488940 0.379010
C44   C     C_R   0.066125 0.626964 0.504938 0.359143
C45   C     C_R   0.869123 0.502046 0.494381 -0.398824
C46   C     C_R   0.129051 0.500275 0.502790 -0.375310
C47   C     C_R   0.418461 0.070781 0.463348 0.282036
C48   C     C_R   0.585775 0.928139 0.534981 0.307554
C49   C     C_R   0.586167 0.079278 0.534855 0.305581
C50   C     C_R   0.415840 0.920173 0.464614 0.318321
N3    N     N_R   0.500000 0.852070 0.500000 -0.321974
N4    N     N_R   0.500000 0.147930 0.500000 -0.306186
S1    S     S_3+6 0.335255 0.154767 0.407521 0.065751
O13   O     O_2   0.427271 0.162125 0.373873 -0.262248
O14   O     O_2   0.221885 0.081187 0.378758 -0.235191
O15   O     O_3   0.280047 0.313854 0.415170 -0.541754
H15   H     H_    0.199022 0.320950 0.391890 0.327987
S2    S     S_3+6 0.692297 0.843923 0.585260 0.114062
O16   O     O_2   0.822256 0.901724 0.591218 -0.186541
O17   O     O_2   0.644026 0.877938 0.631216 -0.303439
O18   O     O_3   0.718478 0.673693 0.586108 -0.489759
H16   H     H_    0.768188 0.656616 0.619236 0.355538
S3    S     S_3+6 0.712953 0.172733 0.577517 0.117031
O19   O     O_2   0.721079 0.122397 0.628526 -0.218433
O20   O     O_2   0.832063 0.137953 0.560535 -0.215900
O21   O     O_3   0.719711 0.344684 0.586737 -0.509590
H17   H     H_    0.803023 0.364809 0.607543 0.358150
S4    S     S_3+6 0.300535 0.825817 0.418037 0.106561
O22   O     O_2   0.174117 0.880146 0.422443 -0.298386
O23   O     O_2   0.329670 0.858507 0.368893 -0.210247
O24   O     O_3   0.277934 0.654208 0.414216 -0.508644
H18   H     H_    0.209324 0.636792 0.385446 0.345326
S5    S     S_3+6 0.157558 0.691118 0.009555 0.029693
O25   O     O_2   0.126817 0.608750 0.961848 -0.236445
O26   O     O_2   0.064459 0.654079 0.040500 -0.239672
O27   O     O_3   0.145395 0.861217 0.998988 -0.534199
H19   H     H_    0.058566 0.873287 0.980803 0.398520
S6    S     S_3+6 0.842642 0.340363 0.996238 0.049738
O28   O     O_2   0.857030 0.187717 0.003783 -0.258353
O29   O     O_2   0.939581 0.385722 0.968216 -0.186323
O30   O     O_3   0.869225 0.425743 0.051055 -0.466067
H20   H     H_    0.844135 0.522219 0.043598 0.366909
O31   O     O_3   0.127433 0.256014 0.516653 -0.563858
C51   C     C_3   0.101668 0.141093 0.483772 -0.018747
H21   H     H_    0.084523 0.169805 0.444646 0.153847
H22   H     H_    0.023157 0.078797 0.491944 0.212108
H23   H     H_    0.184455 0.073357 0.490239 0.172931
O32   O     O_3   0.878755 0.753739 0.503955 -0.494957
C52   C     C_3   0.851327 0.813116 0.457418 -0.170013
H24   H     H_    0.787986 0.745291 0.430279 0.117417
H25   H     H_    0.937992 0.836819 0.443731 0.192148
H26   H     H_    0.802155 0.912039 0.460909 0.182989
O33   O     O_3   0.864298 0.254259 0.476707 -0.527172
C53   C     C_3   0.817304 0.248661 0.425495 -0.277199
H27   H     H_    0.893482 0.256542 0.404305 0.136198
H28   H     H_    0.747602 0.330937 0.414315 0.154596
H29   H     H_    0.769193 0.147678 0.415403 0.198802
O34   O     O_3   0.130101 0.752072 0.512009 -0.525698
C54   C     C_3   0.162300 0.783628 0.562879 -0.170273
H30   H     H_    0.222497 0.702370 0.582666 0.121446
H31   H     H_    0.077493 0.798911 0.579019 0.212785
H32   H     H_    0.216637 0.881927 0.568460 0.172107

loop_
_geom_bond_atom_site_label_1
_geom_bond_atom_site_label_2
_geom_bond_distance
_ccdc_geom_bond_type
O24   H18   0.990976 S    
C13   C15   1.392928 A    
O30   H20   0.990460 S    
O3    C2    1.305536 A    
N1    C17   1.434325 S    
O34   C54   1.410748 S    
C51   H21   1.110669 S    
O33   C53   1.413412 S    
C5    N1    1.368498 A    
S3    O19   1.499642 D    
C44   C46   1.411974 A    
O1    C1    1.309069 A    
C9    H10   1.082723 S    
N1    C7    1.367692 A    
C10   C12   1.393335 A    
C49   S3    1.847149 S    
C32   C39   1.435466 A    
C41   C46   1.411229 A    
C47   C50   1.459286 A    
C40   S6    1.783218 S    
O27   H19   0.990602 S    
C47   S1    1.849548 S    
C48   S2    1.845137 S    
Cu1   N3    2.045767 S    
S6    O28   1.502935 D    
C41   O31   1.393161 S    
C14   C28   1.405823 A    
O7    Cu1   1.956013 S    
O32   C52   1.409950 S    
C4    C28   1.475339 S    
C44   O34   1.384384 S    
C36   C38   1.388960 A    
C43   O33   1.382431 S    
C23   H5    1.083771 S    
C24   H6    1.083635 S    
O3    Cu1   1.978603 S    
O6    C4    1.308983 A    
C54   H32   1.109421 S    
C50   S4    1.834437 S    
S3    O20   1.502095 D    
Cu1   Cu2   2.722270 S    
C43   C45   1.412584 A    
O2    C2    1.312613 A    
C31   C40   1.433138 A    
C37   H11   1.083376 S    
C42   C45   1.411743 A    
C5    C21   1.404852 A    
C32   C34   1.423028 A    
C52   H25   1.111777 S    
C2    C45   1.467800 S    
C7    O12   1.349579 S    
C42   C44   1.390387 A    
O8    Cu2   1.956012 S    
C11   C27   1.401213 A    
O18   H16   0.991033 S    
C41   C43   1.405224 A    
C48   C49   1.462644 A    
C50   N3    1.390317 A    
C29   C35   1.408944 A    
C25   C38   1.396226 A    
C14   H2    1.083019 S    
C30   C36   1.408959 A    
C15   H3    1.082869 S    
C31   C33   1.420410 A    
C11   H8    1.082427 S    
C9    C17   1.401984 A    
O5    C3    1.305451 A    
C12   H7    1.078142 S    
C10   C18   1.404208 A    
C13   C27   1.400388 A    
C23   C39   1.397640 A    
S1    O13   1.502984 D    
C7    C25   1.403862 A    
S2    O18   1.672784 S    
C6    N2    1.372716 A    
C29   C32   1.424376 A    
C8    C26   1.403088 A    
O21   H17   0.991030 S    
C30   C31   1.419996 A    
S5    O26   1.503189 D    
C6    O10   1.349742 S    
C19   C25   1.408791 A    
C35   H13   1.073592 S    
C10   H9    1.082603 S    
C53   H29   1.109078 S    
C38   H12   1.083279 S    
S1    O14   1.497527 D    
S2    O17   1.501442 D    
S3    O21   1.674542 S    
C36   H14   1.075367 S    
C35   C37   1.388689 A    
C20   C26   1.405889 A    
O1    Cu1   1.977346 S    
Cu2   N4    2.045768 S    
C8    O11   1.349562 S    
C12   C28   1.402230 A    
C53   H28   1.111099 S    
O31   C51   1.407744 S    
N2    C18   1.444389 S    
C52   H26   1.109393 S    
C21   C23   1.394898 A    
C19   C34   1.419542 A    
C5    O9    1.349775 S    
O6    Cu2   1.942440 S    
C26   C37   1.395852 A    
C39   S5    1.783032 S    
O15   H15   0.990822 S    
C16   H4    1.082749 S    
N2    C8    1.372088 A    
O4    C1    1.309848 A    
C49   N4    1.395948 A    
C51   H22   1.109093 S    
C52   H24   1.112020 S    
S4    O24   1.674985 S    
S4    O23   1.504476 D    
S6    O30   1.682229 S    
C1    C46   1.467939 S    
C22   C24   1.396166 A    
C54   H30   1.113624 S    
C30   C34   1.420682 A    
C6    C22   1.406398 A    
C16   C18   1.404745 A    
C48   N3    1.397472 A    
C47   N4    1.405434 A    
C29   C33   1.422926 A    
C14   C16   1.395287 A    
C19   C21   1.403030 A    
S6    O29   1.503135 D    
C3    C27   1.459646 S    
S5    O27   1.682332 S    
C20   C22   1.402642 A    
C9    C11   1.396354 A    
O4    Cu2   1.978603 S    
O2    Cu2   1.977346 S    
O7    C4    1.314929 A    
C51   H23   1.106331 S    
O8    C3    1.310348 A    
C13   H1    1.079757 S    
O5    Cu1   1.942439 S    
S1    O15   1.676984 S    
S2    O16   1.498371 D    
C20   C33   1.420167 A    
C15   C17   1.400691 A    
S4    O22   1.502671 D    
C42   O32   1.383875 S    
S5    O25   1.503282 D    
C54   H31   1.112603 S    
C53   H27   1.112431 S    
C24   C40   1.397495 A    
