data_mof_unit_3931.cif
_audit_creation_date              2013-03-05T15:44:23-0500
_audit_creation_method            fapswitch 2.2
_symmetry_space_group_name_H-M    P1
_symmetry_Int_Tables_number       1
_space_group_crystal_system       triclinic
_cell_length_a                    19.040349
_cell_length_b                    11.260125
_cell_length_c                    18.728689
_cell_angle_alpha                 90.056072
_cell_angle_beta                  90.945731
_cell_angle_gamma                 90.228444
_cell_volume                      4014.78821275

loop_
_atom_site_label
_atom_site_type_symbol
_atom_site_description
_atom_site_fract_x
_atom_site_fract_y
_atom_site_fract_z
_atom_type_partial_charge
O1    O     O_R   0.784320 0.290430 0.830510 -0.492789
O2    O     O_R   0.215680 0.290430 0.169490 -0.260902
O3    O     O_R   0.284320 0.790430 0.830510 -0.455029
O4    O     O_R   0.715680 0.790430 0.169490 -0.329276
O5    O     O_R   0.762640 0.040960 0.825200 -0.506856
O6    O     O_R   0.237360 0.040960 0.174800 -0.507559
O7    O     O_R   0.262640 0.540960 0.825200 -0.476582
O8    O     O_R   0.737360 0.540960 0.174800 -0.531361
C1    C     C_R   0.729585 0.951947 0.850670 0.577785
C2    C     C_R   0.270404 0.950501 0.149494 0.520671
C3    C     C_R   0.230829 0.448177 0.848861 0.593720
C4    C     C_R   0.776197 0.460390 0.144712 0.535711
O9    O     O_R   0.667400 0.923970 0.829950 -0.464533
O10   O     O_R   0.332600 0.923970 0.170050 -0.478255
O11   O     O_R   0.167400 0.423970 0.829950 -0.477408
O12   O     O_R   0.832600 0.423970 0.170050 -0.455247
O13   O     O_R   0.553960 0.081340 0.821780 -0.476389
O14   O     O_R   0.446040 0.081340 0.178220 -0.405422
O15   O     O_R   0.053960 0.581340 0.821780 -0.478345
O16   O     O_R   0.946040 0.581340 0.178220 -0.380719
C5    C     C_R   0.526818 0.176997 0.847515 0.583509
C6    C     C_R   0.438610 0.181038 0.142756 0.507390
C7    C     C_R   0.032077 0.678362 0.851021 0.568152
C8    C     C_R   0.965594 0.679377 0.149030 0.639151
O17   O     O_R   0.543180 0.283240 0.826740 -0.440516
O18   O     O_R   0.456820 0.283240 0.173260 -0.423104
O19   O     O_R   0.043180 0.783240 0.826740 -0.462604
O20   O     O_R   0.956820 0.783240 0.173260 -0.470837
O21   O     O_R   0.678360 0.375140 0.822710 -0.467168
O22   O     O_R   0.321640 0.375140 0.177290 -0.454837
O23   O     O_R   0.178360 0.875140 0.822710 -0.439443
O24   O     O_R   0.821640 0.875140 0.177290 -0.426459
C9    C     C_R   0.737414 0.361575 0.853085 0.567675
C10   C     C_R   0.275229 0.314810 0.138737 0.543977
C11   C     C_R   0.224587 0.813353 0.860703 0.549170
C12   C     C_R   0.772766 0.821656 0.138794 0.529928
O25   O     O_R   0.785050 0.289380 0.670560 -0.484784
O26   O     O_R   0.214950 0.289380 0.329440 -0.274135
O27   O     O_R   0.285050 0.789380 0.670560 -0.464275
O28   O     O_R   0.714950 0.789380 0.329440 -0.174050
O29   O     O_R   0.763320 0.039990 0.676930 -0.489447
O30   O     O_R   0.236680 0.039990 0.323070 -0.494445
O31   O     O_R   0.263320 0.539990 0.676930 -0.484795
O32   O     O_R   0.736680 0.539990 0.323070 -0.501476
C13   C     C_R   0.711623 0.992965 0.638604 0.572139
C14   C     C_R   0.288959 0.993233 0.361643 0.548124
C15   C     C_R   0.209985 0.495402 0.637529 0.583300
C16   C     C_R   0.786815 0.488651 0.361552 0.482361
O33   O     O_R   0.668130 0.922920 0.670000 -0.425457
O34   O     O_R   0.331870 0.922920 0.330000 -0.425950
O35   O     O_R   0.168130 0.422920 0.670000 -0.392852
O36   O     O_R   0.831870 0.422920 0.330000 -0.393153
O37   O     O_R   0.554640 0.080370 0.673500 -0.470829
O38   O     O_R   0.445360 0.080370 0.326500 -0.222046
O39   O     O_R   0.054640 0.580370 0.673500 -0.505046
O40   O     O_R   0.945360 0.580370 0.326500 -0.303272
C17   C     C_R   0.534444 0.176381 0.644080 0.601297
C18   C     C_R   0.471325 0.176153 0.354070 0.757324
C19   C     C_R   0.029014 0.676702 0.645313 0.581722
C20   C     C_R   0.970729 0.676658 0.354895 0.817401
O41   O     O_R   0.543920 0.282180 0.666790 -0.480671
O42   O     O_R   0.456080 0.282180 0.333210 -0.561888
O43   O     O_R   0.043920 0.782180 0.666790 -0.485348
O44   O     O_R   0.956080 0.782180 0.333210 -0.552238
O45   O     O_R   0.679040 0.374160 0.674430 -0.501763
O46   O     O_R   0.320960 0.374160 0.325570 -0.527589
O47   O     O_R   0.179040 0.874160 0.674430 -0.493904
O48   O     O_R   0.820960 0.874160 0.325570 -0.577591
C21   C     C_R   0.739628 0.368681 0.649156 0.583410
C22   C     C_R   0.256095 0.376432 0.345679 0.947239
C23   C     C_R   0.241705 0.868271 0.650292 0.555333
C24   C     C_R   0.757853 0.867983 0.349759 0.757910
Cr1   Cr    Cr6+3 0.769270 0.163730 0.750710 1.085831
Cr2   Cr    Cr6+3 0.230730 0.163730 0.249290 1.311230
Cr3   Cr    Cr6+3 0.269270 0.663730 0.750710 1.118615
Cr4   Cr    Cr6+3 0.730730 0.663730 0.249290 1.322638
Cr5   Cr    Cr6+3 0.612620 0.009790 0.748780 1.155806
Cr6   Cr    Cr6+3 0.387380 0.009790 0.251220 1.419754
Cr7   Cr    Cr6+3 0.112620 0.509790 0.748780 1.130945
Cr8   Cr    Cr6+3 0.887380 0.509790 0.251220 1.388216
Cr9   Cr    Cr6+3 0.614160 0.322500 0.747710 1.135383
Cr10  Cr    Cr6+3 0.385840 0.322500 0.252290 1.161243
Cr11  Cr    Cr6+3 0.114160 0.822500 0.747710 1.143109
Cr12  Cr    Cr6+3 0.885840 0.822500 0.252290 1.152603
O49   O     O_3   0.665350 0.165340 0.749070 -0.338344
O50   O     O_3   0.334650 0.165340 0.250930 -0.461686
O51   O     O_3   0.165350 0.665340 0.749070 -0.360815
O52   O     O_3   0.834650 0.665340 0.250930 -0.470517
C25   C     C_2   0.484376 0.165935 0.912015 -0.079043
C26   C     C_2   0.448031 0.168856 0.065135 -0.090928
C27   C     C_2   0.009768 0.674531 0.924925 -0.048733
C28   C     C_2   0.981357 0.674968 0.075426 -0.048355
C29   C     C_2   0.484935 0.081271 0.033868 -0.005288
C30   C     C_2   0.487676 0.068662 0.954563 -0.007054
C31   C     C_2   0.045002 0.650940 0.052136 0.006589
C32   C     C_2   0.050396 0.620995 0.975667 0.000843
H1    H     H_    0.415182 0.223686 0.032202 0.089547
H2    H     H_    0.466031 0.249780 0.932519 0.171830
H3    H     H_    0.935475 0.675682 0.040204 0.055243
H4    H     H_    0.973559 0.744210 0.939547 0.151560
C33   C     C_R   0.688309 0.404295 0.972051 0.212424
C34   C     C_R   0.327501 0.399237 0.021983 0.152770
C35   C     C_R   0.172667 0.888878 0.977998 0.170912
C36   C     C_R   0.810110 0.937292 0.030794 0.174643
C37   C     C_R   0.700304 0.415359 0.044520 -0.065530
C38   C     C_R   0.318672 0.422193 0.948874 -0.099630
C39   C     C_R   0.182620 0.916799 0.050232 -0.098888
C40   C     C_R   0.804859 0.959213 0.958091 -0.119397
H5    H     H_    0.656484 0.416428 0.080859 0.203022
H6    H     H_    0.359594 0.465316 0.919793 0.216116
H7    H     H_    0.141785 0.961212 0.078839 0.229392
H8    H     H_    0.833433 0.034113 0.936471 0.193651
C41   C     C_R   0.767380 0.426229 0.070848 -0.050662
C42   C     C_R   0.260296 0.382977 0.911265 -0.027067
C43   C     C_R   0.243513 0.885127 0.086338 -0.054256
C44   C     C_R   0.757430 0.895397 0.915343 -0.035247
C45   C     C_R   0.826244 0.417207 0.024613 -0.033593
C46   C     C_R   0.223832 0.288136 0.939282 0.027531
C47   C     C_R   0.285814 0.798759 0.056458 0.013970
C48   C     C_R   0.722106 0.796770 0.942872 0.026946
C49   C     C_R   0.814322 0.425847 0.951050 -0.017444
C50   C     C_R   0.220238 0.274010 0.013844 -0.000652
C51   C     C_R   0.286850 0.785698 0.982086 -0.007880
C52   C     C_R   0.716460 0.787052 0.017335 -0.053963
C53   C     C_R   0.745687 0.409513 0.924565 -0.016063
C54   C     C_R   0.272970 0.333496 0.058790 -0.038332
C55   C     C_R   0.228554 0.832054 0.940030 -0.032360
C56   C     C_R   0.764518 0.853012 0.062235 -0.043177
C57   C     C_R   0.445559 0.180192 0.550944 -0.002238
C58   C     C_R   0.433851 0.184312 0.477683 -0.089302
C59   C     C_R   0.990773 0.777158 0.536116 -0.017034
C60   C     C_R   0.009310 0.776171 0.464206 -0.057712
C61   C     C_R   0.488385 0.166194 0.428821 0.062201
C62   C     C_R   0.514943 0.164969 0.572427 0.039672
C63   C     C_R   0.000849 0.669792 0.426558 0.118684
C64   C     C_R   0.998040 0.670842 0.574031 -0.009232
C65   C     C_R   0.556625 0.147681 0.452012 0.151219
C66   C     C_R   0.570225 0.150667 0.524355 -0.133272
C67   C     C_R   0.997253 0.563644 0.463646 -0.107661
C68   C     C_R   0.999269 0.564399 0.537331 -0.188563
H9    H     H_    0.599144 0.138555 0.414735 0.354938
H10   H     H_    0.624151 0.145420 0.543258 0.095258
H11   H     H_    0.993459 0.481437 0.435154 0.264765
H12   H     H_    0.999811 0.483347 0.566706 0.259265
C69   C     C_R   0.817729 0.459820 0.560935 0.154504
C70   C     C_R   0.166794 0.445878 0.433640 0.457478
C71   C     C_R   0.328267 0.924558 0.559594 0.181825
C72   C     C_R   0.673856 0.901273 0.447183 0.418879
C73   C     C_R   0.830225 0.438507 0.488033 0.157430
C74   C     C_R   0.158762 0.435662 0.509263 -0.071702
C75   C     C_R   0.336244 0.922786 0.485232 0.127546
C76   C     C_R   0.670291 0.904591 0.521149 -0.109371
C77   C     C_R   0.773080 0.458659 0.437736 -0.046345
C78   C     C_R   0.215819 0.480453 0.555863 -0.044016
C79   C     C_R   0.280070 0.971109 0.440409 -0.050104
C80   C     C_R   0.722736 0.967200 0.561472 -0.101880
C81   C     C_R   0.703862 0.473233 0.464295 -0.037886
C82   C     C_R   0.276243 0.528789 0.520588 -0.045245
C83   C     C_R   0.220302 0.019533 0.475564 0.022851
C84   C     C_R   0.777993 0.022935 0.523676 -0.042355
C85   C     C_R   0.692277 0.467104 0.538274 -0.034950
C86   C     C_R   0.280825 0.528385 0.444615 -0.064448
C87   C     C_R   0.210922 0.001735 0.549355 -0.012046
C88   C     C_R   0.785190 0.005391 0.449725 -0.115712
C89   C     C_R   0.749885 0.443938 0.585120 0.003310
C90   C     C_R   0.233699 0.457968 0.405751 0.252343
C91   C     C_R   0.261321 0.938528 0.587787 -0.033635
C92   C     C_R   0.737023 0.932971 0.413803 0.091278
C93   C     C_2   0.526102 0.998424 0.078519 0.721900
O53   O     O_2   0.586740 0.022785 0.095453 -0.328908
O54   O     O_R   0.492585 0.898410 0.106338 -0.551802
H13   H     H_    0.518072 0.864310 0.149525 0.467362
C94   C     C_2   0.502135 0.949932 0.923523 0.646513
O55   O     O_2   0.549486 0.888540 0.947861 -0.457598
O56   O     O_R   0.462493 0.910538 0.864462 -0.642877
H14   H     H_    0.478166 0.830020 0.846588 0.360580
C95   C     C_2   0.105449 0.642925 0.103923 0.727414
O57   O     O_2   0.143528 0.555890 0.105095 -0.271705
O58   O     O_R   0.115401 0.732776 0.154772 -0.604921
H15   H     H_    0.155644 0.715788 0.189304 0.456366
C96   C     C_2   0.092302 0.518084 0.958087 0.638038
O59   O     O_2   0.155310 0.519451 0.969777 -0.542388
O60   O     O_R   0.058143 0.418714 0.929570 -0.593820
H16   H     H_    0.090675 0.353291 0.915397 0.391796
N1    N     N_R   0.892255 0.367508 0.472508 0.081338
O61   O     O_R   0.906597 0.327719 0.409659 -0.236796
O62   O     O_R   0.928286 0.320437 0.524663 -0.263828
N2    N     N_R   0.099491 0.361089 0.531812 0.036049
O63   O     O_R   0.083595 0.339684 0.597386 -0.259948
O64   O     O_R   0.063032 0.301175 0.484644 -0.315482
N3    N     N_R   0.401699 0.872562 0.459810 0.085522
O65   O     O_R   0.435553 0.918039 0.407598 -0.020846
O66   O     O_R   0.437039 0.797907 0.499042 -0.164503
N4    N     N_R   0.611298 0.846171 0.552862 0.075504
O67   O     O_R   0.560231 0.908494 0.578142 -0.253723
O68   O     O_R   0.598079 0.736834 0.535125 -0.291982
C97   C     C_2   0.642085 0.481312 0.414935 0.647498
O69   O     O_2   0.604331 0.568885 0.415791 -0.403067
O70   O     O_R   0.627941 0.388600 0.367060 -0.628649
H17   H     H_    0.585027 0.404374 0.335812 0.365998
C98   C     C_2   0.338922 0.564068 0.562450 0.690333
O71   O     O_2   0.353084 0.668511 0.569989 -0.441390
O72   O     O_R   0.379545 0.477679 0.596829 -0.645868
H18   H     H_    0.418964 0.513320 0.627035 0.350072
C99   C     C_2   0.181117 0.118987 0.444405 0.676278
O73   O     O_2   0.193540 0.216042 0.469108 -0.516100
O74   O     O_R   0.130672 0.105649 0.390189 -0.625212
H19   H     H_    0.106651 0.182522 0.376418 0.408950
C100  C     C_2   0.813272 0.126034 0.553806 0.697080
O75   O     O_2   0.792154 0.221560 0.533882 -0.524415
O76   O     O_R   0.868254 0.116819 0.603671 -0.614397
H20   H     H_    0.887980 0.195693 0.620432 0.385718
C101  C     C_2   0.620036 0.483895 0.566314 0.667746
O77   O     O_2   0.611104 0.547591 0.618348 -0.425032
O78   O     O_R   0.562601 0.426710 0.534065 -0.698693
H21   H     H_    0.517159 0.445019 0.558991 0.356140
C102  C     C_2   0.333706 0.597541 0.403686 0.641244
O79   O     O_2   0.315948 0.643387 0.347040 -0.405728
O80   O     O_R   0.403507 0.606412 0.426922 -0.594270
H22   H     H_    0.434406 0.647696 0.390909 0.418294
C103  C     C_2   0.155825 0.066256 0.589663 0.666342
O81   O     O_2   0.170976 0.114059 0.646625 -0.421870
O82   O     O_R   0.087465 0.073373 0.562643 -0.569250
H23   H     H_    0.054952 0.116026 0.596349 0.399451
C104  C     C_2   0.837259 0.073332 0.407505 0.661635
O83   O     O_2   0.818902 0.121254 0.351661 -0.366375
O84   O     O_R   0.907076 0.079813 0.430312 -0.557409
H24   H     H_    0.938455 0.117156 0.393280 0.401916
N5    N     N_R   0.617194 0.385112 0.949376 0.102558
O85   O     O_R   0.586036 0.464366 0.909706 -0.224269
O86   O     O_R   0.578756 0.314972 0.987663 -0.345493
N6    N     N_R   0.394598 0.436379 0.052652 0.065005
O87   O     O_R   0.399452 0.496830 0.111285 -0.246067
O88   O     O_R   0.449860 0.435781 0.012660 -0.308415
N7    N     N_R   0.105772 0.920974 0.946732 0.075372
O89   O     O_R   0.102402 0.999355 0.896051 -0.214140
O90   O     O_R   0.049949 0.907033 0.984985 -0.361015
N8    N     N_R   0.854489 0.014212 0.072643 0.107738
O91   O     O_R   0.826303 0.087164 0.117759 -0.203641
O92   O     O_R   0.919759 0.029254 0.055140 -0.281624
C105  C     C_2   0.898182 0.384744 0.050443 0.652138
O93   O     O_2   0.949179 0.440300 0.030573 -0.494050
O94   O     O_R   0.907956 0.285292 0.093920 -0.548976
H25   H     H_    0.959203 0.271229 0.106760 0.391512
C106  C     C_2   0.215926 0.185267 0.891194 0.610559
O95   O     O_2   0.173605 0.186749 0.841422 -0.407249
O96   O     O_R   0.264143 0.092897 0.898013 -0.713519
H26   H     H_    0.265230 0.041539 0.853742 0.366054
C107  C     C_2   0.323012 0.716853 0.105961 0.652776
O97   O     O_2   0.386580 0.723933 0.114747 -0.354706
O98   O     O_R   0.283191 0.644775 0.150648 -0.603732
H27   H     H_    0.312281 0.607145 0.190274 0.403576
C108  C     C_2   0.688158 0.712081 0.891836 0.645318
O99   O     O_2   0.624432 0.699045 0.890082 -0.397280
O100  O     O_R   0.729359 0.658036 0.840105 -0.672477
H28   H     H_    0.700429 0.609724 0.804572 0.357274
C109  C     C_2   0.873165 0.440326 0.900609 0.637049
O101  O     O_2   0.877056 0.530430 0.864533 -0.492574
O102  O     O_R   0.920217 0.347135 0.890460 -0.600007
H29   H     H_    0.953093 0.362753 0.849462 0.366460
C110  C     C_2   0.155836 0.206153 0.037174 0.608749
O103  O     O_2   0.150292 0.163711 0.096226 -0.466642
O104  O     O_R   0.099519 0.189679 0.989430 -0.632027
H30   H     H_    0.057967 0.147757 0.011554 0.402257
C111  C     C_2   0.353041 0.734168 0.953605 0.624814
O105  O     O_2   0.352251 0.662422 0.905326 -0.496486
O106  O     O_R   0.417559 0.764932 0.984897 -0.604504
H31   H     H_    0.457680 0.715227 0.966365 0.390352
C112  C     C_2   0.651887 0.729838 0.045480 0.640903
O107  O     O_2   0.615149 0.784424 0.086392 -0.371337
O108  O     O_R   0.628264 0.620604 0.020574 -0.667979
H32   H     H_    0.581731 0.596000 0.041810 0.390821
C113  C     C_2   0.387199 0.204048 0.603146 0.621668
O109  O     O_2   0.325761 0.195723 0.583759 -0.458133
O110  O     O_R   0.401711 0.235418 0.674187 -0.665940
H33   H     H_    0.357689 0.248462 0.702881 0.357676
C114  C     C_2   0.376628 0.257076 0.454138 0.575521
O111  O     O_2   0.322620 0.212700 0.432320 -0.550334
O112  O     O_R   0.386794 0.378376 0.453346 -0.656494
H34   H     H_    0.435787 0.403204 0.469268 0.356419
C115  C     C_2   0.952319 0.875306 0.570344 0.625300
O113  O     O_2   0.957268 0.976531 0.548827 -0.370281
O114  O     O_R   0.909097 0.849283 0.628181 -0.677409
H35   H     H_    0.888692 0.921794 0.651729 0.377384
C116  C     C_2   0.047860 0.872772 0.428755 0.634998
O115  O     O_2   0.034776 0.976206 0.440747 -0.378867
O116  O     O_R   0.097288 0.842092 0.377320 -0.553361
H36   H     H_    0.112938 0.910696 0.346723 0.379235
N9    N     N_R   0.875241 0.472421 0.611126 -0.213114
O117  O     O_R   0.866866 0.520189 0.673709 -0.000225
O118  O     O_R   0.866791 0.520207 0.673694 -0.000225
N10   N     N_R   0.108065 0.428747 0.385346 1.927584
O119  O     O_R   0.107879 0.471942 0.320893 -2.163948
O120  O     O_R   0.107879 0.471942 0.320893 -2.163948
N11   N     N_R   0.389530 0.912029 0.605531 -0.092134
O121  O     O_R   0.391548 0.953586 0.670419 -0.000000
O122  O     O_R   0.391549 0.953586 0.670419 -0.000000
N12   N     N_R   0.611854 0.865368 0.407477 2.069228
O123  O     O_R   0.594708 0.915417 0.347084 -2.209925
O124  O     O_R   0.594708 0.915417 0.347084 -2.209925

loop_
_geom_bond_atom_site_label_1
_geom_bond_atom_site_label_2
_geom_bond_distance
_ccdc_geom_bond_type
C72   N12   1.441084 S    
C16   C77   1.493590 S    
O4    C12   1.285903 A    
C61   C65   1.379865 A    
O39   C19   1.300080 A    
C24   C92   1.465535 S    
N4    O68   1.297462 A    
O82   H23   1.013443 S    
C64   C68   1.381562 A    
Cr7   O51   2.015345 S    
C36   N8    1.431592 S    
C14   C79   1.508469 S    
C78   C82   1.441218 A    
O25   C21   1.304390 A    
O108  H32   1.014796 S    
O21   C9    1.261622 A    
C25   C30   1.356191 D    
C97   O70   1.397945 S    
C1    O9    1.278029 A    
O44   Cr12  2.056902 S    
C27   C32   1.358499 D    
C70   C74   1.431736 A    
C3    O11   1.281155 A    
C31   C95   1.495883 S    
C76   C80   1.425796 A    
C75   C79   1.456259 A    
C27   H4    1.084449 S    
O2    C10   1.308455 A    
C94   O56   1.399593 S    
C86   C102  1.492704 S    
O70   H17   1.013546 S    
C106  O95   1.222246 D    
O17   Cr9   2.067674 S    
C96   O60   1.393489 S    
O31   Cr3   1.963003 S    
N8    O92   1.300955 A    
O16   Cr8   1.952226 S    
N3    O65   1.285728 A    
C88   C92   1.389705 A    
C69   C89   1.386890 A    
C96   O59   1.215973 D    
O13   C5    1.292747 A    
O28   Cr4   2.087935 S    
O12   Cr8   2.066280 S    
O22   Cr10  1.941481 S    
O15   C7    1.295006 A    
O60   H16   1.002747 S    
N5    O85   1.300516 A    
O46   Cr10  1.951449 S    
O84   H24   1.013437 S    
C36   C56   1.418572 A    
O14   Cr6   1.952226 S    
C9    C53   1.448890 S    
C11   C55   1.500952 S    
C71   C91   1.397139 A    
C112  O108  1.385761 S    
N12   O123  1.301565 A    
C26   C29   1.351760 D    
C108  O100  1.397203 S    
C1    C44   1.461728 S    
Cr12  O52   2.016832 S    
C67   C68   1.379931 A    
C17   O41   1.275714 A    
C47   C51   1.400966 A    
C19   O43   1.282794 A    
C76   N4    1.436684 S    
C20   O44   1.286232 A    
N10   O120  1.301827 A    
Cr8   O52   2.022300 S    
O46   C22   1.297476 A    
C16   O36   1.286030 A    
C116  O116  1.401751 S    
O29   C13   1.317681 A    
C35   C39   1.398291 A    
C109  O102  1.397349 S    
O31   C15   1.341021 A    
C85   C89   1.418402 A    
O32   C16   1.321880 A    
O47   Cr11  1.949311 S    
C32   C96   1.450224 S    
C98   O72   1.396372 S    
N11   O122  1.301738 A    
O5    C1    1.278315 A    
C84   C100  1.448230 S    
C107  O97   1.221061 D    
C5    O17   1.296749 A    
O24   C12   1.311870 A    
C37   C41   1.366409 A    
C74   N2    1.471716 S    
C110  O103  1.211263 D    
N1    O62   1.299043 A    
C19   C64   1.451880 S    
O8    Cr4   1.968939 S    
N2    O64   1.300869 A    
C105  O93   1.216639 D    
C46   C50   1.408404 A    
O32   Cr4   1.965562 S    
C48   C108  1.487846 S    
C73   C77   1.446126 A    
C67   H11   1.069596 S    
O11   Cr7   2.071554 S    
C95   O58   1.398957 S    
C33   C53   1.421131 A    
C88   C104  1.488099 S    
O27   Cr3   2.088303 S    
C35   C55   1.441152 A    
C81   C97   1.487133 S    
Cr5   O49   2.015345 S    
C23   C91   1.466154 S    
C114  O111  1.206541 D    
C93   O54   1.397629 S    
C12   C56   1.482989 S    
C8    C28   1.416505 S    
C83   C99   1.464538 S    
C99   O74   1.393747 S    
O22   C10   1.317928 A    
C79   C83   1.433467 A    
C4    O12   1.238460 A    
C80   C84   1.421992 A    
C59   C64   1.398665 A    
C2    O10   1.275889 A    
C102  O79   1.223510 D    
C44   C48   1.399324 A    
C71   C75   1.403593 A    
C49   C53   1.401496 A    
C103  O81   1.224166 D    
C51   C55   1.449625 A    
C60   C116  1.474416 S    
O3    C11   1.305078 A    
O8    C4    1.305956 A    
C100  O75   1.207148 D    
C13   C80   1.491822 S    
C111  O106  1.394624 S    
Cr1   O49   1.978560 S    
C41   C45   1.431451 A    
Cr3   O51   1.978560 S    
C43   C47   1.388424 A    
C59   C115  1.479510 S    
C57   C58   1.387272 A    
O26   Cr2   2.087935 S    
O80   H22   1.014253 S    
C37   H5    1.085484 S    
C35   N7    1.440577 S    
O28   C24   1.256511 A    
O14   C6    1.311896 A    
C39   H7    1.076099 S    
C72   C76   1.388540 A    
C34   C54   1.455926 A    
Cr11  O51   2.023683 S    
O106  H31   1.014422 S    
C115  O114  1.401641 S    
O40   Cr8   1.943596 S    
C25   H2    1.080346 S    
C58   C114  1.429980 S    
O41   Cr9   2.053892 S    
C113  O110  1.399117 S    
O33   Cr5   2.075511 S    
C83   C87   1.410813 A    
O5    Cr1   1.970148 S    
C97   O69   1.222850 D    
C21   C89   1.484252 S    
C30   C94   1.485865 S    
O29   Cr1   1.963003 S    
O114  H35   1.009740 S    
C82   C98   1.470202 S    
Cr9   O49   2.023683 S    
O100  H28   1.013430 S    
C28   H3    1.086033 S    
C49   C109  1.485959 S    
C18   O42   1.289251 A    
C34   N6    1.451889 S    
O26   C22   1.285489 A    
C73   N1    1.461853 S    
O20   Cr12  2.069356 S    
C57   C113  1.516738 S    
O110  H33   1.014216 S    
O72   H18   1.013698 S    
O104  H30   1.014234 S    
C5    C25   1.469537 S    
C101  O77   1.223974 D    
C29   C93   1.472979 S    
C84   C88   1.407825 A    
C47   C107  1.482230 S    
O38   C18   1.288603 A    
O94   H25   1.014194 S    
C93   O53   1.222325 D    
O25   Cr1   2.088303 S    
C86   C90   1.391145 A    
N7    O89   1.297733 A    
C26   H1    1.069535 S    
C52   C56   1.436664 A    
C101  O78   1.395411 S    
N4    O67   1.296943 A    
O42   Cr10  2.056902 S    
O18   Cr10  2.069356 S    
C112  O107  1.214245 D    
N12   O124  1.301565 A    
O34   Cr6   2.072898 S    
O6    Cr2   1.968939 S    
C18   C61   1.436535 S    
O24   Cr12  1.941481 S    
O30   Cr2   1.965562 S    
O74   H19   1.012255 S    
O48   Cr12  1.951449 S    
C8    O20   1.266732 A    
O98   H27   1.012922 S    
C66   H10   1.082406 S    
N11   O121  1.301738 A    
O37   C17   1.271897 A    
C15   O35   1.297238 A    
Cr10  O50   2.016832 S    
C40   H8    1.084223 S    
O43   Cr11  2.053892 S    
O37   Cr5   1.948318 S    
N3    O66   1.299500 A    
O21   Cr9   1.937661 S    
C116  O115  1.213524 D    
O39   Cr7   1.948318 S    
O45   Cr9   1.949311 S    
O76   H20   1.010579 S    
C13   O33   1.290498 A    
C10   C54   1.512142 S    
O13   Cr5   1.954794 S    
C6    C26   1.474019 S    
O15   Cr7   1.954794 S    
C69   N9    1.437850 S    
C106  O96   1.394611 S    
O30   C14   1.330833 A    
C72   C92   1.409470 A    
O23   C11   1.322968 A    
C17   C62   1.392155 S    
C58   C61   1.410655 A    
C59   C60   1.397921 A    
C81   C85   1.408288 A    
C36   C40   1.386118 A    
C65   H9    1.082836 S    
N8    O91   1.301488 A    
C68   H12   1.066109 S    
O6    C2    1.293052 A    
C50   C110  1.513032 S    
C15   C78   1.544445 S    
C63   C67   1.385038 A    
O1    Cr1   2.080764 S    
C40   C44   1.393815 A    
O19   Cr11  2.067674 S    
O112  H34   1.012847 S    
N5    O86   1.299006 A    
N1    O61   1.292817 A    
C108  O99   1.221533 D    
C71   N11   1.445392 S    
O45   C21   1.255868 A    
N6    O87   1.293227 A    
O47   C23   1.284825 A    
C77   C81   1.426379 A    
O58   H15   1.013430 S    
O40   C20   1.295328 A    
C95   O57   1.221392 D    
C6    O18   1.326635 A    
C87   C103  1.493125 S    
N9    O118  1.301628 A    
C33   N5    1.427927 S    
O36   Cr8   2.072898 S    
C69   C73   1.410283 A    
O38   Cr6   1.943596 S    
O54   H13   1.013061 S    
C29   C30   1.493700 S    
C98   O71   1.213094 D    
C31   C32   1.476321 S    
O78   H21   1.011740 S    
C46   C106  1.472267 S    
O1    C9    1.278933 A    
C99   O73   1.207333 D    
O7    C3    1.288200 A    
C38   C42   1.377025 A    
N10   O119  1.301827 A    
C113  O109  1.222334 D    
C109  O101  1.222199 D    
C22   C90   1.519041 S    
O23   Cr11  1.937661 S    
C3    C42   1.484272 S    
C45   C49   1.396177 A    
C104  O84   1.391156 S    
C70   N10   1.438838 S    
O56   H14   1.013898 S    
C7    O19   1.283881 A    
C111  O105  1.211822 D    
Cr4   O52   1.978415 S    
O2    Cr2   2.084334 S    
O48   C24   1.292751 A    
Cr6   O50   2.022300 S    
C75   N3    1.457531 S    
C70   C90   1.391004 A    
O27   C23   1.269061 A    
N7    O90   1.300658 A    
N6    O88   1.301645 A    
O35   Cr7   2.075511 S    
C33   C37   1.378048 A    
O9    Cr5   2.071554 S    
C52   C112  1.490066 S    
C107  O98   1.396930 S    
O16   C8    1.288696 A    
C110  O104  1.396518 S    
O7    Cr3   1.970148 S    
C115  O113  1.213147 D    
C28   C31   1.323552 D    
N2    O63   1.292365 A    
C105  O94   1.396482 S    
C50   C54   1.459777 A    
C87   C91   1.388928 A    
C51   C111  1.495656 S    
C104  O83   1.223831 D    
Cr2   O50   1.978415 S    
C20   C63   1.453064 S    
C39   C43   1.380806 A    
C42   C46   1.380217 A    
C114  O112  1.378862 S    
O116  H36   1.009256 S    
C7    C27   1.455145 S    
O102  H29   1.013714 S    
O3    Cr3   2.080764 S    
N9    O117  1.301613 A    
C4    C41   1.442447 S    
C38   H6    1.072877 S    
C85   C101  1.493064 S    
C62   C66   1.405985 A    
O96   H26   1.010971 S    
C102  O80   1.394800 S    
C65   C66   1.375566 A    
C14   O34   1.290669 A    
C103  O82   1.391340 S    
C60   C63   1.396783 A    
C100  O76   1.395586 S    
C34   C38   1.401188 A    
O10   Cr6   2.066280 S    
C57   C62   1.385992 A    
O4    Cr4   2.084334 S    
C82   C86   1.426988 A    
C74   C78   1.469623 A    
C94   O55   1.220857 D    
C2    C43   1.475929 S    
C48   C52   1.404850 A    
C45   C105  1.492058 S    
