data_mof_unit_2006.cif
_audit_creation_date              2012-12-10T19:12:24-0500
_audit_creation_method            fapswitch 2.2
_symmetry_space_group_name_H-M    P1
_symmetry_Int_Tables_number       1
_space_group_crystal_system       triclinic
_cell_length_a                    15.701506
_cell_length_b                    10.641997
_cell_length_c                    9.696917
_cell_angle_alpha                 89.435473
_cell_angle_beta                  89.630155
_cell_angle_gamma                 89.900438
_cell_volume                      1620.1953545

loop_
_atom_site_label
_atom_site_type_symbol
_atom_type_description
_atom_site_fract_x
_atom_site_fract_y
_atom_site_fract_z
_atom_type_partial_charge
C1    C     C_R   0.500080 0.257321 0.500589 0.918210
C2    C     C_3   0.082468 0.493169 0.499325 0.223163
C3    C     C_3   0.971301 0.545994 0.616382 -0.161285
C4    C     C_3   0.917275 0.496212 0.498095 0.224038
C5    C     C_3   0.028695 0.612989 0.508468 -0.168745
C6    C     C_3   0.972889 0.563163 0.390151 -0.172313
C7    C     C_1   0.173395 0.493760 0.500368 -0.097398
C8    C     C_1   0.826449 0.497984 0.498294 -0.102040
C9    C     C_3   0.571397 0.070615 0.594720 -0.504829
C10   C     C_3   0.572264 0.926749 0.593007 -0.424651
C11   C     C_3   0.409441 0.071312 0.554714 0.908882
C12   C     C_R   0.337741 0.499078 0.500324 0.941453
C13   C     C_3   0.516053 0.072447 0.352007 -0.436462
C14   C     C_3   0.498594 0.120421 0.501721 0.082309
C15   C     C_3   0.500823 0.878192 0.497525 0.120429
C16   C     C_3   0.411615 0.923939 0.545629 -0.532285
C17   C     C_3   0.517577 0.929744 0.349867 -0.424656
C18   C     C_3   0.455432 0.385957 0.083382 -0.230300
C19   C     C_3   0.458605 0.382426 0.921022 -0.246249
C20   C     C_3   0.452298 0.609769 0.079404 -0.375072
C21   C     C_3   0.587008 0.502501 0.080100 0.519271
C22   C     C_3   0.451504 0.606809 0.916928 -0.268117
C23   C     C_R   0.501517 0.742273 0.499060 0.868188
C24   C     C_3   0.586238 0.503090 0.917114 -0.285152
C25   C     C_R   0.662213 0.500177 0.499688 0.901455
C26   C     C_3   0.970889 0.376389 0.488886 -0.174937
C27   C     C_3   0.028440 0.443310 0.380968 -0.159721
C28   C     C_1   0.248760 0.495977 0.500841 -0.209777
C29   C     C_1   0.751126 0.499262 0.498970 -0.236485
C30   C     C_3   0.026800 0.426163 0.607224 -0.172135
H1    H     H_    0.053979 0.400989 0.284985 0.135193
H2    H     H_    0.565022 0.889124 0.699712 0.172221
H3    H     H_    0.390554 0.873534 0.639902 0.143513
H4    H     H_    0.466286 0.106603 0.279388 0.206353
H5    H     H_    0.578370 0.108664 0.313105 0.190196
H6    H     H_    0.580530 0.896648 0.310825 0.174812
H7    H     H_    0.468048 0.896184 0.277216 0.187972
H8    H     H_    0.364823 0.892652 0.467251 0.160020
H9    H     H_    0.388037 0.382914 0.119398 0.147911
H10   H     H_    0.944602 0.279994 0.480721 0.132843
H11   H     H_    0.485995 0.299520 0.124919 0.183559
H12   H     H_    0.495706 0.298981 0.888139 0.157235
H13   H     H_    0.393214 0.371469 0.879436 0.174686
H14   H     H_    0.385820 0.612124 0.119647 0.182851
H15   H     H_    0.384595 0.605169 0.879999 0.170173
H16   H     H_    0.616712 0.592021 0.114368 0.015576
H17   H     H_    0.623154 0.422213 0.876492 0.172489
H18   H     H_    0.618544 0.589274 0.877463 0.112317
H19   H     H_    0.482798 0.698219 0.113783 0.148847
H20   H     H_    0.948548 0.619179 0.301576 0.123981
H21   H     H_    0.479921 0.695395 0.876179 0.156933
H22   H     H_    0.054529 0.709687 0.516475 0.125766
H23   H     H_    0.945673 0.587881 0.712545 0.130532
H24   H     H_    0.051038 0.370026 0.695793 0.124984
H25   H     H_    0.564165 0.104021 0.702397 0.188923
H26   H     H_    0.633816 0.106652 0.556241 0.177171
H27   H     H_    0.635367 0.893544 0.554813 0.170683
N1    N     N_3   0.498170 0.499750 0.138610 -0.057483
N2    N     N_3   0.498850 0.496730 0.861320 -0.053317
O1    O     O_R   0.499980 0.314910 0.616040 -0.606648
O2    O     O_R   0.500040 0.314680 0.383960 -0.617874
O3    O     O_R   0.376750 0.500100 0.616020 -0.615310
O4    O     O_R   0.376810 0.499870 0.383940 -0.621773
O5    O     O_R   0.499960 0.685320 0.616040 -0.638595
O6    O     O_R   0.500020 0.685090 0.383960 -0.644192
O7    O     O_R   0.623190 0.500130 0.616060 -0.628104
O8    O     O_R   0.623250 0.499900 0.383980 -0.605731
Zn1   Zn    Zn3+2 0.499960 0.500150 0.654960 0.916452
Zn2   Zn    Zn3+2 0.500040 0.499850 0.345040 0.939415
O9    O     O_3   0.390582 0.125673 0.687269 -0.681206
C31   C     C_3   0.403674 0.052013 0.807937 0.018526
H28   H     H_    0.431180 0.114081 0.886746 0.157199
H29   H     H_    0.450859 0.975798 0.797553 0.132969
C32   C     C_3   0.318375 0.004483 0.865363 -0.351169
H30   H     H_    0.274424 0.085500 0.878968 0.223971
H31   H     H_    0.288558 0.938493 0.792228 0.201295
C33   C     C_3   0.329780 0.938126 0.004357 -0.985875
H32   H     H_    0.373426 0.856689 0.993424 0.257376
H33   H     H_    0.267184 0.903676 0.042728 0.264346
H34   H     H_    0.356229 0.004003 0.081230 0.264466
O10   O     O_3   0.348296 0.117116 0.458160 -0.693967
C34   C     C_3   0.263612 0.107077 0.508001 0.111778
H35   H     H_    0.251168 0.180901 0.586139 0.181501
H36   H     H_    0.250860 0.013025 0.554825 0.124827
C35   C     C_3   0.202625 0.127778 0.387855 -0.346420
H37   H     H_    0.211132 0.224536 0.345716 0.227881
H38   H     H_    0.217484 0.059786 0.304715 0.227246
C36   C     C_3   0.110235 0.110454 0.433599 -0.999481
H39   H     H_    0.099071 0.011730 0.467241 0.261232
H40   H     H_    0.067210 0.132674 0.346233 0.265387
H41   H     H_    0.095048 0.174127 0.520351 0.269049
O11   O     O_3   0.633345 0.395444 0.127728 -0.647314
C37   C     C_3   0.721529 0.419945 0.146661 0.099530
H42   H     H_    0.743365 0.356301 0.230844 0.179226
H43   H     H_    0.735461 0.516950 0.181976 0.125189
C38   C     C_3   0.774053 0.390898 0.017028 -0.416524
H44   H     H_    0.755343 0.297768 0.976207 0.233834
H45   H     H_    0.762243 0.463903 0.936848 0.207392
C39   C     C_3   0.869301 0.389778 0.048065 -0.957040
H46   H     H_    0.889463 0.482401 0.088280 0.259242
H47   H     H_    0.905715 0.370491 0.951983 0.263771
H48   H     H_    0.884425 0.315476 0.125430 0.262391

loop_
_geom_bond_atom_site_label_1
_geom_bond_atom_site_label_2
_ccdc_geom_bond_type
O7    Zn1   S    
C37   H42   S    
C2    C7    S    
C25   O8    A    
C4    C8    S    
C21   N1    S    
O10   C34   S    
C11   O9    S    
C33   H32   S    
C11   O10   S    
C30   H24   S    
C26   C27   S    
C32   H31   S    
C12   C28   S    
C8    C29   T    
O5    Zn1   S    
C13   H5    S    
C10   C15   S    
C5    C6    S    
C16   H3    S    
C11   C14   S    
C35   C36   S    
C15   C16   S    
C38   C39   S    
C18   C19   S    
C18   N1    S    
O4    Zn2   S    
C32   C33   S    
C38   H45   S    
C5    H22   S    
C2    C27   S    
C9    H25   S    
C17   H6    S    
C9    C10   S    
C19   H12   S    
C15   C23   S    
C37   H43   S    
C13   C14   S    
C6    C27   S    
C20   H14   S    
C19   H13   S    
C35   H38   S    
C25   C29   S    
C32   H30   S    
C27   H1    S    
C24   H18   S    
C10   H27   S    
C4    C6    S    
C1    O1    A    
C22   N2    S    
C31   H29   S    
C9    C14   S    
C19   N2    S    
C35   H37   S    
C7    C28   T    
O8    Zn2   S    
C3    C30   S    
C18   H9    S    
C20   H19   S    
N2    Zn1   S    
C12   O3    A    
C11   C16   S    
C39   H46   S    
C36   H41   S    
C38   H44   S    
C39   H48   S    
C33   H33   S    
C9    H26   S    
C17   H7    S    
C6    H20   S    
O9    C31   S    
C23   O5    A    
C39   H47   S    
C36   H40   S    
C26   C30   S    
C37   C38   S    
C34   H36   S    
C18   H11   S    
C2    C5    S    
C20   N1    S    
C3    C4    S    
C21   H16   S    
C33   H34   S    
O2    Zn2   S    
C15   C17   S    
C24   H17   S    
C25   O7    A    
C20   C22   S    
C3    C5    S    
C1    O2    A    
C31   C32   S    
C4    C26   S    
N1    Zn2   S    
O3    Zn1   S    
C34   C35   S    
C13   C17   S    
C2    C30   S    
C23   O6    A    
C13   H4    S    
C3    H23   S    
C26   H10   S    
C24   N2    S    
O6    Zn2   S    
O11   C37   S    
C10   H2    S    
C31   H28   S    
C22   H15   S    
C36   H39   S    
O1    Zn1   S    
C34   H35   S    
C21   C24   S    
C1    C14   S    
C12   O4    A    
C16   H8    S    
C22   H21   S    
C21   O11   S    
