data_mof_unit_3486.cif
_audit_creation_date              2012-12-11T14:52:30-0500
_audit_creation_method            fapswitch 2.2
_symmetry_space_group_name_H-M    P1
_symmetry_Int_Tables_number       1
_space_group_crystal_system       triclinic
_cell_length_a                    18.633455
_cell_length_b                    11.046126
_cell_length_c                    18.693269
_cell_angle_alpha                 89.99459
_cell_angle_beta                  91.578254
_cell_angle_gamma                 90.006333
_cell_volume                      3846.12901154

loop_
_atom_site_label
_atom_site_type_symbol
_atom_type_description
_atom_site_fract_x
_atom_site_fract_y
_atom_site_fract_z
_atom_type_partial_charge
C1    C     C_R   0.270749 0.046443 0.851527 0.540014
C2    C     C_R   0.729253 0.046447 0.148475 0.539926
C3    C     C_R   0.770749 0.546443 0.851527 0.540014
C4    C     C_R   0.229253 0.546447 0.148475 0.539926
C5    C     C_3   0.530101 0.731059 0.972501 -0.070664
C6    C     C_3   0.469888 0.731063 0.027509 -0.070676
C7    C     C_3   0.030101 0.231059 0.972501 -0.070664
C8    C     C_3   0.969888 0.231063 0.027509 -0.070676
C9    C     C_R   0.316880 0.573253 0.972747 0.104525
C10   C     C_R   0.683117 0.573247 0.027255 0.104524
C11   C     C_R   0.816880 0.073253 0.972747 0.104525
C12   C     C_R   0.183117 0.073247 0.027255 0.104524
C13   C     C_R   0.309624 0.552949 0.045597 -0.129797
C14   C     C_R   0.690373 0.552949 0.954406 -0.129769
C15   C     C_R   0.809624 0.052949 0.045597 -0.129797
C16   C     C_R   0.190373 0.052949 0.954406 -0.129769
C17   C     C_R   0.250326 0.597209 0.080685 -0.046929
C18   C     C_R   0.749686 0.597187 0.919320 -0.046907
C19   C     C_R   0.750326 0.097209 0.080685 -0.046929
C20   C     C_R   0.249686 0.097187 0.919320 -0.046907
C21   C     C_R   0.200681 0.670776 0.044517 -0.094397
C22   C     C_R   0.799350 0.670729 0.955490 -0.094385
C23   C     C_R   0.700681 0.170776 0.044517 -0.094397
C24   C     C_R   0.299350 0.170729 0.955490 -0.094385
C25   C     C_R   0.203943 0.687446 0.972098 0.107279
C26   C     C_R   0.796078 0.687415 0.027906 0.107289
C27   C     C_R   0.703943 0.187446 0.972098 0.107279
C28   C     C_R   0.296078 0.187415 0.027906 0.107289
C29   C     C_R   0.263794 0.642116 0.934727 0.013352
C30   C     C_R   0.736212 0.642103 0.065274 0.013361
C31   C     C_R   0.763794 0.142116 0.934727 0.013352
C32   C     C_R   0.236212 0.142103 0.065274 0.013361
C33   C     C_R   0.500238 0.724899 0.536538 -0.190109
C34   C     C_R   0.500168 0.724778 0.463567 -0.190140
C35   C     C_R   0.000239 0.224900 0.536539 -0.190108
C36   C     C_R   0.000169 0.224779 0.463568 -0.190141
C37   C     C_R   0.504358 0.833442 0.425640 -0.006352
C38   C     C_R   0.495518 0.833630 0.574294 -0.006362
C39   C     C_R   0.004359 0.333442 0.425640 -0.006352
C40   C     C_R   0.995519 0.333630 0.574294 -0.006361
C41   C     C_R   0.501639 0.945314 0.462470 0.175921
C42   C     C_R   0.497622 0.945433 0.537257 0.175956
C43   C     C_R   0.001641 0.445314 0.462471 0.175921
C44   C     C_R   0.997624 0.445433 0.537258 0.175957
C45   C     C_R   0.470908 0.821852 0.855245 0.539770
C46   C     C_R   0.529092 0.821851 0.144755 0.539770
C47   C     C_R   0.970908 0.321852 0.855245 0.539770
C48   C     C_R   0.029092 0.321851 0.144755 0.539770
C49   C     C_R   0.214969 0.728662 0.514766 0.173497
C50   C     C_R   0.784857 0.728956 0.485271 0.173960
C51   C     C_R   0.714968 0.228658 0.514766 0.173496
C52   C     C_R   0.284857 0.228957 0.485271 0.173961
C53   C     C_R   0.215047 0.714656 0.440736 0.199845
C54   C     C_R   0.784777 0.714811 0.559298 0.200184
C55   C     C_R   0.715047 0.214654 0.440736 0.199844
C56   C     C_R   0.284777 0.214812 0.559298 0.200185
C57   C     C_R   0.259651 0.626083 0.411282 -0.006020
C58   C     C_R   0.740328 0.625937 0.588685 -0.006025
C59   C     C_R   0.759650 0.126082 0.411282 -0.006020
C60   C     C_R   0.240328 0.125937 0.588685 -0.006025
C61   C     C_R   0.320940 0.590674 0.450045 -0.153052
C62   C     C_R   0.679169 0.590146 0.549861 -0.153605
C63   C     C_R   0.820940 0.090672 0.450045 -0.153054
C64   C     C_R   0.179169 0.090148 0.549861 -0.153604
C65   C     C_R   0.326837 0.615634 0.523081 -0.146214
C66   C     C_R   0.673256 0.615229 0.476849 -0.146563
C67   C     C_R   0.826836 0.115630 0.523082 -0.146215
C68   C     C_R   0.173256 0.115230 0.476849 -0.146563
C69   C     C_R   0.270960 0.675971 0.557475 -0.015138
C70   C     C_R   0.729003 0.675983 0.442517 -0.015142
C71   C     C_R   0.770959 0.175966 0.557475 -0.015137
C72   C     C_R   0.229003 0.175984 0.442517 -0.015142
C73   C     C_R   0.272458 0.677855 0.860055 0.569782
C74   C     C_R   0.727546 0.677849 0.139941 0.569780
C75   C     C_R   0.772458 0.177855 0.860055 0.569782
C76   C     C_R   0.227546 0.177849 0.139941 0.569780
C77   C     C_R   0.267809 0.055050 0.650322 0.558654
C78   C     C_R   0.732197 0.055080 0.349663 0.558555
C79   C     C_R   0.767809 0.555050 0.650322 0.558655
C80   C     C_R   0.232197 0.555080 0.349663 0.558555
C81   C     C_R   0.470148 0.824045 0.647061 0.544416
C82   C     C_R   0.529804 0.824001 0.352904 0.544622
C83   C     C_R   0.970148 0.324045 0.647061 0.544417
C84   C     C_R   0.029804 0.324001 0.352904 0.544621
C85   C     C_R   0.274476 0.691209 0.635931 0.574622
C86   C     C_R   0.725522 0.691205 0.364046 0.574821
C87   C     C_R   0.774474 0.191204 0.635932 0.574629
C88   C     C_R   0.225522 0.191205 0.364046 0.574821
C89   C     C_3   0.469937 0.930512 0.027843 -0.108652
C90   C     C_3   0.530084 0.930508 0.972142 -0.108661
C91   C     C_3   0.969937 0.430512 0.027843 -0.108652
C92   C     C_3   0.030084 0.430508 0.972142 -0.108661
C93   C     C_3   0.429520 0.830783 0.985032 -0.118781
C94   C     C_3   0.570486 0.830776 0.014966 -0.118768
C95   C     C_3   0.929520 0.330783 0.985032 -0.118781
C96   C     C_3   0.070486 0.330776 0.014966 -0.118768
C97   C     C_3   0.490332 0.830231 0.930841 0.038525
C98   C     C_3   0.509673 0.830233 0.069157 0.038538
C99   C     C_3   0.990332 0.330231 0.930841 0.038525
C100  C     C_3   0.009673 0.330233 0.069157 0.038537
Cr1   Cr    Cr6+3 0.229630 0.835900 0.747350 1.111715
Cr2   Cr    Cr6+3 0.770370 0.835900 0.252650 1.111956
Cr3   Cr    Cr6+3 0.729630 0.335900 0.747350 1.111714
Cr4   Cr    Cr6+3 0.270370 0.335900 0.252650 1.111956
Cr5   Cr    Cr6+3 0.387410 0.989850 0.750850 1.123783
Cr6   Cr    Cr6+3 0.612590 0.989850 0.249150 1.123857
Cr7   Cr    Cr6+3 0.887410 0.489850 0.750850 1.123784
Cr8   Cr    Cr6+3 0.112590 0.489850 0.249150 1.123857
Cr9   Cr    Cr6+3 0.385800 0.677120 0.749340 1.113562
Cr10  Cr    Cr6+3 0.614200 0.677120 0.250660 1.113443
Cr11  Cr    Cr6+3 0.885800 0.177120 0.749340 1.113562
Cr12  Cr    Cr6+3 0.114200 0.177120 0.250660 1.113444
H1    H     H_    0.371263 0.831884 0.970892 0.112839
H2    H     H_    0.628743 0.831872 0.029106 0.112843
H3    H     H_    0.871263 0.331884 0.970892 0.112839
H4    H     H_    0.128743 0.331872 0.029106 0.112843
H5    H     H_    0.372923 0.581479 0.553144 0.191855
H6    H     H_    0.627284 0.580815 0.446749 0.191878
H7    H     H_    0.872921 0.081473 0.553144 0.191858
H8    H     H_    0.127284 0.080816 0.446749 0.191878
H9    H     H_    0.553346 0.650552 0.946557 0.179467
H10   H     H_    0.446633 0.650559 0.053462 0.179446
H11   H     H_    0.053345 0.150553 0.946557 0.179467
H12   H     H_    0.946633 0.150559 0.053462 0.179446
H13   H     H_    0.348928 0.498915 0.074474 0.209040
H14   H     H_    0.651055 0.498941 0.925527 0.209035
H15   H     H_    0.848927 0.998915 0.074474 0.209040
H16   H     H_    0.151055 0.998941 0.925527 0.209035
O1    O     O_R   0.214270 0.709000 0.827470 -0.450104
O2    O     O_R   0.785730 0.709000 0.172530 -0.450080
O3    O     O_R   0.714270 0.209000 0.827470 -0.450104
O4    O     O_R   0.285730 0.209000 0.172530 -0.450080
O5    O     O_R   0.445950 0.919440 0.676520 -0.456245
O6    O     O_R   0.554050 0.919440 0.323480 -0.456105
O7    O     O_R   0.945950 0.419440 0.676520 -0.456245
O8    O     O_R   0.054050 0.419440 0.323480 -0.456105
O9    O     O_R   0.456730 0.717630 0.669840 -0.532075
O10   O     O_R   0.543270 0.717630 0.330160 -0.532155
O11   O     O_R   0.956730 0.217630 0.669840 -0.532075
O12   O     O_R   0.043270 0.217630 0.330160 -0.532155
O13   O     O_R   0.320620 0.625640 0.672920 -0.465715
O14   O     O_R   0.679380 0.625640 0.327080 -0.466083
O15   O     O_R   0.820620 0.125640 0.672920 -0.465720
O16   O     O_R   0.179380 0.125640 0.327080 -0.466083
O17   O     O_3   0.334280 0.834290 0.749180 -0.335570
O18   O     O_3   0.665720 0.834290 0.250820 -0.335592
O19   O     O_3   0.834280 0.334290 0.749180 -0.335568
O20   O     O_3   0.165720 0.334290 0.250820 -0.335592
O21   O     O_R   0.236160 0.958490 0.823130 -0.507202
O22   O     O_R   0.763840 0.958490 0.176870 -0.507260
O23   O     O_R   0.736160 0.458490 0.823130 -0.507202
O24   O     O_R   0.263840 0.458490 0.176870 -0.507260
O25   O     O_R   0.332080 0.075470 0.831280 -0.501716
O26   O     O_R   0.667920 0.075470 0.168720 -0.501706
O27   O     O_R   0.832080 0.575470 0.831280 -0.501716
O28   O     O_R   0.167920 0.575470 0.168720 -0.501706
O29   O     O_R   0.446300 0.918110 0.826620 -0.491964
O30   O     O_R   0.553700 0.918110 0.173380 -0.491902
O31   O     O_R   0.946300 0.418110 0.826620 -0.491964
O32   O     O_R   0.053700 0.418110 0.173380 -0.491902
O33   O     O_R   0.457110 0.716200 0.831760 -0.484437
O34   O     O_R   0.542890 0.716200 0.168240 -0.484465
O35   O     O_R   0.957110 0.216200 0.831760 -0.484437
O36   O     O_R   0.042890 0.216200 0.168240 -0.484465
O37   O     O_R   0.320980 0.624310 0.823030 -0.438791
O38   O     O_R   0.679020 0.624310 0.176970 -0.438843
O39   O     O_R   0.820980 0.124310 0.823030 -0.438792
O40   O     O_R   0.179020 0.124310 0.176970 -0.438843
O41   O     O_R   0.213890 0.710430 0.665540 -0.432829
O42   O     O_R   0.786110 0.710430 0.334460 -0.432575
O43   O     O_R   0.713890 0.210430 0.665540 -0.432835
O44   O     O_R   0.286110 0.210430 0.334460 -0.432574
O45   O     O_R   0.235810 0.959820 0.673020 -0.511249
O46   O     O_R   0.764190 0.959820 0.326980 -0.510943
O47   O     O_R   0.735810 0.459820 0.673020 -0.511248
O48   O     O_R   0.264190 0.459820 0.326980 -0.510942
O49   O     O_R   0.331700 0.076900 0.669350 -0.441418
O50   O     O_R   0.668300 0.076900 0.330650 -0.441649
O51   O     O_R   0.831700 0.576900 0.669350 -0.441418
O52   O     O_R   0.168300 0.576900 0.330650 -0.441649
Br1   Br    Br    0.130991 0.803687 0.552693 -0.355711
Br2   Br    Br    0.868641 0.804666 0.447392 -0.355634
Br3   Br    Br    0.630990 0.303683 0.552694 -0.355710
Br4   Br    Br    0.368640 0.304668 0.447392 -0.355634
Br5   Br    Br    0.155808 0.819152 0.380210 -0.355021
Br6   Br    Br    0.843721 0.819589 0.619923 -0.354901
Br7   Br    Br    0.655808 0.319151 0.380211 -0.355022
Br8   Br    Br    0.343720 0.319590 0.619923 -0.354897
H17   H     H_    0.362627 0.541020 0.424168 0.190633
H18   H     H_    0.637616 0.540077 0.575665 0.190786
H19   H     H_    0.862627 0.041018 0.424169 0.190633
H20   H     H_    0.137615 0.040080 0.575666 0.190785
H21   H     H_    0.444914 0.010675 0.052565 0.186019
H22   H     H_    0.555121 0.010664 0.947411 0.186011
H23   H     H_    0.944914 0.510675 0.052565 0.186019
H24   H     H_    0.055121 0.510664 0.947411 0.186011
Br9   Br    Br    0.396979 0.492821 0.930083 -0.412427
Br10  Br    Br    0.603003 0.492820 0.069922 -0.412419
Br11  Br    Br    0.896979 0.992821 0.930083 -0.412427
Br12  Br    Br    0.103003 0.992820 0.069922 -0.412419
H25   H     H_    0.154157 0.706012 0.071135 0.221343
H26   H     H_    0.845887 0.705947 0.928877 0.221334
H27   H     H_    0.654157 0.206012 0.071135 0.221343
H28   H     H_    0.345887 0.205947 0.928877 0.221334
Br13  Br    Br    0.116891 0.757086 0.930840 -0.437129
Br14  Br    Br    0.883131 0.757069 0.069166 -0.437020
Br15  Br    Br    0.616891 0.257086 0.930840 -0.437129
Br16  Br    Br    0.383131 0.257069 0.069166 -0.437020
H29   H     H_    0.499727 0.637597 0.562950 0.176400
H30   H     H_    0.501078 0.637392 0.437296 0.176412
H31   H     H_    0.999728 0.137598 0.562950 0.176401
H32   H     H_    0.001079 0.137393 0.437296 0.176412
Br17  Br    Br    0.501813 0.098875 0.412807 -0.261758
Br18  Br    Br    0.496469 0.099321 0.586525 -0.261347
Br19  Br    Br    0.001816 0.598874 0.412809 -0.261759
Br20  Br    Br    0.996473 0.599320 0.586526 -0.261347

loop_
_geom_bond_atom_site_label_1
_geom_bond_atom_site_label_2
_ccdc_geom_bond_type
C58   C62   A    
Cr5   O25   S    
C49   C53   A    
Cr2   O42   S    
C88   O44   A    
C55   C59   A    
C34   C37   A    
C24   H28   S    
C41   C42   A    
C14   C18   A    
Cr1   O45   S    
C35   C36   A    
C40   C83   S    
C43   Br19  S    
Cr6   O6    S    
C83   O11   A    
C5    C94   S    
C94   H2    S    
Cr3   O19   S    
C7    C8    S    
Cr4   O48   S    
C47   O31   A    
C15   C19   A    
C7    C96   S    
C48   O32   A    
Cr1   O17   S    
C50   C54   A    
C7    C99   S    
C2    O22   A    
Cr10  O34   S    
C37   C41   A    
C42   Br18  S    
C64   C68   A    
Cr9   O33   S    
Cr10  O38   S    
C39   C84   S    
C38   C42   A    
C51   Br3   S    
C5    C6    S    
C30   C74   S    
C65   C69   A    
C68   C72   A    
C29   C73   S    
C94   C98   S    
C95   C99   S    
Cr12  O40   S    
C5    H9    S    
C92   C96   S    
Cr12  O36   S    
C47   C99   S    
Cr8   O52   S    
C3    C18   S    
Cr9   O9    S    
Cr11  O11   S    
C57   C61   A    
Cr10  O14   S    
C9    C13   A    
C45   O33   A    
C34   H30   S    
C64   H20   S    
C33   H29   S    
Cr5   O29   S    
C56   Br8   S    
C95   H3    S    
Cr6   O26   S    
C6    H10   S    
C90   H22   S    
C68   H8    S    
Cr7   O7    S    
Cr1   O1    S    
C1    O21   A    
C23   C27   A    
C91   C100  S    
C24   C28   A    
C90   C97   S    
C83   O7    A    
C61   H17   S    
Cr11  O15   S    
Cr4   O44   S    
C13   H13   S    
C46   C98   S    
C87   O43   A    
C2    O26   A    
C49   C69   A    
C12   C32   A    
Cr3   O43   S    
C57   C80   S    
C78   O50   A    
C65   H5    S    
C50   Br2   S    
C8    C95   S    
C11   C15   A    
C35   H31   S    
C12   C16   A    
C10   Br10  S    
C59   C78   S    
Cr3   O47   S    
C72   C88   S    
C11   Br11  S    
C75   O3    A    
C90   C94   S    
C63   C67   A    
C25   C29   A    
C48   C100  S    
C73   O1    A    
C60   C77   S    
C22   H26   S    
C27   C31   A    
C21   H25   S    
Cr10  O10   S    
Cr11  O35   S    
C76   O40   A    
C80   O48   A    
C73   O37   A    
C10   C14   A    
C85   O13   A    
C91   C92   S    
C62   C66   A    
C19   C23   A    
C8    H12   S    
C39   C43   A    
C51   C55   A    
Cr7   O19   S    
Cr6   O30   S    
C91   C95   S    
C85   O41   A    
C56   C60   A    
C23   H27   S    
C77   O49   A    
C82   O6    A    
C81   O9    A    
C43   C44   A    
C52   C72   A    
Cr11  O19   S    
C46   O30   A    
C41   Br17  S    
C10   C30   A    
C93   C97   S    
C31   C75   S    
Cr8   O28   S    
C28   C32   A    
C54   Br6   S    
C16   C20   A    
C6    C93   S    
Cr5   O17   S    
C62   H18   S    
C3    O27   A    
C33   C34   A    
C12   Br12  S    
C45   O29   A    
C93   H1    S    
C4    O24   A    
Cr1   O41   S    
C16   H16   S    
C84   O12   A    
C22   C26   A    
Cr9   O37   S    
C58   C79   S    
C36   H32   S    
C49   Br1   S    
C89   H21   S    
C77   O45   A    
C4    O28   A    
Cr2   O22   S    
C26   C30   A    
C55   Br7   S    
C74   O2    A    
C38   C81   S    
Cr4   O4    S    
C28   Br16  S    
C71   C87   S    
C37   C82   S    
Cr11  O39   S    
C4    C17   S    
Cr12  O12   S    
C70   C86   S    
C6    C98   S    
C74   O38   A    
C69   C85   S    
C86   O14   A    
Cr5   O5    S    
C54   C58   A    
C21   C25   A    
C84   O8    A    
C1    C20   S    
C53   C57   A    
Cr7   O51   S    
C2    C19   S    
C44   Br20  S    
C59   C63   A    
C9    Br9   S    
C36   C39   A    
Cr9   O17   S    
C52   Br4   S    
Cr5   O49   S    
C15   H15   S    
C92   H24   S    
C14   H14   S    
C32   C76   S    
Cr7   O31   S    
C51   C71   A    
C81   O5    A    
Cr8   O32   S    
Cr3   O23   S    
Cr2   O46   S    
C91   H23   S    
C3    O23   A    
C33   C38   A    
Cr6   O18   S    
Cr8   O8    S    
C13   C17   A    
C89   C98   S    
C60   C64   A    
Cr12  O16   S    
C18   C22   A    
C35   C40   A    
C50   C70   A    
C47   O35   A    
Cr4   O20   S    
C80   O52   A    
C45   C97   S    
C26   Br14  S    
Cr2   O18   S    
C9    C29   A    
C76   O4    A    
C79   O47   A    
Cr4   O24   S    
C8    C100  S    
C66   C70   A    
C67   H7    S    
C86   O42   A    
C48   O36   A    
C63   H19   S    
C96   C100  S    
Cr1   O21   S    
C75   O39   A    
C88   O16   A    
C5    C97   S    
C67   C71   A    
C61   C65   A    
C89   C93   S    
C20   C24   A    
C17   C21   A    
C1    O25   A    
C11   C31   A    
Cr12  O20   S    
C40   C44   A    
C79   O51   A    
C25   Br13  S    
C27   Br15  S    
C82   O10   A    
C66   H6    S    
C78   O46   A    
C53   Br5   S    
C96   H4    S    
Cr9   O13   S    
C87   O15   A    
C89   C90   S    
Cr10  O18   S    
Cr3   O3    S    
Cr6   O50   S    
Cr7   O27   S    
C52   C56   A    
C92   C99   S    
C7    H11   S    
C46   O34   A    
Cr8   O20   S    
Cr2   O2    S    
