data_mof_unit_4186.cif
_audit_creation_date              2012-12-11T15:49:05-0500
_audit_creation_method            fapswitch 2.2
_symmetry_space_group_name_H-M    P1
_symmetry_Int_Tables_number       1
_space_group_crystal_system       triclinic
_cell_length_a                    21.725996
_cell_length_b                    7.182676
_cell_length_c                    15.195261
_cell_angle_alpha                 89.937737
_cell_angle_beta                  107.125037
_cell_angle_gamma                 89.854223
_cell_volume                      2266.09103441

loop_
_atom_site_label
_atom_site_type_symbol
_atom_type_description
_atom_site_fract_x
_atom_site_fract_y
_atom_site_fract_z
_atom_type_partial_charge
O1    O     O_R   0.335860 0.638190 0.002110 -0.541881
O2    O     O_R   0.664140 0.361810 0.997890 -0.541881
O3    O     O_R   0.164140 0.138190 0.997890 -0.541768
O4    O     O_R   0.835860 0.861810 0.002110 -0.541768
O5    O     O_R   0.217530 0.305920 0.861960 -0.537476
O6    O     O_R   0.782470 0.694080 0.138040 -0.537476
O7    O     O_R   0.282470 0.805920 0.138040 -0.539601
O8    O     O_R   0.717530 0.194080 0.861960 -0.539601
C1    C     C_R   0.206239 0.477853 0.826409 0.694330
C2    C     C_R   0.793762 0.522147 0.173591 0.694330
C3    C     C_R   0.295101 0.976561 0.173807 0.697167
C4    C     C_R   0.704899 0.023439 0.826193 0.697167
O9    O     O_R   0.338690 0.308320 0.993240 -0.542019
O10   O     O_R   0.661310 0.691680 0.006760 -0.542019
O11   O     O_R   0.161310 0.808320 0.006760 -0.538707
O12   O     O_R   0.838690 0.191680 0.993240 -0.538707
O13   O     O_R   0.286170 0.140430 0.130100 -0.540446
O14   O     O_R   0.713830 0.859570 0.869900 -0.540447
O15   O     O_R   0.213830 0.640430 0.869900 -0.539410
O16   O     O_R   0.786170 0.359570 0.130100 -0.539410
C5    C     C_R   0.364971 0.476032 0.997767 0.683616
C6    C     C_R   0.635029 0.523968 0.002233 0.683615
C7    C     C_R   0.134711 0.976458 0.000491 0.692459
C8    C     C_R   0.865289 0.023542 0.999509 0.692460
O17   O     O_3   0.232630 0.472410 0.044750 -0.377697
O18   O     O_3   0.767370 0.527590 0.955250 -0.377696
O19   O     O_3   0.267370 0.972410 0.955250 -0.377466
O20   O     O_3   0.732630 0.027590 0.044750 -0.377467
V1    V     V_3+5 0.253220 0.196620 0.991700 1.403416
V2    V     V_3+5 0.746780 0.803380 0.008300 1.403415
V3    V     V_3+5 0.246780 0.696620 0.008300 1.411874
V4    V     V_3+5 0.753220 0.303380 0.991700 1.411874
C9    C     C_R   0.020364 0.842072 0.960771 0.168639
C10   C     C_R   0.979636 0.157927 0.039229 0.168639
C11   C     C_R   0.476749 0.328693 0.020917 0.164639
C12   C     C_R   0.523251 0.671307 0.979083 0.164639
C13   C     C_R   0.956142 0.858988 0.962550 -0.192913
C14   C     C_R   0.043858 0.141012 0.037450 -0.192913
C15   C     C_R   0.541583 0.348341 0.023835 -0.191757
C16   C     C_R   0.458417 0.651659 0.976165 -0.191757
H1    H     H_    0.922173 0.749731 0.932418 0.132880
H2    H     H_    0.077827 0.250269 0.067582 0.132880
H3    H     H_    0.573719 0.230730 0.043883 0.138031
H4    H     H_    0.426281 0.769270 0.956117 0.138032
C17   C     C_R   0.934525 0.015166 0.000661 -0.090374
C18   C     C_R   0.065475 0.984834 0.999339 -0.090375
C19   C     C_R   0.565972 0.516752 0.002211 -0.090150
C20   C     C_R   0.434028 0.483248 0.997789 -0.090150
C21   C     C_R   0.675831 0.016744 0.725493 -0.028014
C22   C     C_R   0.324169 0.983256 0.274507 -0.028014
C23   C     C_R   0.823510 0.503172 0.273245 -0.034657
C24   C     C_R   0.176491 0.496828 0.726755 -0.034658
C25   C     C_R   0.688771 0.036229 0.573205 -0.162640
C26   C     C_R   0.311229 0.963770 0.426795 -0.162639
C27   C     C_R   0.826000 0.299763 0.400754 -0.168863
C28   C     C_R   0.174001 0.700238 0.599246 -0.168864
C29   C     C_R   0.714278 0.053083 0.668337 -0.216825
C30   C     C_R   0.285722 0.946917 0.331663 -0.216825
C31   C     C_R   0.792004 0.386639 0.319584 -0.214317
C32   C     C_R   0.207996 0.613362 0.680417 -0.214316
C33   C     C_R   0.609846 0.975868 0.685984 0.106134
C34   C     C_R   0.390153 0.024132 0.314016 0.106134
C35   C     C_R   0.888430 0.555168 0.315360 0.100426
C36   C     C_R   0.111571 0.444831 0.684639 0.100426
C37   C     C_R   0.580995 0.000662 0.589873 0.053070
C38   C     C_R   0.419005 0.999338 0.410127 0.053070
C39   C     C_R   0.920476 0.488324 0.406516 0.039845
C40   C     C_R   0.079526 0.511675 0.593482 0.039845
C41   C     C_R   0.622384 0.004193 0.532948 0.095148
C42   C     C_R   0.377616 0.995806 0.467052 0.095148
C43   C     C_R   0.891461 0.339088 0.441539 0.092780
C44   C     C_R   0.108541 0.660912 0.558460 0.092780
C45   C     C_R   0.512834 0.013254 0.547973 0.012359
C46   C     C_R   0.487166 0.986746 0.452027 0.012359
C47   C     C_R   0.981739 0.553778 0.461882 0.012228
C48   C     C_R   0.018263 0.446220 0.538116 0.012228
C49   C     C_R   0.530150 0.939769 0.401697 -0.186201
C50   C     C_R   0.469850 0.060230 0.598303 -0.186201
C51   C     C_R   0.993985 0.272142 0.553676 -0.189397
C52   C     C_R   0.006017 0.727855 0.446322 -0.189399
C53   C     C_R   0.596609 0.965539 0.438258 0.151258
C54   C     C_R   0.403391 0.034460 0.561742 0.151258
C55   C     C_R   0.929698 0.225035 0.512576 0.145547
C56   C     C_R   0.070304 0.774962 0.487421 0.145547
H5    H     H_    0.234928 0.917042 0.302304 0.118001
H6    H     H_    0.765072 0.082958 0.697696 0.118002
H7    H     H_    0.257444 0.654801 0.712894 0.120758
H8    H     H_    0.742556 0.345202 0.287107 0.120757
H9    H     H_    0.721410 0.049486 0.531809 0.130989
H10   H     H_    0.278590 0.950513 0.468191 0.130989
H11   H     H_    0.801089 0.195708 0.428815 0.132407
H12   H     H_    0.198912 0.804295 0.571187 0.132407
H13   H     H_    0.512313 0.886011 0.332660 0.148181
H14   H     H_    0.487686 0.113989 0.667340 0.148181
H15   H     H_    0.024639 0.172311 0.599383 0.154534
H16   H     H_    0.975364 0.827685 0.400614 0.154535
C57   C     C_3   0.038213 0.674070 0.914070 -0.757976
H17   H     H_    0.061375 0.719396 0.861534 0.203967
H18   H     H_    0.071280 0.582198 0.965694 0.219977
H19   H     H_    0.995364 0.589766 0.878299 0.196350
C58   C     C_3   0.961787 0.325931 0.085930 -0.757976
H20   H     H_    0.938625 0.280605 0.138465 0.203967
H21   H     H_    0.004636 0.410234 0.121700 0.196350
H22   H     H_    0.928720 0.417802 0.034305 0.219977
C59   C     C_3   0.454907 0.140860 0.041626 -0.772549
H23   H     H_    0.426073 0.156171 0.088701 0.222919
H24   H     H_    0.424404 0.078140 0.977014 0.211754
H25   H     H_    0.495382 0.047340 0.076370 0.201858
C60   C     C_3   0.545092 0.859140 0.958374 -0.772548
H26   H     H_    0.573927 0.843829 0.911299 0.222919
H27   H     H_    0.504618 0.952660 0.923631 0.201858
H28   H     H_    0.575596 0.921860 0.022986 0.211753
C61   C     C_3   0.638937 0.942076 0.376003 -0.803238
H29   H     H_    0.674573 0.829104 0.402644 0.214194
H30   H     H_    0.610592 0.905454 0.304569 0.208388
H31   H     H_    0.664589 0.074235 0.372735 0.203505
C62   C     C_3   0.361063 0.057923 0.623997 -0.803239
H32   H     H_    0.325427 0.170895 0.597356 0.214195
H33   H     H_    0.335411 0.925763 0.627265 0.203506
H34   H     H_    0.389408 0.094545 0.695431 0.208388
C63   C     C_3   0.904378 0.046824 0.541788 -0.796154
H35   H     H_    0.864768 0.078804 0.571849 0.202768
H36   H     H_    0.886320 0.953664 0.481425 0.213219
H37   H     H_    0.942260 0.969924 0.594623 0.215168
C64   C     C_3   0.095625 0.953170 0.458207 -0.796155
H38   H     H_    0.135236 0.921187 0.428149 0.202768
H39   H     H_    0.057743 0.030067 0.405370 0.215168
H40   H     H_    0.113681 0.046334 0.518569 0.213219
C65   C     C_3   0.425831 0.119850 0.256010 -0.822980
H41   H     H_    0.468926 0.196006 0.297473 0.225688
H42   H     H_    0.439626 0.012270 0.213227 0.195299
H43   H     H_    0.395494 0.230244 0.213462 0.222488
C66   C     C_3   0.574169 0.880150 0.743990 -0.822980
H44   H     H_    0.560374 0.987730 0.786773 0.195298
H45   H     H_    0.531074 0.803994 0.702527 0.225688
H46   H     H_    0.604506 0.769756 0.786538 0.222489
C67   C     C_3   0.074894 0.354248 0.744638 -0.790423
H47   H     H_    0.022481 0.383193 0.719499 0.216121
H48   H     H_    0.084438 0.202111 0.749892 0.208445
H49   H     H_    0.089655 0.411502 0.815356 0.203076
C68   C     C_3   0.925107 0.645751 0.255360 -0.790425
H50   H     H_    0.915563 0.797889 0.250107 0.208445
H51   H     H_    0.977519 0.616804 0.280497 0.216121
H52   H     H_    0.910344 0.588499 0.184642 0.203077

loop_
_geom_bond_atom_site_label_1
_geom_bond_atom_site_label_2
_ccdc_geom_bond_type
O17   V3    S    
O1    C5    A    
C58   H20   S    
C27   C31   A    
O19   V1    S    
O13   V1    S    
C45   C46   A    
C59   H23   S    
O3    C7    A    
C48   C51   A    
C52   C56   A    
O15   V3    S    
C4    C21   S    
C33   C66   S    
C38   C42   A    
O7    C3    A    
C59   H24   S    
C8    C17   S    
C36   C40   A    
O9    V1    S    
C26   H10   S    
C60   H27   S    
C26   C30   A    
O4    C8    A    
C39   C43   A    
C2    C23   S    
C38   C46   A    
O1    V3    S    
C37   C45   A    
C29   H6    S    
C12   C19   A    
O2    V4    S    
C49   H13   S    
O3    V1    S    
C31   H8    S    
C63   H37   S    
C27   H11   S    
C24   C32   A    
C68   H50   S    
C1    O15   A    
C2    O16   A    
C28   C44   A    
C46   C49   A    
O2    C6    A    
C66   H46   S    
C45   C50   A    
O14   V2    S    
C52   H16   S    
C47   C52   A    
O5    V1    S    
C23   C35   A    
C40   C44   A    
C5    C20   S    
O11   C7    A    
C6    C19   S    
C25   C41   A    
O12   C8    A    
C7    C18   S    
C9    C18   A    
C34   C65   S    
C1    C24   S    
O10   V2    S    
C65   H43   S    
C11   C20   A    
C57   H18   S    
C32   H7    S    
C57   H17   S    
C43   C55   A    
C36   C67   S    
C67   H49   S    
C35   C39   A    
C10   C58   S    
C21   C33   A    
C34   C38   A    
O8    V4    S    
C12   C16   A    
O7    V3    S    
C24   C36   A    
C62   H34   S    
C25   C29   A    
O18   V4    S    
C15   H3    S    
C9    C13   A    
C28   C32   A    
C68   H51   S    
C22   C30   A    
C51   H15   S    
C11   C15   A    
C47   C48   A    
O5    C1    A    
C11   C59   S    
C64   H40   S    
C67   H48   S    
C50   C54   A    
C26   C42   A    
C49   C53   A    
O8    C4    A    
C35   C68   S    
O9    C5    A    
C10   C17   A    
C59   H25   S    
C55   C63   S    
C64   H39   S    
C63   H35   S    
C44   C56   A    
O6    V2    S    
C58   H22   S    
C25   H9    S    
C66   H44   S    
C22   C34   A    
C60   H28   S    
C23   C31   A    
C53   C61   S    
C30   H5    S    
C57   H19   S    
C15   C19   A    
C61   H29   S    
O16   V4    S    
C56   C64   S    
C16   C20   A    
C3    O13   A    
C10   C14   A    
O6    C2    A    
C21   C29   A    
O11   V3    S    
C68   H52   S    
O12   V4    S    
C67   H47   S    
C61   H31   S    
C62   H33   S    
C65   H41   S    
C3    C22   S    
C62   H32   S    
C14   C18   A    
C51   C55   A    
C40   C48   A    
O10   C6    A    
C64   H38   S    
C50   H14   S    
C37   C41   A    
O20   V2    S    
C9    C57   S    
C13   H1    S    
C42   C54   A    
O4    V2    S    
C63   H36   S    
C41   C53   A    
C14   H2    S    
C33   C37   A    
C16   H4    S    
C39   C47   A    
C58   H21   S    
C4    O14   A    
C12   C60   S    
C66   H45   S    
C54   C62   S    
C61   H30   S    
C60   H26   S    
C28   H12   S    
C13   C17   A    
C27   C43   A    
C65   H42   S    
