data_mof_unit_2356.cif
_audit_creation_date              2013-03-05T15:42:39-0500
_audit_creation_method            fapswitch 2.2
_symmetry_space_group_name_H-M    P1
_symmetry_Int_Tables_number       1
_space_group_crystal_system       triclinic
_cell_length_a                    7.740964
_cell_length_b                    8.561114
_cell_length_c                    27.69542
_cell_angle_alpha                 91.019821
_cell_angle_beta                  86.088245
_cell_angle_gamma                 93.774431
_cell_volume                      1826.99976349

loop_
_atom_site_label
_atom_site_type_symbol
_atom_site_description
_atom_site_fract_x
_atom_site_fract_y
_atom_site_fract_z
_atom_type_partial_charge
O1    O     O_R   0.389250 0.738570 0.503220 -0.612869
O2    O     O_R   0.610750 0.261430 0.496780 -0.612220
O3    O     O_R   0.678390 0.711630 0.494810 -0.628761
O4    O     O_R   0.321610 0.288370 0.505190 -0.627770
C1    C     C_R   0.545952 0.794857 0.498737 0.973410
C2    C     C_R   0.454049 0.205144 0.501269 0.974802
O5    O     O_R   0.355440 0.513440 0.575450 -0.616730
O6    O     O_R   0.644560 0.486560 0.424550 -0.619199
O7    O     O_R   0.644590 0.486500 0.567040 -0.629512
O8    O     O_R   0.355410 0.513500 0.432960 -0.629997
C3    C     C_R   0.502888 0.500855 0.593942 0.904365
C4    C     C_R   0.497017 0.499218 0.406092 0.901697
Zn1   Zn    Zn3+2 0.306940 0.517990 0.505620 0.961799
Zn2   Zn    Zn3+2 0.693060 0.482010 0.494380 0.959954
C5    C     C_R   0.543569 0.654195 0.823332 0.580346
C6    C     C_R   0.414480 0.357504 0.177566 0.581095
O9    O     O_2   0.584214 0.788749 0.799226 -0.512070
O10   O     O_2   0.385040 0.220966 0.201316 -0.516540
N1    N     N_R   0.517179 0.517024 0.798271 -0.340075
N2    N     N_R   0.455160 0.492393 0.202507 -0.341371
C7    C     C_R   0.473939 0.378577 0.821076 0.587604
C8    C     C_R   0.482024 0.633394 0.180013 0.600371
C9    C     C_R   0.670902 0.478311 0.718145 0.372568
C10   C     C_R   0.633911 0.511532 0.273090 0.372757
C11   C     C_R   0.662409 0.472062 0.667803 -0.279032
C12   C     C_R   0.641020 0.516170 0.323385 -0.271466
C13   C     C_R   0.364814 0.547670 0.675659 -0.147952
C14   C     C_R   0.328078 0.468126 0.333487 -0.196103
C15   C     C_R   0.371444 0.554572 0.725452 -0.095736
C16   C     C_R   0.319494 0.463236 0.283686 -0.090993
C17   C     C_R   0.522410 0.519747 0.746830 0.177801
C18   C     C_R   0.470621 0.486140 0.253425 0.179480
C19   C     C_R   0.483678 0.513973 0.898503 -0.045316
C20   C     C_R   0.442457 0.502918 0.102861 -0.041568
C21   C     C_R   0.528535 0.655100 0.873942 -0.027022
C22   C     C_R   0.406332 0.360410 0.127307 -0.017261
C23   C     C_R   0.557029 0.793633 0.900179 -0.130799
C24   C     C_R   0.365379 0.223942 0.101212 -0.124377
C25   C     C_R   0.455832 0.374494 0.871602 -0.028484
C26   C     C_R   0.478100 0.641047 0.129738 -0.022423
C27   C     C_R   0.509985 0.506115 0.646512 -0.113731
C28   C     C_R   0.488751 0.495046 0.353613 -0.097875
H1    H     H_    0.246013 0.575005 0.660056 0.188791
H2    H     H_    0.209028 0.450321 0.356185 0.172138
H3    H     H_    0.257809 0.584821 0.747793 0.197426
H4    H     H_    0.194832 0.443427 0.268386 0.209492
H5    H     H_    0.592341 0.903392 0.882051 0.194252
H6    H     H_    0.333622 0.113620 0.119335 0.191704
C29   C     C_R   0.485668 0.651431 0.027616 0.049136
C30   C     C_R   0.421297 0.368596 0.973881 0.049164
C31   C     C_R   0.409669 0.366045 0.025180 0.049521
C32   C     C_R   0.497537 0.653989 0.976310 0.049729
C33   C     C_R   0.445159 0.506942 0.051659 0.077957
C34   C     C_R   0.467037 0.512249 0.949799 0.077927
C35   C     C_R   0.515248 0.788579 0.056026 -0.219028
C36   C     C_R   0.391940 0.231323 0.945514 -0.218136
C37   C     C_R   0.511589 0.783051 0.106024 -0.118037
C38   C     C_R   0.409327 0.234573 0.895453 -0.122744
O11   O     O_2   0.514093 0.765193 0.206297 -0.504708
O12   O     O_2   0.447317 0.245871 0.794795 -0.504454
C39   C     C_R   0.542361 0.793452 0.950295 -0.218404
C40   C     C_R   0.365815 0.226484 0.051220 -0.216961
H7    H     H_    0.765492 0.535911 0.338890 0.194699
H8    H     H_    0.774955 0.440818 0.645194 0.200993
H9    H     H_    0.543468 0.903115 0.041070 0.140810
H10   H     H_    0.356091 0.117977 0.960532 0.140435
H11   H     H_    0.569054 0.905522 0.967258 0.140853
H12   H     H_    0.331945 0.115679 0.034349 0.140142
C41   C     C_2   0.570196 0.958368 0.498010 -0.363396
C42   C     C_2   0.429806 0.041634 0.502006 -0.363018
N3    N     N_2   0.950320 0.457960 0.486880 -0.172738
N4    N     N_2   0.049680 0.542040 0.513120 -0.171735
H13   H     H_    0.014045 0.383123 0.463407 0.191792
H14   H     H_    0.985959 0.616883 0.536591 0.194990
N5    N     N_R   0.791665 0.533601 0.242666 0.212171
O13   O     O_R   0.923787 0.617365 0.258029 -0.390174
O14   O     O_R   0.808625 0.462464 0.200863 -0.389512
N6    N     N_R   0.828396 0.441196 0.739220 0.213905
O15   O     O_R   0.944106 0.364468 0.714071 -0.386099
O16   O     O_R   0.862717 0.490815 0.782416 -0.389504
H15   H     H_    0.538038 0.890949 0.126018 0.200067
H16   H     H_    0.385851 0.126157 0.875464 0.195149
H17   H     H_    0.702692 0.009662 0.494197 0.182287
H18   H     H_    0.297310 0.990339 0.505821 0.182320

loop_
_geom_bond_atom_site_label_1
_geom_bond_atom_site_label_2
_geom_bond_distance
_ccdc_geom_bond_type
C13   C15   1.383551 A    
Zn2   N3    2.011813 S    
N5    O13   1.301252 A    
N1    C17   1.423060 S    
C5    N1    1.364295 A    
C19   C25   1.408459 A    
O1    C1    1.274235 A    
C21   C23   1.392850 A    
C10   C12   1.397531 A    
C32   C39   1.416698 A    
C38   H16   1.083604 S    
C29   C33   1.421852 A    
C2    C42   1.400381 S    
O4    Zn1   1.976308 S    
C13   C27   1.399890 A    
C1    C41   1.400381 S    
C14   C16   1.385138 A    
C4    C28   1.458891 S    
C23   H5    1.083519 S    
C42   H18   1.087899 S    
C24   H6    1.083449 S    
O6    C4    1.294388 A    
O2    C2    1.274235 A    
C31   C40   1.416618 A    
C5    C21   1.398474 A    
C35   H9    1.074567 S    
C32   C34   1.421814 A    
C7    O12   1.350278 S    
O4    C2    1.284029 A    
C11   C27   1.403993 A    
C8    O11   1.350274 S    
N3    H13   1.029307 S    
O7    Zn2   2.021861 S    
N6    O15   1.301903 A    
C29   C35   1.416495 A    
C25   C38   1.392770 A    
C14   H2    1.083318 S    
C30   C36   1.416444 A    
C15   H3    1.083380 S    
C31   C33   1.421505 A    
C11   H8    1.083023 S    
C9    C17   1.413258 A    
O5    C3    1.294057 A    
C12   H7    1.083410 S    
C10   C18   1.412502 A    
C41   H17   1.087899 S    
O7    C3    1.294759 A    
C39   H11   1.074735 S    
C7    C25   1.397610 A    
C6    N2    1.365021 A    
C29   C32   1.418084 A    
C8    C26   1.397572 A    
C30   C31   1.417918 A    
C30   C34   1.422084 A    
N5    O14   1.301248 A    
O3    Zn2   1.976308 S    
O8    C4    1.293586 A    
N4    H14   1.029293 S    
N2    C8    1.365493 A    
C35   C37   1.384650 A    
C37   H15   1.083599 S    
O1    Zn1   1.953654 S    
C12   C28   1.402008 A    
N2    C18   1.425611 S    
C19   C34   1.417965 A    
C5    O9    1.350060 S    
O6    Zn2   1.996594 S    
C26   C37   1.392910 A    
N1    C7    1.364319 A    
C16   H4    1.082232 S    
O3    C1    1.284029 A    
O8    Zn1   2.021861 S    
C23   C39   1.384877 A    
C10   N5    1.439378 S    
Zn1   N4    2.011814 S    
C40   H12   1.074774 S    
C22   C24   1.392917 A    
N3    N4    1.273814 D    
C15   C17   1.397020 A    
C6    C22   1.398405 A    
C16   C18   1.396892 A    
C36   H10   1.074610 S    
C14   C28   1.401094 A    
C19   C21   1.408837 A    
C20   C22   1.408442 A    
C36   C38   1.384401 A    
C3    C27   1.460528 S    
N6    O16   1.301041 A    
C9    C11   1.400173 A    
C9    N6    1.443138 S    
C41   C42   1.335743 D    
O2    Zn2   1.953654 S    
C13   H1    1.083232 S    
O5    Zn1   1.996594 S    
C20   C33   1.417775 A    
C6    O10   1.350109 S    
C20   C26   1.407958 A    
C24   C40   1.384878 A    
