data_mof_unit_3897.cif
_audit_creation_date              2013-03-05T15:39:55-0500
_audit_creation_method            fapswitch 2.2
_symmetry_space_group_name_H-M    P1
_symmetry_Int_Tables_number       1
_space_group_crystal_system       triclinic
_cell_length_a                    14.114819
_cell_length_b                    16.509107
_cell_length_c                    15.227146
_cell_angle_alpha                 89.162464
_cell_angle_beta                  92.665455
_cell_angle_gamma                 90.370104
_cell_volume                      3543.99919952

loop_
_atom_site_label
_atom_site_type_symbol
_atom_site_description
_atom_site_fract_x
_atom_site_fract_y
_atom_site_fract_z
_atom_type_partial_charge
Zn1   Zn    Zn3+2 0.493670 0.096680 0.574000 1.022282
Zn2   Zn    Zn3+2 0.493670 0.903320 0.574000 0.989275
Zn3   Zn    Zn3+2 0.993670 0.596680 0.574000 1.028077
Zn4   Zn    Zn3+2 0.993670 0.403320 0.574000 0.991867
Zn5   Zn    Zn3+2 0.617760 0.000000 0.438070 1.104920
Zn6   Zn    Zn3+2 0.117760 0.500000 0.438070 1.103921
Zn7   Zn    Zn3+2 0.394920 0.000000 0.413930 1.037791
Zn8   Zn    Zn3+2 0.894920 0.500000 0.413930 1.033183
O1    O     O_3   0.500000 0.000000 0.500000 -0.526700
O2    O     O_3   1.000000 0.500000 0.500000 -0.526479
O3    O     O_R   0.605310 0.837110 0.563680 -0.656974
O4    O     O_R   0.605310 0.162890 0.563680 -0.632662
O5    O     O_R   0.105310 0.337110 0.563680 -0.656506
O6    O     O_R   0.105310 0.662890 0.563680 -0.625630
O7    O     O_R   0.385830 0.162890 0.539910 -0.643968
O8    O     O_R   0.385830 0.837110 0.539910 -0.648152
O9    O     O_R   0.885830 0.662890 0.539910 -0.640934
O10   O     O_R   0.885830 0.337110 0.539910 -0.648787
O11   O     O_R   0.692160 0.095230 0.468550 -0.610104
O12   O     O_R   0.692160 0.904770 0.468550 -0.593457
O13   O     O_R   0.192160 0.595230 0.468550 -0.613687
O14   O     O_R   0.192160 0.404770 0.468550 -0.594618
O15   O     O_R   0.316720 0.904790 0.427870 -0.602068
O16   O     O_R   0.316720 0.095210 0.427870 -0.587834
O17   O     O_R   0.816720 0.404790 0.427870 -0.611576
O18   O     O_R   0.816720 0.595210 0.427870 -0.584609
O19   O     O_R   0.594900 0.000000 0.310900 -0.554447
O20   O     O_R   0.094900 0.500000 0.310900 -0.554174
O21   O     O_R   0.483090 0.932320 0.697550 -0.642649
O22   O     O_R   0.483090 0.067680 0.697550 -0.617344
O23   O     O_R   0.983090 0.432320 0.697550 -0.639374
O24   O     O_R   0.983090 0.567680 0.697550 -0.617556
O25   O     O_R   0.438930 0.000000 0.294000 -0.649693
O26   O     O_R   0.938930 0.500000 0.294000 -0.658186
C1    C     C_R   0.678807 0.844171 0.519440 0.889714
C2    C     C_R   0.680256 0.153996 0.519806 0.915618
C3    C     C_R   0.178632 0.344029 0.519118 0.894817
C4    C     C_R   0.180385 0.653883 0.519995 0.922968
C5    C     C_R   0.319432 0.155718 0.480588 0.797773
C6    C     C_R   0.319409 0.844129 0.481306 0.792193
C7    C     C_R   0.819572 0.655859 0.480397 0.798976
C8    C     C_R   0.819565 0.344021 0.481116 0.791203
C9    C     C_R   0.519686 0.998817 0.260032 0.871834
C10   C     C_R   0.019671 0.501053 0.260024 0.868763
C11   C     C_R   0.478558 0.999297 0.737730 0.900369
C12   C     C_R   0.978604 0.499332 0.737725 0.898709
C13   C     C_R   0.524573 0.996111 0.162572 -0.202466
C14   C     C_R   0.025279 0.502979 0.162717 -0.201204
C15   C     C_R   0.464333 0.996369 0.831110 -0.195846
C16   C     C_R   0.966889 0.496699 0.831485 -0.190366
C17   C     C_R   0.369363 0.956766 0.953648 -0.047718
C18   C     C_R   0.877052 0.454794 0.956357 -0.036596
C19   C     C_R   0.382022 0.960271 0.862229 -0.114548
C20   C     C_R   0.886224 0.458988 0.864587 -0.117483
C21   C     C_R   0.535985 0.024927 0.888368 0.256960
C22   C     C_R   0.040726 0.525694 0.886880 0.251643
C23   C     C_R   0.533140 0.006398 0.978689 -0.050966
C24   C     C_R   0.038815 0.511012 0.978245 -0.056908
C25   C     C_R   0.446563 0.979342 0.014264 0.006688
C26   C     C_R   0.952159 0.484788 0.014200 0.009037
C27   C     C_R   0.442593 0.975774 0.107954 -0.092896
C28   C     C_R   0.942579 0.491985 0.106284 -0.090742
C29   C     C_R   0.612042 0.010875 0.123955 0.251968
C30   C     C_R   0.114266 0.515569 0.125611 0.254313
C31   C     C_R   0.616990 0.011849 0.032837 -0.109113
C32   C     C_R   0.121000 0.521846 0.034360 -0.126876
C33   C     C_2   0.250072 0.221192 0.469803 0.080084
C34   C     C_2   0.244077 0.783361 0.478797 0.087706
C35   C     C_2   0.750434 0.721582 0.469468 0.085080
C36   C     C_2   0.745040 0.282601 0.477355 0.095395
C37   C     C_2   0.748700 0.781872 0.529601 -0.262439
C38   C     C_2   0.755315 0.212306 0.524316 -0.274659
C39   C     C_2   0.248786 0.281957 0.529377 -0.263931
C40   C     C_2   0.255367 0.712302 0.524122 -0.278410
C41   C     C_R   0.354710 0.949783 0.150327 0.160860
C42   C     C_R   0.284436 0.006876 0.166856 -0.081572
C43   C     C_R   0.202593 0.982777 0.208611 -0.082493
C44   C     C_R   0.190976 0.902069 0.234976 -0.022867
C45   C     C_R   0.262474 0.845735 0.222330 -0.119962
C46   C     C_R   0.344697 0.869580 0.180860 -0.175423
H1    H     H_    0.292799 0.069516 0.146375 0.132971
H2    H     H_    0.147690 0.026455 0.219569 0.175968
H3    H     H_    0.126409 0.883298 0.265064 0.205602
H4    H     H_    0.253847 0.783510 0.244007 0.187473
H5    H     H_    0.399647 0.825572 0.171075 0.137669
C47   C     C_R   0.846090 0.506113 0.139363 0.157062
C48   C     C_R   0.800991 0.580381 0.120393 -0.166458
C49   C     C_R   0.709967 0.594596 0.149084 -0.110392
C50   C     C_R   0.663233 0.534913 0.196961 -0.039765
C51   C     C_R   0.707553 0.461023 0.216647 -0.077458
C52   C     C_R   0.798373 0.446392 0.187837 -0.062923
H6    H     H_    0.836248 0.627007 0.082980 0.138450
H7    H     H_    0.675535 0.651843 0.133984 0.156558
H8    H     H_    0.592654 0.545937 0.218820 0.177096
H9    H     H_    0.671328 0.414822 0.253690 0.193742
H10   H     H_    0.832065 0.388921 0.203684 0.133745
N1    N     N_R   0.697449 0.023311 0.176905 0.215153
O27   O     O_R   0.757196 0.964276 0.190532 -0.352476
O28   O     O_R   0.718436 0.095085 0.206428 -0.392880
N2    N     N_R   0.198936 0.525629 0.180470 0.220082
O29   O     O_R   0.261192 0.467844 0.187392 -0.353361
O30   O     O_R   0.218107 0.595346 0.216170 -0.402057
C53   C     C_R   0.272460 0.934828 0.979869 0.144112
C54   C     C_R   0.202193 0.994692 0.977839 -0.159022
C55   C     C_R   0.109303 0.974533 0.997559 -0.151363
C56   C     C_R   0.084782 0.894022 0.015475 -0.113140
C57   C     C_R   0.153562 0.833596 0.014477 -0.093026
C58   C     C_R   0.247269 0.853777 0.996848 -0.142445
H11   H     H_    0.219932 0.057084 0.962483 0.124090
H12   H     H_    0.056625 0.021574 0.999241 0.140986
H13   H     H_    0.012566 0.878481 0.030205 0.149664
H14   H     H_    0.134244 0.771296 0.027943 0.150959
H15   H     H_    0.300164 0.806599 0.996547 0.111925
C59   C     C_R   0.792049 0.412445 0.989146 0.138896
C60   C     C_R   0.701411 0.446398 0.974627 -0.126995
C61   C     C_R   0.621204 0.404991 0.002361 -0.151358
C62   C     C_R   0.630749 0.329882 0.045124 -0.053498
C63   C     C_R   0.720491 0.295710 0.059601 -0.106806
C64   C     C_R   0.800899 0.335938 0.030273 -0.215348
H16   H     H_    0.693166 0.504804 0.941928 0.120570
H17   H     H_    0.551721 0.431361 0.991442 0.134984
H18   H     H_    0.568692 0.298430 0.067648 0.149341
H19   H     H_    0.727721 0.238732 0.094898 0.171111
H20   H     H_    0.870022 0.308505 0.041126 0.141498
C65   C     C_R   0.711185 0.002849 0.994588 0.180226
C66   C     C_R   0.777499 0.066597 0.995088 0.031058
C67   C     C_R   0.861510 0.059050 0.950849 -0.154432
C68   C     C_R   0.880489 0.987276 0.907495 -0.127663
C69   C     C_R   0.816344 0.922674 0.909861 -0.101325
C70   C     C_R   0.731928 0.930344 0.952818 -0.112752
H21   H     H_    0.762529 0.122779 0.026656 0.134148
H22   H     H_    0.911323 0.109116 0.949375 0.115196
H23   H     H_    0.944877 0.981538 0.872243 0.127094
H24   H     H_    0.830980 0.866838 0.877732 0.134219
H25   H     H_    0.681797 0.880357 0.952214 0.118458
C71   C     C_R   0.217518 0.531425 0.999956 0.190069
C72   C     C_R   0.268593 0.604131 0.012087 0.000072
C73   C     C_R   0.360057 0.612236 0.981527 -0.133635
C74   C     C_R   0.401484 0.547705 0.939405 -0.141036
C75   C     C_R   0.351429 0.475059 0.927550 -0.105046
C76   C     C_R   0.259843 0.466665 0.957929 -0.056419
H26   H     H_    0.237445 0.654355 0.045048 0.126496
H27   H     H_    0.398960 0.668413 0.990794 0.116277
H28   H     H_    0.472509 0.553928 0.916166 0.111832
H29   H     H_    0.383814 0.425183 0.895147 0.120266
H30   H     H_    0.221887 0.409963 0.948766 0.119584
C77   C     C_R   0.306278 0.931432 0.797736 0.157751
C78   C     C_R   0.281831 0.848860 0.793467 -0.086951
C79   C     C_R   0.212226 0.822265 0.732013 -0.120072
C80   C     C_R   0.170682 0.876716 0.671036 -0.121234
C81   C     C_R   0.195909 0.958523 0.673381 -0.161414
C82   C     C_R   0.261945 0.986150 0.737516 -0.194922
H31   H     H_    0.316778 0.805114 0.837337 0.125898
H32   H     H_    0.190684 0.759396 0.731107 0.180293
H33   H     H_    0.118676 0.855462 0.622121 0.181377
H34   H     H_    0.164375 0.000398 0.625360 0.142027
H35   H     H_    0.280235 0.049777 0.739143 0.113579
C83   C     C_R   0.810047 0.426636 0.802296 0.148612
C84   C     C_R   0.783858 0.344251 0.804580 -0.082624
C85   C     C_R   0.711422 0.315194 0.747454 -0.119829
C86   C     C_R   0.668676 0.366474 0.683884 -0.119073
C87   C     C_R   0.695618 0.447826 0.679477 -0.161383
C88   C     C_R   0.764355 0.478283 0.739526 -0.200581
H36   H     H_    0.818824 0.302686 0.850970 0.136863
H37   H     H_    0.688398 0.252843 0.752216 0.188176
H38   H     H_    0.614535 0.343176 0.638144 0.172515
H39   H     H_    0.662991 0.487260 0.629605 0.141773
H40   H     H_    0.782947 0.541846 0.736327 0.109532
N3    N     N_R   0.608767 0.077101 0.855373 0.198834
O31   O     O_R   0.663555 0.052624 0.794753 -0.449568
O32   O     O_R   0.618811 0.150266 0.885187 -0.444964
N4    N     N_R   0.113382 0.575565 0.850206 0.198238
O33   O     O_R   0.167877 0.547058 0.791450 -0.451896
O34   O     O_R   0.118743 0.652017 0.869553 -0.455752
N5    N     N_R   0.686890 0.721981 0.392263 0.187150
O35   O     O_R   0.647218 0.654910 0.365287 -0.410871
O36   O     O_R   0.678311 0.786513 0.342521 -0.368780
N6    N     N_R   0.658463 0.300613 0.426772 0.195018
O37   O     O_R   0.621802 0.372634 0.429071 -0.395957
O38   O     O_R   0.621769 0.248312 0.371623 -0.392039
N7    N     N_R   0.185505 0.220707 0.393310 0.188238
O39   O     O_R   0.145869 0.153242 0.367413 -0.400534
O40   O     O_R   0.175123 0.285014 0.343440 -0.365370
N8    N     N_R   0.155259 0.803483 0.433063 0.186762
O41   O     O_R   0.120214 0.875765 0.439448 -0.407152
O42   O     O_R   0.112708 0.752065 0.380330 -0.418924
C89   C     C_R   0.302655 0.282850 0.615722 0.124087
C90   C     C_R   0.370248 0.343907 0.633779 -0.104731
C91   C     C_R   0.419687 0.345712 0.715508 -0.158302
C92   C     C_R   0.402132 0.286650 0.779532 -0.083001
C93   C     C_R   0.333462 0.226803 0.762764 -0.109960
C94   C     C_R   0.283107 0.225285 0.681473 -0.093791
H41   H     H_    0.384752 0.389796 0.584551 0.149597
H42   H     H_    0.471513 0.392980 0.729289 0.138681
H43   H     H_    0.441133 0.287686 0.842427 0.142799
H44   H     H_    0.319139 0.181774 0.812879 0.117481
H45   H     H_    0.229602 0.179080 0.669157 0.088009
C95   C     C_R   0.345978 0.681640 0.566569 0.084494
C96   C     C_R   0.348248 0.655398 0.654889 -0.132990
C97   C     C_R   0.432280 0.626785 0.695832 -0.115272
C98   C     C_R   0.514346 0.622228 0.648603 -0.160155
C99   C     C_R   0.511988 0.644514 0.559692 -0.087108
C100  C     C_R   0.428005 0.673441 0.518327 -0.020514
H46   H     H_    0.285054 0.656894 0.692157 0.161045
H47   H     H_    0.433692 0.608026 0.764161 0.142473
H48   H     H_    0.579448 0.600889 0.680930 0.115546
H49   H     H_    0.575335 0.639366 0.523074 0.156283
H50   H     H_    0.427071 0.690382 0.449305 0.132141
C101  C     C_R   0.803957 0.782453 0.615254 0.118401
C102  C     C_R   0.874272 0.841665 0.631130 -0.098174
C103  C     C_R   0.931197 0.838735 0.708731 -0.160251
C104  C     C_R   0.919356 0.776169 0.770116 -0.088002
C105  C     C_R   0.846535 0.719325 0.756750 -0.113385
C106  C     C_R   0.788018 0.722985 0.680118 -0.096420
H51   H     H_    0.886074 0.889035 0.582819 0.150116
H52   H     H_    0.984649 0.884847 0.721255 0.142071
H53   H     H_    0.964690 0.773297 0.829405 0.156972
H54   H     H_    0.835881 0.672237 0.805569 0.117630
H55   H     H_    0.732807 0.677913 0.669537 0.089066
C107  C     C_R   0.844907 0.182368 0.569507 0.082743
C108  C     C_R   0.844657 0.157175 0.658064 -0.131409
C109  C     C_R   0.927805 0.129844 0.701766 -0.114201
C110  C     C_R   0.011475 0.125156 0.656903 -0.159050
C111  C     C_R   0.011651 0.146034 0.567654 -0.088564
C112  C     C_R   0.928558 0.173805 0.523648 -0.016653
H56   H     H_    0.780125 0.158532 0.693305 0.159552
H57   H     H_    0.927338 0.112261 0.770429 0.139868
H58   H     H_    0.075832 0.104780 0.691373 0.119619
H59   H     H_    0.076266 0.140851 0.532795 0.150310
H60   H     H_    0.929618 0.189768 0.454457 0.138242

loop_
_geom_bond_atom_site_label_1
_geom_bond_atom_site_label_2
_geom_bond_distance
_ccdc_geom_bond_type
C10   C14   1.487361 S    
C55   H12   1.080016 S    
C29   C31   1.392319 A    
C41   C42   1.406376 A    
C66   C67   1.397875 A    
Zn8   O18   1.946278 S    
C98   C99   1.396720 A    
O22   C11   1.278855 A    
C77   C78   1.405708 A    
C19   C77   1.497827 S    
Zn1   O7    1.926809 S    
C72   H26   1.081715 S    
C111  C112  1.399868 A    
C59   C60   1.406810 A    
C73   C74   1.396841 A    
C51   H9    1.081936 S    
N5    O36   1.301115 A    
Zn5   O12   1.935089 S    
C43   C44   1.396816 A    
C27   C41   1.482783 S    
C28   C47   1.494754 S    
C47   C52   1.409576 A    
C46   H5    1.082966 S    
C65   C66   1.403781 A    
C55   C56   1.397538 A    
Zn2   O21   1.960673 S    
C109  H57   1.081289 S    
C69   C70   1.393008 A    
O17   C8    1.280307 A    
C106  H55   1.082252 S    
O10   C8    1.268801 A    
C13   C29   1.410278 A    
C54   H11   1.083239 S    
C15   C19   1.401249 A    
C23   C25   1.426088 A    
C20   C83   1.501209 S    
C104  H53   1.082667 S    
C24   C26   1.425394 A    
Zn7   O16   1.946278 S    
Zn6   O14   1.935089 S    
C97   H47   1.080556 S    
N7    O39   1.301271 A    
C8    C36   1.456115 S    
O16   C5    1.289896 A    
C66   H21   1.077513 S    
N8    O41   1.301389 A    
C26   C28   1.421698 A    
N3    O31   1.301818 A    
Zn4   O5    1.937232 S    
C35   C37   1.363358 D    
C93   H44   1.082435 S    
C107  C108  1.405494 A    
C112  H60   1.083063 S    
C110  C111  1.397265 A    
C18   C26   1.436643 A    
C39   C89   1.488109 S    
C52   H10   1.083083 S    
Zn5   O19   1.948279 S    
O12   C1    1.274900 A    
C65   C70   1.402549 A    
C24   C32   1.420336 A    
Zn6   O20   1.948279 S    
O13   C4    1.270933 A    
C40   C95   1.493878 S    
C18   C20   1.410013 A    
C97   C98   1.394559 A    
C37   C101  1.488339 S    
O23   C12   1.275327 A    
C107  C112  1.408343 A    
C81   C82   1.397639 A    
C83   C84   1.407484 A    
Zn3   O9    1.926809 S    
C95   C96   1.405888 A    
C33   C39   1.363077 D    
C11   C15   1.445295 S    
C22   C24   1.410166 A    
O4    C2    1.287450 A    
Zn2   O8    1.924260 S    
C41   C46   1.405351 A    
O5    C3    1.267315 A    
C59   C64   1.405269 A    
Zn4   O10   1.924260 S    
C49   C50   1.397434 A    
O14   C3    1.274196 A    
C103  H52   1.081007 S    
C1    C37   1.431518 S    
C96   C97   1.395885 A    
C79   H32   1.079746 S    
C48   H6    1.083207 S    
C63   C64   1.399043 A    
Zn8   O17   1.929681 S    
N3    O32   1.301154 A    
C91   C92   1.397909 A    
Zn1   O4    1.923102 S    
C5    C33   1.465376 S    
Zn2   O3    1.937232 S    
C44   H3    1.080523 S    
C54   C55   1.395723 A    
N1    O28   1.300977 A    
N4    O34   1.301192 A    
N1    O27   1.300983 A    
C111  H59   1.080846 S    
C56   H13   1.082284 S    
N7    O40   1.301271 A    
C38   C107  1.494697 S    
C25   C27   1.430670 A    
C36   C38   1.359201 D    
C61   H17   1.080393 S    
Zn7   O25   1.956110 S    
C93   C94   1.398878 A    
O25   C9    1.273818 A    
N6    O37   1.301365 A    
C99   H49   1.079976 S    
Zn1   O1    1.972055 S    
C75   C76   1.398483 A    
C68   C69   1.395684 A    
C99   C100  1.399661 A    
C49   H7    1.082337 S    
C47   C48   1.405208 A    
C36   N6    1.444119 S    
O11   C2    1.270858 A    
C64   H20   1.082982 S    
Zn6   O13   1.935089 S    
C108  H56   1.078990 S    
O20   C10   1.285034 A    
C16   C22   1.396567 A    
C69   H24   1.075533 S    
O21   C11   1.274905 A    
C90   C91   1.398815 A    
C17   C19   1.411991 A    
C31   C65   1.485291 S    
C58   H15   1.082582 S    
C75   H29   1.080793 S    
C62   H18   1.082297 S    
C103  C104  1.397358 A    
Zn5   O1    1.948806 S    
C108  C109  1.396154 A    
O6    C4    1.287630 A    
C74   H28   1.082311 S    
C14   C28   1.429142 A    
C84   C85   1.398302 A    
C105  C106  1.398724 A    
C57   C58   1.399000 A    
C15   C21   1.388937 A    
N2    O30   1.301552 A    
C101  C102  1.403949 A    
C91   H42   1.082232 S    
O26   C10   1.273205 A    
C57   H14   1.081508 S    
Zn8   O26   1.956110 S    
C81   H34   1.081516 S    
C42   C43   1.397133 A    
C67   H22   1.082348 S    
O7    C5    1.277209 A    
C89   C94   1.405757 A    
C53   C58   1.405719 A    
Zn3   O6    1.923102 S    
C92   H43   1.082532 S    
O8    C6    1.268575 A    
C32   C71   1.488825 S    
C76   H30   1.083120 S    
C98   H48   1.080674 S    
C70   H25   1.083455 S    
C2    C38   1.426824 S    
C90   H41   1.083239 S    
C60   H16   1.083150 S    
C80   H33   1.081762 S    
C21   C23   1.406918 A    
C6    C34   1.456747 S    
C96   H46   1.079832 S    
C45   C46   1.398438 A    
C78   C79   1.398065 A    
C17   C25   1.445514 A    
C78   H31   1.082114 S    
Zn4   O2    1.944265 S    
C67   C68   1.398221 A    
C16   C20   1.404653 A    
C50   H8    1.082264 S    
N4    O33   1.301758 A    
C7    C35   1.466492 S    
C87   C88   1.398153 A    
C4    C40   1.427104 S    
Zn7   O1    1.933060 S    
C3    C39   1.431453 S    
C82   H35   1.080425 S    
C34   N8    1.443733 S    
C33   N7    1.445261 S    
C110  H58   1.080856 S    
O24   C12   1.278270 A    
C83   C88   1.407996 A    
C86   H38   1.082380 S    
C23   C31   1.413744 A    
C71   C72   1.406234 A    
C42   H1    1.083075 S    
C13   C27   1.434221 A    
N6    O38   1.301521 A    
C74   C75   1.397722 A    
Zn5   O11   1.935089 S    
C18   C59   1.487375 S    
C72   C73   1.397478 A    
C12   C16   1.444848 S    
C62   C63   1.396770 A    
C101  C106  1.406952 A    
C80   C81   1.395021 A    
C73   H27   1.082412 S    
C105  H54   1.082371 S    
C85   C86   1.395023 A    
C85   H37   1.079889 S    
C77   C82   1.406483 A    
C50   C51   1.396766 A    
C89   C90   1.404687 A    
C29   N1    1.434126 S    
N5    O35   1.300870 A    
C86   C87   1.395006 A    
C79   C80   1.394926 A    
C94   H45   1.082117 S    
C44   C45   1.398526 A    
C51   C52   1.397670 A    
C45   H4    1.082260 S    
C9    C13   1.490178 S    
C43   H2    1.082169 S    
Zn7   O15   1.929681 S    
O3    C1    1.266781 A    
Zn1   O22   1.946722 S    
C71   C76   1.404741 A    
N8    O42   1.301742 A    
C61   C62   1.396465 A    
C88   H40   1.081000 S    
C100  H50   1.083124 S    
C63   H19   1.079577 S    
Zn3   O24   1.946722 S    
O9    C7    1.277561 A    
C92   C93   1.397429 A    
Zn4   O23   1.960673 S    
C14   C30   1.413961 A    
Zn6   O2    1.948806 S    
C87   H39   1.081439 S    
O19   C9    1.284943 A    
C30   N2    1.436065 S    
C53   C54   1.403668 A    
C104  C105  1.397216 A    
C48   C49   1.398458 A    
Zn8   O2    1.933060 S    
C102  C103  1.398124 A    
C56   C57   1.397225 A    
C95   C100  1.408001 A    
Zn3   O2    1.972055 S    
C84   H36   1.082223 S    
N2    O29   1.301028 A    
C35   N5    1.445111 S    
C60   C61   1.397624 A    
C102  H51   1.083236 S    
C68   H23   1.082159 S    
Zn2   O1    1.944265 S    
C17   C53   1.483756 S    
C109  C110  1.394689 A    
C21   N3    1.440005 S    
C22   N4    1.438871 S    
O15   C6    1.280707 A    
O18   C7    1.289881 A    
C30   C32   1.399432 A    
C34   C40   1.358834 D    
