data_mof_unit_4414.cif
_audit_creation_date              2012-12-10T17:43:17-0500
_audit_creation_method            fapswitch 2.2
_symmetry_space_group_name_H-M    P1
_symmetry_Int_Tables_number       1
_space_group_crystal_system       triclinic
_cell_length_a                    15.004686
_cell_length_b                    13.725963
_cell_length_c                    10.793442
_cell_angle_alpha                 89.542761
_cell_angle_beta                  90.92505
_cell_angle_gamma                 90.023699
_cell_volume                      2222.58943225

loop_
_atom_site_label
_atom_site_type_symbol
_atom_type_description
_atom_site_fract_x
_atom_site_fract_y
_atom_site_fract_z
_atom_type_partial_charge
C1    C     C_R   0.328786 0.500253 0.495379 0.908648
C2    C     C_R   0.671253 0.500146 0.504395 0.908024
C3    C     C_R   0.953115 0.524833 0.501027 -0.101517
C4    C     C_R   0.047020 0.525135 0.498752 -0.102232
C5    C     C_R   0.903759 0.518608 0.388740 -0.092628
C6    C     C_R   0.096609 0.523580 0.611178 -0.087184
C7    C     C_R   0.959782 0.556160 0.721625 0.467805
C8    C     C_R   0.040027 0.550144 0.276418 0.466952
C9    C     C_R   0.052894 0.546888 0.721800 0.133718
C10   C     C_R   0.947195 0.538869 0.276578 0.127199
C11   C     C_R   0.429292 0.792862 0.547324 0.088358
C12   C     C_R   0.570281 0.206849 0.451993 0.082679
C13   C     C_R   0.570355 0.793814 0.452023 0.085638
C14   C     C_R   0.429514 0.206342 0.548056 0.089262
C15   C     C_R   0.572657 0.896849 0.452160 -0.124448
C16   C     C_R   0.427657 0.103162 0.550522 -0.138275
C17   C     C_R   0.427518 0.895914 0.550346 -0.140740
C18   C     C_R   0.572929 0.103842 0.453052 -0.121110
C19   C     C_R   0.500488 0.948208 0.502494 -0.057227
C20   C     C_R   0.500482 0.051652 0.502445 -0.056386
C21   C     C_R   0.644835 0.949228 0.401859 0.391035
C22   C     C_R   0.354642 0.050691 0.599083 0.417783
C23   C     C_R   0.354247 0.947661 0.598297 0.411579
C24   C     C_R   0.646347 0.052273 0.406182 0.380769
C25   C     C_R   0.501614 0.500224 0.259181 0.927237
C26   C     C_R   0.498657 0.499660 0.740947 0.925428
C27   C     C_3   0.459333 0.579044 0.039039 0.461309
C28   C     C_3   0.541088 0.419768 0.961107 0.457094
C29   C     C_3   0.542746 0.577767 0.958878 0.462304
C30   C     C_3   0.458205 0.421122 0.042035 0.464359
C31   C     C_3   0.413223 0.500018 0.958869 -0.458696
C32   C     C_3   0.587438 0.498428 0.041727 -0.454298
C33   C     C_3   0.498029 0.499034 0.877848 -0.234332
C34   C     C_3   0.502604 0.500209 0.122511 -0.235464
C35   C     C_R   0.811919 0.498526 0.393609 0.439963
C36   C     C_R   0.188716 0.504542 0.607309 0.446327
C37   C     C_R   0.768265 0.502360 0.506603 -0.221161
C38   C     C_R   0.231831 0.502847 0.493671 -0.219479
C39   C     C_R   0.815629 0.517097 0.617940 0.081066
C40   C     C_R   0.184235 0.514344 0.381726 0.084444
C41   C     C_R   0.908956 0.530744 0.615323 -0.068287
C42   C     C_R   0.090987 0.527777 0.384036 -0.069264
Cu1   Cu    Cu3+1 0.500000 0.597420 0.500000 1.001735
Cu2   Cu    Cu3+1 0.500000 0.402580 0.500000 0.997247
H1    H     H_    0.343324 0.500386 0.924014 0.234559
H2    H     H_    0.657131 0.497523 0.077545 0.233025
H3    H     H_    0.374224 0.751233 0.582802 0.161975
H4    H     H_    0.624375 0.247940 0.412422 0.155455
H5    H     H_    0.624666 0.753246 0.412808 0.170207
H6    H     H_    0.374637 0.247222 0.584945 0.154476
N1    N     N_R   0.500000 0.743810 0.500000 -0.206596
N2    N     N_R   0.500000 0.256190 0.500000 -0.202308
O1    O     O_R   0.370260 0.582280 0.500030 -0.595797
O2    O     O_R   0.629740 0.417720 0.499970 -0.595896
O3    O     O_R   0.629740 0.582280 0.499970 -0.594886
O4    O     O_R   0.370260 0.417720 0.500030 -0.593092
O5    O     O_R   0.499980 0.582260 0.316850 -0.563242
O6    O     O_R   0.500020 0.417740 0.683150 -0.565291
O7    O     O_R   0.500020 0.582260 0.683150 -0.561419
O8    O     O_R   0.499980 0.417740 0.316850 -0.556866
O9    O     O_3   0.419716 0.662631 0.089746 -0.548452
C43   C     C_3   0.375597 0.715584 0.995008 -0.284089
H7    H     H_    0.317134 0.674586 0.958577 0.199283
H8    H     H_    0.421258 0.735091 0.918548 0.177786
H9    H     H_    0.350440 0.784498 0.034411 0.174803
O10   O     O_3   0.577479 0.335052 0.908702 -0.554692
C44   C     C_3   0.631432 0.286639 0.997146 -0.256182
H10   H     H_    0.597292 0.276884 0.087270 0.174865
H11   H     H_    0.695545 0.326101 0.009307 0.185360
H12   H     H_    0.647049 0.213010 0.961928 0.179837
O11   O     O_3   0.583956 0.660266 0.906004 -0.548896
C45   C     C_3   0.628938 0.712677 0.999465 -0.275693
H13   H     H_    0.687297 0.671149 0.035965 0.202127
H14   H     H_    0.583841 0.732144 0.076124 0.177296
H15   H     H_    0.654286 0.781553 0.958742 0.170040
O12   O     O_3   0.419909 0.338111 0.097832 -0.539623
C46   C     C_3   0.368507 0.287505 0.009593 -0.282524
H16   H     H_    0.405146 0.276776 0.922049 0.163806
H17   H     H_    0.304426 0.325997 0.992034 0.181943
H18   H     H_    0.352657 0.214340 0.047629 0.182796
O13   O     O_3   0.764078 0.468433 0.290413 -0.588741
C47   C     C_3   0.775721 0.366841 0.278639 -0.274844
H19   H     H_    0.721001 0.338087 0.219921 0.173661
H20   H     H_    0.772193 0.326879 0.368776 0.156147
H21   H     H_    0.840020 0.350909 0.233346 0.188494
O14   O     O_3   0.237898 0.482858 0.713170 -0.584288
C48   C     C_3   0.235152 0.381137 0.733967 -0.316387
H22   H     H_    0.298817 0.358889 0.778718 0.164145
H23   H     H_    0.228559 0.336941 0.647925 0.171000
H24   H     H_    0.179759 0.362968 0.797101 0.196261
I1    I     I_    0.745388 0.496496 0.786799 -0.260925
I2    I     I_    0.254165 0.492309 0.213269 -0.250332
O15   O     O_3   0.920358 0.597799 0.822894 -0.507668
C49   C     C_3   0.904256 0.697288 0.796176 -0.203400
H25   H     H_    0.854978 0.706493 0.718839 0.155924
H26   H     H_    0.967071 0.736655 0.774478 0.148279
H27   H     H_    0.875623 0.731737 0.879172 0.196254
O16   O     O_3   0.078725 0.592653 0.174295 -0.509120
C50   C     C_3   0.092523 0.692592 0.199177 -0.193355
H28   H     H_    0.141037 0.703139 0.276973 0.155521
H29   H     H_    0.028684 0.730241 0.219150 0.147106
H30   H     H_    0.121055 0.728022 0.116118 0.198621
I3    I     I_    0.123126 0.591688 0.884800 -0.271151
I4    I     I_    0.876413 0.576663 0.110424 -0.257534
O17   O     O_3   0.716619 0.899632 0.354079 -0.574414
C51   C     C_3   0.706063 0.895978 0.224162 -0.299303
H31   H     H_    0.715609 0.969164 0.181505 0.200638
H32   H     H_    0.639824 0.866042 0.196315 0.129517
H33   H     H_    0.757704 0.846871 0.186922 0.189454
O18   O     O_3   0.279859 0.099506 0.638948 -0.546737
C52   C     C_3   0.291802 0.121615 0.765494 -0.355743
H34   H     H_    0.354194 0.163264 0.782709 0.129723
H35   H     H_    0.292009 0.054710 0.823818 0.176881
H36   H     H_    0.235239 0.167424 0.795063 0.186392
O19   O     O_3   0.277958 0.899093 0.634782 -0.544048
C53   C     C_3   0.289136 0.861812 0.756647 -0.337176
H37   H     H_    0.352421 0.883557 0.804815 0.116228
H38   H     H_    0.285628 0.781113 0.754430 0.182844
H39   H     H_    0.232826 0.887176 0.813406 0.198173
O20   O     O_3   0.718085 0.102312 0.357962 -0.596107
C54   C     C_3   0.783482 0.112190 0.452294 -0.308119
H40   H     H_    0.808240 0.039954 0.485365 0.202047
H41   H     H_    0.757958 0.155088 0.531325 0.151048
H42   H     H_    0.841079 0.152392 0.413917 0.185706

loop_
_geom_bond_atom_site_label_1
_geom_bond_atom_site_label_2
_ccdc_geom_bond_type
C48   H22   S    
O15   C49   S    
C27   C29   S    
C45   H14   S    
C11   H3    S    
C52   H34   S    
C12   H4    S    
C6    C9    A    
O13   C47   S    
C35   O13   S    
C39   C41   A    
C46   H16   S    
C15   C19   A    
C17   C23   A    
C4    C42   A    
C18   C24   A    
C35   C37   A    
C1    O4    A    
C8    C42   A    
C29   C32   S    
C2    O3    A    
C30   C31   S    
C51   H31   S    
O19   C53   S    
C29   C33   S    
C53   H37   S    
C8    O16   S    
O18   C52   S    
C54   H42   S    
C43   H8    S    
C27   O9    S    
C13   N1    A    
Cu1   O1    S    
C14   N2    A    
C19   C20   A    
Cu2   O6    S    
C22   O18   S    
C31   C33   S    
C25   O8    A    
C26   O7    A    
Cu1   O7    S    
C25   C34   S    
Cu2   N2    S    
C40   C42   A    
O10   C44   S    
C1    O1    A    
C49   H25   S    
C25   O5    A    
C45   H15   S    
C39   I1    S    
C12   N2    A    
C46   H17   S    
C27   C34   S    
C7    O15   S    
C24   O20   S    
C30   C34   S    
C27   C31   S    
C44   H10   S    
C28   C32   S    
O12   C46   S    
C4    C6    A    
C2    O2    A    
O14   C48   S    
C49   H27   S    
C36   O14   S    
C44   H11   S    
C32   C34   S    
C28   O10   S    
Cu1   Cu2   S    
C6    C36   A    
C43   H7    S    
C30   O12   S    
Cu2   O4    S    
C26   C33   S    
C50   H28   S    
C16   C20   A    
C52   H35   S    
C40   I2    S    
C49   H26   S    
C26   O6    A    
C54   H40   S    
C1    C38   S    
C13   H5    S    
Cu1   O3    S    
C50   H29   S    
C28   C33   S    
O16   C50   S    
C47   H20   S    
C13   C15   A    
C14   C16   A    
C21   C24   A    
C3    C4    A    
O20   C54   S    
C46   H18   S    
C7    C9    A    
C3    C41   A    
C16   C22   A    
C43   H9    S    
C32   H2    S    
C45   H13   S    
C3    C5    A    
C11   C17   A    
C47   H21   S    
O17   C51   S    
C53   H39   S    
C44   H12   S    
C10   I4    S    
C5    C10   A    
C37   C39   A    
C36   C38   A    
C38   C40   A    
C2    C37   S    
Cu1   N1    S    
C14   H6    S    
C51   H32   S    
Cu2   O8    S    
C5    C35   A    
C28   C30   S    
C9    I3    S    
C17   C19   A    
C53   H38   S    
C52   H36   S    
C18   C20   A    
C7    C41   A    
O9    C43   S    
C54   H41   S    
C11   N1    A    
Cu1   O5    S    
C23   O19   S    
Cu2   O2    S    
C15   C21   A    
C50   H30   S    
O11   C45   S    
C8    C10   A    
C47   H19   S    
C31   H1    S    
C48   H24   S    
C12   C18   A    
C48   H23   S    
C22   C23   A    
C21   O17   S    
C29   O11   S    
C51   H33   S    
