data_mof_unit_1651.cif
_audit_creation_date              2012-12-10T17:38:10-0500
_audit_creation_method            fapswitch 2.2
_symmetry_space_group_name_H-M    P1
_symmetry_Int_Tables_number       1
_space_group_crystal_system       triclinic
_cell_length_a                    11.970324
_cell_length_b                    12.816641
_cell_length_c                    18.986347
_cell_angle_alpha                 91.903091
_cell_angle_beta                  85.157687
_cell_angle_gamma                 94.77503
_cell_volume                      2891.39681602

loop_
_atom_site_label
_atom_site_type_symbol
_atom_type_description
_atom_site_fract_x
_atom_site_fract_y
_atom_site_fract_z
_atom_type_partial_charge
Br1   Br    Br    0.589248 0.279524 0.662489 -0.293898
Br2   Br    Br    0.294225 0.605883 0.300120 -0.272468
Br3   Br    Br    0.605618 0.197008 0.365782 -0.349211
Br4   Br    Br    0.331685 0.821362 0.592419 -0.230869
Br5   Br    Br    0.780376 0.045901 0.417355 -0.209299
Br6   Br    Br    0.193503 0.960994 0.496353 -0.250522
C1    C     C_R   0.523401 0.702143 0.502258 1.006009
C2    C     C_R   0.534252 0.131850 0.450464 0.261673
C3    C     C_R   0.439157 0.972081 0.494955 -0.158517
C4    C     C_R   0.538400 0.025188 0.463085 -0.105583
C5    C     C_R   0.953389 0.402343 0.430744 0.366048
C6    C     C_R   0.044572 0.584572 0.576435 0.355732
C7    C     C_R   0.836963 0.411197 0.439573 0.036342
C8    C     C_R   0.161147 0.577406 0.566919 0.008231
C9    C     C_R   0.857562 0.537856 0.531819 0.107203
C10   C     C_R   0.142650 0.461786 0.468118 0.122479
C11   C     C_R   0.975027 0.530172 0.528130 -0.128728
C12   C     C_R   0.475913 0.299056 0.499311 0.992875
C13   C     C_R   0.024303 0.464427 0.474637 -0.123077
C14   C     C_R   0.498813 0.495574 0.634848 1.048273
C15   C     C_R   0.501458 0.504673 0.364489 0.988733
C16   C     C_R   0.447778 0.544622 0.760974 0.207659
C17   C     C_R   0.596116 0.472026 0.243805 0.306447
C18   C     C_R   0.425422 0.512778 0.831148 0.313485
C19   C     C_R   0.580592 0.421216 0.178319 0.289740
C20   C     C_R   0.480611 0.428168 0.853736 -0.294303
C21   C     C_R   0.478027 0.426988 0.147894 -0.281020
C22   C     C_R   0.540889 0.364286 0.804619 0.361281
C23   C     C_R   0.455398 0.186871 0.492489 -0.315400
C24   C     C_R   0.386949 0.473809 0.185419 0.347243
C25   C     C_R   0.538331 0.382605 0.732136 0.206631
C26   C     C_R   0.399970 0.513024 0.254726 0.197041
C27   C     C_R   0.495650 0.475019 0.710494 -0.348211
C28   C     C_R   0.500773 0.500784 0.286445 -0.346776
C29   C     C_R   0.482492 0.420393 0.071125 0.470772
C30   C     C_R   0.487741 0.419578 0.929292 0.473919
C31   C     C_R   0.538026 0.817115 0.502346 -0.286809
C32   C     C_R   0.640466 0.975239 0.455897 0.271758
C33   C     C_R   0.342102 0.025956 0.510100 0.304473
C34   C     C_R   0.641618 0.873542 0.481946 0.322116
C35   C     C_R   0.356078 0.132987 0.523097 0.348909
C36   C     C_R   0.441523 0.870853 0.517803 0.284812
H1    H     H_    0.184338 0.413074 0.428433 0.199736
H2    H     H_    0.693593 0.217942 0.059905 0.416464
H3    H     H_    0.770947 0.191571 0.792191 0.408149
H4    H     H_    0.086218 0.512859 0.171664 0.417679
H5    H     H_    0.120664 0.138909 0.659334 0.406372
H6    H     H_    0.938181 0.896271 0.518765 0.425872
H7    H     H_    0.816546 0.588555 0.570183 0.222098
H8    H     H_    0.215477 0.616620 0.603572 0.228678
H9    H     H_    0.780896 0.362635 0.408329 0.226562
H10   H     H_    0.598348 0.710731 0.689456 0.383788
H11   H     H_    0.798188 0.669025 0.316467 0.413257
H12   H     H_    0.936787 0.204411 0.287541 0.422533
H13   H     H_    0.052378 0.729272 0.745796 0.422513
H14   H     H_    0.195147 0.519135 0.970446 0.425321
N1    N     N_R   0.436496 0.336798 0.965482 -0.040543
N2    N     N_R   0.535371 0.501602 0.034665 -0.090184
N3    N     N_R   0.434767 0.336816 0.035705 -0.028935
N4    N     N_R   0.538035 0.501172 0.964832 -0.086640
N5    N     N_R   0.207800 0.519350 0.512860 -0.152308
N6    N     N_R   0.792200 0.480650 0.487140 -0.155521
O1    O     O_R   0.421690 0.658830 0.503430 -0.599050
O2    O     O_2   0.446621 0.749645 0.800000 -0.157539
O3    O     O_3   0.523720 0.713992 0.671096 -0.538190
O4    O     O_2   0.798478 0.454770 0.292428 -0.228942
O5    O     O_2   0.793266 0.567118 0.191567 -0.201000
O6    O     O_3   0.720186 0.637213 0.314434 -0.522252
O7    O     O_2   0.091497 0.365350 0.315715 -0.232260
O8    O     O_2   0.058911 0.227924 0.403405 -0.224550
O9    O     O_3   0.900257 0.253499 0.321815 -0.448552
O10   O     O_2   0.955293 0.759489 0.625537 -0.220261
O11   O     O_2   0.890406 0.597775 0.687505 -0.273929
O12   O     O_R   0.578310 0.341170 0.496570 -0.597764
O13   O     O_3   0.088191 0.684626 0.708266 -0.453586
O14   O     O_2   0.382585 0.658723 0.933246 -0.183490
O15   O     O_2   0.237306 0.618702 0.850543 -0.179925
O16   O     O_3   0.258035 0.483658 0.945450 -0.502438
O17   O     O_2   0.756521 0.420796 0.080311 -0.211842
O18   O     O_2   0.764966 0.313027 0.183873 -0.163649
O19   O     O_3   0.630461 0.246330 0.089577 -0.501804
O20   O     O_2   0.650586 0.279006 0.906993 -0.264536
O21   O     O_2   0.549783 0.159911 0.826066 -0.192385
O22   O     O_3   0.739554 0.256974 0.779663 -0.462564
O23   O     O_R   0.609320 0.646410 0.495180 -0.556675
O24   O     O_2   0.280398 0.586560 0.100042 -0.230326
O25   O     O_2   0.234789 0.396856 0.095209 -0.240397
O26   O     O_3   0.148325 0.500789 0.200993 -0.418079
O27   O     O_2   0.309798 0.271784 0.629738 -0.281347
O28   O     O_2   0.175249 0.244604 0.538933 -0.252502
O29   O     O_3   0.179111 0.100836 0.631671 -0.446737
O30   O     O_2   0.744363 0.765306 0.572113 -0.260575
O31   O     O_2   0.818292 0.760290 0.447494 -0.289441
O32   O     O_3   0.864566 0.926859 0.525157 -0.427913
O33   O     O_R   0.390680 0.353590 0.504820 -0.577568
O34   O     O_R   0.406160 0.506220 0.605990 -0.575089
O35   O     O_R   0.593840 0.493780 0.394010 -0.562484
O36   O     O_R   0.593780 0.493810 0.597740 -0.608015
O37   O     O_R   0.406220 0.506190 0.402260 -0.612743
O38   O     O_2   0.313720 0.678831 0.716430 -0.163769
S1    S     S_3+6 0.430573 0.675112 0.738228 0.142430
S2    S     S_3+6 0.769327 0.828019 0.506435 0.116728
S3    S     S_3+6 0.731694 0.531705 0.259986 0.126734
S4    S     S_3+6 0.005166 0.310609 0.366783 0.103042
S5    S     S_3+6 0.990262 0.658108 0.650493 0.086589
S6    S     S_3+6 0.324237 0.573269 0.890397 0.145070
S7    S     S_3+6 0.688799 0.350896 0.132921 0.141790
S8    S     S_3+6 0.619565 0.262367 0.832146 0.126811
S9    S     S_3+6 0.261276 0.489536 0.143188 0.126207
S10   S     S_3+6 0.253703 0.192128 0.581500 0.115490
Zn1   Zn    Zn3+2 0.374720 0.508290 0.505510 1.078253
Zn2   Zn    Zn3+2 0.625280 0.491710 0.494490 1.084939

loop_
_geom_bond_atom_site_label_1
_geom_bond_atom_site_label_2
_ccdc_geom_bond_type
C32   C34   A    
O9    S4    S    
O19   S7    S    
O6    S3    S    
O3    S1    S    
O23   Zn2   S    
O5    S3    D    
C33   C35   A    
C8    H8    S    
O18   S7    D    
C5    C13   A    
C3    C36   A    
C16   S1    S    
H6    O32   S    
C29   N2    A    
C2    C23   A    
O29   S10   S    
C29   N3    A    
O15   S6    D    
C18   C20   A    
C31   C34   A    
O12   Zn2   S    
C6    S5    S    
C15   O37   A    
O8    S4    D    
N1    N3    A    
N2    N4    A    
C3    C33   A    
H14   O16   S    
O21   S8    D    
Br2   C26   S    
C31   C36   A    
H11   O6    S    
O22   S8    S    
C7    H9    S    
C17   S3    S    
H12   O9    S    
C6    C11   A    
C25   C27   A    
C5    S4    S    
O20   S8    D    
C14   O36   A    
C3    C4    A    
O30   S2    D    
H13   O13   S    
C9    H7    S    
C14   O34   A    
C12   O12   A    
Br5   C32   S    
C21   C24   A    
C12   O33   A    
H4    O26   S    
Br1   C25   S    
O2    S1    D    
O34   Zn1   S    
Br3   C2    S    
O36   Zn2   S    
C7    N6    A    
C24   S9    S    
O24   S9    D    
H2    O19   S    
O35   Zn2   S    
C15   C28   S    
C21   C29   S    
C8    N5    A    
O27   S10   D    
C26   C28   A    
C15   O35   A    
O11   S5    D    
C17   C28   A    
O37   Zn1   S    
C1    C31   S    
O17   S7    D    
C12   C23   S    
C10   H1    S    
C1    O1    A    
C14   C27   S    
C20   C30   S    
C6    C8    A    
O13   S5    S    
C35   S10   S    
C16   C18   A    
H3    O22   S    
C18   S6    S    
C10   N5    A    
O26   S9    S    
N5    Zn1   S    
C30   N1    A    
O7    S4    D    
C9    C11   A    
C16   C27   A    
O14   S6    D    
C23   C35   A    
H5    O29   S    
O4    S3    D    
C22   C25   A    
C30   N4    A    
O31   S2    D    
O25   S9    D    
C19   C21   A    
C20   C22   A    
C4    C32   A    
O16   S6    S    
O33   Zn1   S    
C24   C26   A    
C5    C7    A    
C1    O23   A    
Br4   C36   S    
C22   S8    S    
C10   C13   A    
O38   S1    D    
C11   C13   A    
C9    N6    A    
C17   C19   A    
O1    Zn1   S    
C34   S2    S    
N6    Zn2   S    
O10   S5    D    
O32   S2    S    
C2    C4    A    
O28   S10   D    
Br6   C33   S    
C19   S7    S    
H10   O3    S    
