data_mof_unit_4419.cif
_audit_creation_date              2012-12-11T16:19:56-0500
_audit_creation_method            fapswitch 2.2
_symmetry_space_group_name_H-M    P1
_symmetry_Int_Tables_number       1
_space_group_crystal_system       triclinic
_cell_length_a                    13.595393
_cell_length_b                    14.087162
_cell_length_c                    30.062693
_cell_angle_alpha                 98.182778
_cell_angle_beta                  89.45882
_cell_angle_gamma                 118.951322
_cell_volume                      4975.04465612

loop_
_atom_site_label
_atom_site_type_symbol
_atom_type_description
_atom_site_fract_x
_atom_site_fract_y
_atom_site_fract_z
_atom_type_partial_charge
C1    C     C_R   0.718270 0.098229 0.569198 0.545485
C2    C     C_R   0.361300 0.687034 0.680081 -0.010635
C3    C     C_R   0.280976 0.713910 0.666195 0.198526
C4    C     C_R   0.281156 0.740282 0.622996 0.039869
C5    C     C_R   0.252325 0.650351 0.831360 0.265311
C6    C     C_R   0.230400 0.620584 0.874434 -0.189518
C7    C     C_R   0.409544 0.622687 0.880534 0.272494
C8    C     C_R   0.426648 0.642294 0.836154 -0.131616
C9    C     C_R   0.346291 0.651336 0.811281 -0.007894
C10   C     C_1   0.358775 0.660244 0.764686 0.012678
C11   C     C_1   0.363000 0.669777 0.725704 0.020778
C12   C     C_R   0.383519 0.790720 0.551981 0.550943
C13   C     C_R   0.305876 0.602785 0.898597 -0.036786
C14   C     C_3   0.385578 0.072466 0.724570 -0.135393
C15   C     C_3   0.232508 0.119701 0.715582 -0.226959
C16   C     C_3   0.220104 0.120317 0.766871 0.156484
C17   C     C_1   0.305070 0.197423 0.879047 -0.015477
C18   C     C_3   0.354608 0.150850 0.704175 -0.014505
C19   C     C_3   0.393225 0.097647 0.776967 0.192678
C20   C     C_3   0.338386 0.171482 0.791904 0.047822
C21   C     C_3   0.410891 0.287386 0.776850 -0.066436
C22   C     C_3   0.437278 0.271973 0.726277 0.133333
C23   C     C_R   0.398699 0.117783 0.569807 0.552273
C24   C     C_1   0.323085 0.181975 0.840357 -0.009973
C25   C     C_1   0.360935 0.139160 0.655189 -0.025109
C26   C     C_1   0.372359 0.130650 0.615438 0.007138
C27   C     C_3   0.833207 0.280027 0.726742 -0.174045
C28   C     C_3   0.971939 0.210968 0.704823 0.318046
C29   C     C_3   0.003039 0.223780 0.756315 -0.196677
C30   C     C_1   0.965253 0.230879 0.872793 -0.044212
C31   C     C_3   0.843949 0.182827 0.700114 0.023645
C32   C     C_3   0.868795 0.297167 0.777825 0.176134
C33   C     C_3   0.905027 0.211020 0.786034 0.040927
C34   C     C_R   0.718990 0.094422 0.442318 0.549307
C35   C     C_3   0.805392 0.094665 0.771490 -0.216691
C36   C     C_3   0.765228 0.079960 0.721997 -0.241809
C37   C     C_1   0.939294 0.222710 0.833696 -0.083578
C38   C     C_1   0.802216 0.159145 0.652882 -0.092098
C39   C     C_1   0.767315 0.133830 0.614119 -0.031413
C40   C     C_3   0.366107 0.794238 0.271073 -0.255358
C41   C     C_3   0.232059 0.594127 0.270040 0.164242
C42   C     C_3   0.224397 0.578440 0.217176 -0.209728
C43   C     C_1   0.309478 0.610688 0.110497 -0.003161
C44   C     C_3   0.350906 0.689390 0.289000 0.038631
C45   C     C_R   0.382581 0.784678 0.424900 0.547125
C46   C     C_3   0.364025 0.778744 0.218897 -0.228458
C47   C     C_3   0.338198 0.660455 0.199972 0.007806
C48   C     C_3   0.434216 0.643132 0.217957 -0.219596
C49   C     C_3   0.442928 0.660821 0.270584 -0.033241
C50   C     C_1   0.328114 0.640326 0.150506 -0.054327
C51   C     C_1   0.357927 0.709760 0.338511 0.000014
C52   C     C_1   0.367090 0.736872 0.378645 0.021677
C53   C     C_R   0.362082 0.129081 0.399065 -0.000903
C54   C     C_R   0.405395 0.234012 0.385529 0.048705
C55   C     C_R   0.401284 0.240119 0.339387 -0.111902
C56   C     C_R   0.396584 0.114534 0.442931 0.573477
C57   C     C_R   0.351449 0.144405 0.307554 0.005607
C58   C     C_R   0.299262 0.041795 0.321300 -0.132696
C59   C     C_R   0.304235 0.034007 0.366656 -0.158889
C60   C     C_R   0.237450 0.104431 0.150819 -0.132618
C61   C     C_R   0.224479 0.124873 0.108054 -0.152825
C62   C     C_R   0.426916 0.248597 0.109340 0.046004
C63   C     C_R   0.437732 0.229935 0.153302 -0.112011
C64   C     C_R   0.342792 0.161026 0.174248 0.004253
C65   C     C_1   0.350502 0.155042 0.221025 -0.028033
C66   C     C_1   0.352288 0.150817 0.260544 -0.026597
C67   C     C_R   0.362809 0.739198 0.593222 -0.098316
C68   C     C_R   0.317245 0.201465 0.087706 -0.001769
C69   C     C_R   0.776218 0.129673 0.401104 -0.054806
C70   C     C_R   0.791645 0.055115 0.369759 -0.112591
C71   C     C_R   0.821775 0.077718 0.326164 0.291431
C72   C     C_R   0.826631 0.171998 0.313248 0.013473
C73   C     C_R   0.823197 0.253298 0.345640 0.005154
C74   C     C_R   0.798177 0.230885 0.389570 -0.146375
C75   C     C_R   0.866738 0.288887 0.165466 -0.141804
C76   C     C_R   0.899899 0.303062 0.121833 -0.127214
C77   C     C_R   0.840329 0.108979 0.103748 -0.134643
C78   C     C_R   0.437026 0.704178 0.606690 -0.136987
C79   C     C_R   0.806817 0.093390 0.147559 0.050701
C80   C     C_R   0.825069 0.185926 0.179054 0.002102
C81   C     C_1   0.821038 0.181588 0.226424 0.061165
C82   C     C_1   0.823380 0.178054 0.266039 0.109090
C83   C     C_R   0.891940 0.214110 0.091365 -0.007920
C84   C     C_R   0.285169 0.232112 0.923252 0.542137
C85   C     C_R   0.267282 0.547852 0.938445 0.539128
C86   C     C_R   0.997482 0.242326 0.919228 0.560728
C87   C     C_R   0.293083 0.241714 0.048531 0.567172
C88   C     C_R   0.274948 0.558938 0.064741 0.539396
C89   C     C_R   0.438128 0.679358 0.649948 0.223835
C90   C     C_R   0.953079 0.232610 0.050048 0.551929
Cr1   Cr    Cr6+3 0.583400 0.162540 0.509180 1.041729
Cr2   Cr    Cr6+3 0.584070 0.916690 0.495550 1.041197
Cr3   Cr    Cr6+3 0.332550 0.920810 0.495240 1.063331
Cr4   Cr    Cr6+3 0.086700 0.177000 0.983690 0.992545
Cr5   Cr    Cr6+3 0.336880 0.419130 0.994740 1.069625
Cr6   Cr    Cr6+3 0.084850 0.422220 0.995960 1.004299
H1    H     H_    0.151407 0.605570 0.888131 0.144344
H2    H     H_    0.320707 0.985623 0.712615 0.213854
H3    H     H_    0.213128 0.181708 0.705212 0.133233
H4    H     H_    0.171437 0.037795 0.696611 0.202684
H5    H     H_    0.186285 0.176979 0.778131 0.056662
H6    H     H_    0.420125 0.327721 0.708632 0.098650
H7    H     H_    0.467220 0.081549 0.712888 0.117668
H8    H     H_    0.484798 0.145639 0.787738 0.163387
H9    H     H_    0.357936 0.328194 0.778448 0.070885
H10   H     H_    0.942488 0.381740 0.786055 0.098139
H11   H     H_    0.886157 0.356552 0.712725 0.090279
H12   H     H_    0.078667 0.304844 0.768136 0.136255
H13   H     H_    0.026085 0.161833 0.762481 0.084088
H14   H     H_    0.677861 0.067651 0.720911 0.117358
H15   H     H_    0.758277 0.003249 0.702947 0.164360
H16   H     H_    0.735166 0.080127 0.793506 0.159693
H17   H     H_    0.744795 0.263467 0.722557 0.183114
H18   H     H_    0.831418 0.033006 0.775834 0.102814
H19   H     H_    0.299090 0.795519 0.205290 0.122841
H20   H     H_    0.296925 0.811148 0.281992 0.088229
H21   H     H_    0.171458 0.623782 0.280377 0.145452
H22   H     H_    0.157032 0.594735 0.205756 0.097292
H23   H     H_    0.198883 0.494102 0.200316 0.122031
H24   H     H_    0.426752 0.583117 0.281720 0.130565
H25   H     H_    0.514919 0.700009 0.204738 0.150480
H26   H     H_    0.445083 0.868553 0.285713 0.187628
H27   H     H_    0.446905 0.839043 0.208225 0.179016
H28   H     H_    0.418587 0.558934 0.204516 0.104844
H29   H     H_    0.139881 0.085842 0.092303 0.151015
H30   H     H_    0.163781 0.049745 0.166760 0.125944
H31   H     H_    0.258054 0.967531 0.296749 0.109131
H32   H     H_    0.269747 0.952755 0.375820 0.143726
H33   H     H_    0.498168 0.700451 0.584157 0.165926
H34   H     H_    0.519825 0.269811 0.171448 0.154102
H35   H     H_    0.436581 0.319260 0.328079 0.161902
H36   H     H_    0.939499 0.385030 0.113132 0.145201
H37   H     H_    0.881342 0.360116 0.189600 0.141680
H38   H     H_    0.789676 0.290105 0.414223 0.179708
H39   H     H_    0.771447 0.975581 0.377962 0.142062
H40   H     H_    0.831377 0.039652 0.079759 0.161749
H41   H     H_    0.501857 0.648888 0.820927 0.145713
O1    O     O_R   0.494060 0.188820 0.559230 -0.519846
O2    O     O_R   0.480140 0.824500 0.445020 -0.486948
O3    O     O_R   0.308480 0.808690 0.440220 -0.509141
O4    O     O_R   0.340970 0.020670 0.455610 -0.512330
O5    O     O_3   0.500010 0.000010 0.499990 -0.265665
O6    O     O_R   0.969690 0.151000 0.934080 -0.528985
O7    O     O_R   0.187530 0.180840 0.938210 -0.521678
O8    O     O_R   0.358160 0.327300 0.941250 -0.471380
O9    O     O_R   0.323950 0.507710 0.953980 -0.454311
O10   O     O_R   0.170530 0.527770 0.952070 -0.541351
O11   O     O_R   0.987720 0.318450 0.945940 -0.498611
O12   O     O_R   0.678470 0.153390 0.554100 -0.509583
O13   O     O_R   0.976400 0.159230 0.032040 -0.518768
O14   O     O_R   0.193740 0.188470 0.029020 -0.511071
O15   O     O_R   0.364860 0.335530 0.039220 -0.468713
O16   O     O_R   0.330170 0.515340 0.044800 -0.496034
O17   O     O_R   0.177230 0.536000 0.050040 -0.510948
O18   O     O_R   0.993930 0.326080 0.036750 -0.490999
O19   O     O_3   0.169480 0.339450 0.991460 -0.272433
O20   O     O_R   0.697870 0.003940 0.549410 -0.498773
O21   O     O_R   0.480980 0.827230 0.535590 -0.505152
O22   O     O_R   0.309390 0.811640 0.537920 -0.463815
O23   O     O_R   0.341810 0.023400 0.546180 -0.476897
O24   O     O_R   0.493150 0.185870 0.461540 -0.467658
O25   O     O_R   0.677630 0.150660 0.463530 -0.498862
O26   O     O_R   0.696960 0.000990 0.451710 -0.510010
O27   O     O_3   0.150012 0.011616 0.775907 -0.509784
C91   C     C_3   0.053504 0.002221 0.797526 0.012054
H42   H     H_    0.990800 0.994699 0.772031 0.159143
H43   H     H_    0.074155 0.073537 0.824500 0.123478
C92   C     C_3   0.001374 0.899238 0.819557 -0.252820
H44   H     H_    0.976571 0.825939 0.793416 0.161010
H45   H     H_    0.065084 0.905189 0.844236 0.170209
C93   C     C_3   0.898266 0.887172 0.844248 -0.496565
H46   H     H_    0.923578 0.955771 0.872700 0.173701
H47   H     H_    0.858610 0.808413 0.857696 0.140829
H48   H     H_    0.835067 0.887227 0.821214 0.136256
O28   O     O_3   0.549992 0.291143 0.723296 -0.553649
C94   C     C_3   0.620367 0.384749 0.703422 0.007321
H49   H     H_    0.706997 0.419096 0.718975 0.160766
H50   H     H_    0.598662 0.452009 0.710566 0.125406
C95   C     C_3   0.619880 0.350784 0.652654 -0.257852
H51   H     H_    0.614374 0.268569 0.646134 0.194495
H52   H     H_    0.545261 0.346135 0.635610 0.174599
C96   C     C_3   0.725504 0.431107 0.632428 -0.462521
H53   H     H_    0.733169 0.513898 0.637640 0.143994
H54   H     H_    0.720100 0.402996 0.595657 0.177046
H55   H     H_    0.801308 0.434702 0.647900 0.131905
C97   C     C_2   0.514302 0.366303 0.807765 0.584353
O29   O     O_2   0.589235 0.344481 0.813619 -0.519469
O30   O     O_R   0.523793 0.465080 0.829569 -0.693930
H56   H     H_    0.596713 0.511462 0.849074 0.341531
O31   O     O_3   0.178289 0.667402 0.806222 -0.558770
C98   C     C_3   0.132813 0.726573 0.832779 0.009245
H57   H     H_    0.136549 0.789859 0.813693 0.188734
H58   H     H_    0.183325 0.773955 0.865090 0.113058
C99   C     C_3   0.009022 0.649180 0.840543 -0.289457
H59   H     H_    0.952690 0.649306 0.814080 0.130456
H60   H     H_    0.994655 0.564160 0.837844 0.164786
C100  C     C_3   0.976040 0.680840 0.886740 -0.484532
H61   H     H_    0.021908 0.668828 0.913836 0.153941
H62   H     H_    0.884193 0.628152 0.889278 0.139313
H63   H     H_    0.995866 0.767927 0.891947 0.148581
C101  C     C_2   0.991402 0.119439 0.679041 0.565297
O32   O     O_2   0.941737 0.026673 0.688497 -0.598681
O33   O     O_R   0.068441 0.141295 0.645613 -0.725614
H64   H     H_    0.072631 0.073786 0.631304 0.338033
O34   O     O_3   0.048653 0.315549 0.692413 -0.598927
C102  C     C_3   0.037853 0.328455 0.647062 0.022985
H65   H     H_    0.988504 0.371863 0.645439 0.110501
H66   H     H_    0.995924 0.250608 0.623104 0.181185
C103  C     C_3   0.155425 0.397212 0.631296 -0.248294
H67   H     H_    0.202328 0.473685 0.655686 0.166583
H68   H     H_    0.202476 0.350849 0.630237 0.214118
C104  C     C_3   0.150081 0.426218 0.584689 -0.469625
H69   H     H_    0.104761 0.350283 0.559602 0.164275
H70   H     H_    0.236870 0.475354 0.574317 0.172730
H71   H     H_    0.106292 0.475482 0.585183 0.164244
O35   O     O_3   0.204703 0.720161 0.695774 -0.518276
C105  C     C_3   0.108906 0.614859 0.692852 0.049812
H72   H     H_    0.126102 0.564657 0.713689 0.172566
H73   H     H_    0.084179 0.570073 0.657629 0.107547
C106  C     C_3   0.009084 0.625592 0.711045 -0.231310
H74   H     H_    0.939666 0.543070 0.714976 0.088071
H75   H     H_    0.033962 0.677716 0.744520 0.200498
C107  C     C_3   0.966356 0.675962 0.679874 -0.406787
H76   H     H_    0.025820 0.765229 0.682134 0.225673
H77   H     H_    0.883545 0.664133 0.690370 0.107565
H78   H     H_    0.954949 0.635061 0.644452 0.164832
O36   O     O_3   0.775382 0.283072 0.803385 -0.549086
C108  C     C_3   0.808302 0.355645 0.844911 0.039923
H79   H     H_    0.797187 0.427029 0.840777 0.175264
H80   H     H_    0.897538 0.387674 0.857016 0.103997
C109  C     C_3   0.733818 0.295565 0.881170 -0.228453
H81   H     H_    0.643525 0.255839 0.869413 0.203084
H82   H     H_    0.752111 0.229852 0.887742 0.159789
C110  C     C_3   0.754573 0.374114 0.924967 -0.459871
H83   H     H_    0.844455 0.414603 0.937541 0.163069
H84   H     H_    0.701509 0.327622 0.950862 0.155967
H85   H     H_    0.732140 0.437865 0.919523 0.155263
O37   O     O_3   0.196038 0.499092 0.291382 -0.547847
C111  C     C_3   0.214835 0.414622 0.268811 0.023979
H86   H     H_    0.245291 0.383591 0.294433 0.147423
H87   H     H_    0.281082 0.441492 0.244623 0.111811
C112  C     C_3   0.103971 0.320087 0.245870 -0.255509
H88   H     H_    0.052501 0.272627 0.271731 0.175384
H89   H     H_    0.055645 0.352569 0.229912 0.191805
C113  C     C_3   0.124038 0.244437 0.210024 -0.493368
H90   H     H_    0.170638 0.289582 0.182610 0.158043
H91   H     H_    0.042127 0.174334 0.195272 0.160013
H92   H     H_    0.173452 0.212287 0.225373 0.152445
C114  C     C_2   0.561034 0.743769 0.290028 0.556099
O38   O     O_2   0.606178 0.837560 0.281763 -0.495597
O39   O     O_R   0.618331 0.712124 0.317753 -0.684824
H93   H     H_    0.695942 0.774411 0.329251 0.335979
C115  C     C_2   0.196278 0.771114 0.610930 0.630893
O40   O     O_2   0.200321 0.855128 0.630708 -0.534123
O41   O     O_R   0.110822 0.702907 0.577422 -0.702739
H94   H     H_    0.057564 0.732227 0.572342 0.330564
C116  C     C_2   0.453817 0.337771 0.418231 0.588714
O42   O     O_2   0.424230 0.337552 0.456783 -0.508679
O43   O     O_R   0.530650 0.436889 0.404454 -0.672047
H95   H     H_    0.556585 0.501976 0.429515 0.348138
C117  C     C_2   0.530888 0.315036 0.087023 0.590435
O44   O     O_2   0.614082 0.389370 0.109429 -0.523133
O45   O     O_R   0.535496 0.289795 0.040604 -0.687307
H96   H     H_    0.611164 0.340192 0.029489 0.331705
C118  C     C_2   0.841639 0.360025 0.334236 0.587157
O46   O     O_2   0.805069 0.412819 0.357616 -0.490527
O47   O     O_R   0.903204 0.401929 0.297518 -0.709604
H97   H     H_    0.910711 0.475408 0.293607 0.339681
C119  C     C_2   0.759162 0.981435 0.159873 0.562247
O48   O     O_2   0.774403 0.911470 0.136752 -0.534539
O49   O     O_R   0.695084 0.954683 0.197283 -0.661291
H98   H     H_    0.668706 0.876352 0.201845 0.365106
O50   O     O_3   0.828787 0.001149 0.293553 -0.504770
C120  C     C_3   0.907523 0.970090 0.307012 0.021364
H99   H     H_    0.881637 0.887301 0.287747 0.158361
H100  H     H_    0.907849 0.960097 0.343002 0.103344
C121  C     C_3   0.026551 0.047773 0.294453 -0.272217
H101  H     H_    0.074076 0.001927 0.288602 0.127712
H102  H     H_    0.021079 0.076295 0.262533 0.182946
C122  C     C_3   0.091975 0.146108 0.331461 -0.428490
H103  H     H_    0.047242 0.193861 0.339448 0.161189
H104  H     H_    0.175449 0.201398 0.319939 0.142326
H105  H     H_    0.105005 0.118043 0.362490 0.159348
O51   O     O_3   0.489742 0.611881 0.903927 -0.526140
C123  C     C_3   0.550707 0.706171 0.936854 0.024283
H106  H     H_    0.566280 0.678326 0.967503 0.161611
H107  H     H_    0.504612 0.752315 0.947576 0.104066
C124  C     C_3   0.664366 0.782699 0.919875 -0.290272
H108  H     H_    0.712355 0.737729 0.912303 0.163413
H109  H     H_    0.650637 0.808752 0.888386 0.156739
C125  C     C_3   0.733250 0.884488 0.954877 -0.460234
H110  H     H_    0.688713 0.933024 0.961605 0.156764
H111  H     H_    0.816180 0.936775 0.942093 0.175413
H112  H     H_    0.747743 0.860544 0.986807 0.156166
O52   O     O_3   0.510643 0.641551 0.660513 -0.567953
C126  C     C_3   0.589897 0.713281 0.696376 0.006818
H113  H     H_    0.570671 0.670367 0.726238 0.147330
H114  H     H_    0.589784 0.792850 0.706234 0.108821
C127  C     C_3   0.707828 0.739554 0.683047 -0.251661
H115  H     H_    0.707801 0.662699 0.668421 0.168359
H116  H     H_    0.733112 0.794681 0.657149 0.191298
C128  C     C_3   0.792399 0.795226 0.723792 -0.474807
H117  H     H_    0.783717 0.864369 0.741933 0.148977
H118  H     H_    0.879411 0.827861 0.712804 0.194232
H119  H     H_    0.777706 0.735676 0.747043 0.132272
O53   O     O_3   0.337609 0.997252 0.794581 -0.525140
C129  C     C_3   0.404720 0.994376 0.829543 0.012474
H120  H     H_    0.347604 0.935033 0.850886 0.149582
H121  H     H_    0.451458 0.074748 0.852235 0.112837
C130  C     C_3   0.485420 0.955291 0.809801 -0.271795
H122  H     H_    0.436350 0.875967 0.787276 0.200239
H123  H     H_    0.544906 0.015115 0.789180 0.146718
C131  C     C_3   0.551644 0.941388 0.846666 -0.486728
H124  H     H_    0.605270 0.021556 0.868314 0.151810
H125  H     H_    0.606669 0.909840 0.831052 0.130333
H126  H     H_    0.493381 0.881903 0.867824 0.150032

loop_
_geom_bond_atom_site_label_1
_geom_bond_atom_site_label_2
_ccdc_geom_bond_type
C99   H60   S    
C19   C20   S    
C107  H78   S    
C84   O8    A    
C40   C46   S    
C93   H47   S    
C29   H13   S    
O51   C123  S    
C78   H33   S    
C5    C6    A    
C42   H23   S    
C49   H24   S    
O49   H98   S    
C29   C33   S    
C45   O2    A    
Cr2   O21   S    
C120  H99   S    
C41   C42   S    
Cr3   O22   S    
C96   H53   S    
C46   C47   S    
C94   C95   S    
Cr6   O17   S    
C107  H76   S    
C112  H89   S    
C29   H12   S    
Cr1   O5    S    
C21   C22   S    
C19   O53   S    
Cr5   O9    S    
C110  H84   S    
C76   C83   A    
C108  H79   S    
C86   O6    A    
C41   O37   S    
C77   C79   A    
C78   C89   A    
C130  H123  S    
C112  C113  S    
C27   C31   S    
C51   C52   T    
C124  C125  S    
O45   H96   S    
Cr1   O12   S    
C102  H65   S    
Cr5   O16   S    
C96   H55   S    
C75   C76   A    
O36   C108  S    
C32   O36   S    
C16   C20   S    
C36   H15   S    
O53   C129  S    
C69   C74   A    
O35   C105  S    
C34   C69   S    
C56   O4    A    
C92   H44   S    
C55   C57   A    
C115  O41   S    
Cr6   O10   S    
O27   C91   S    
C14   C19   S    
C72   C73   A    
C14   H7    S    
Cr4   O13   S    
C40   H26   S    
C62   C68   A    
C60   C64   A    
Cr4   O7    S    
C25   C26   T    
C98   C99   S    
C123  H107  S    
O28   C94   S    
C32   C33   S    
Cr6   O19   S    
C74   H38   S    
C71   O50   S    
C109  C110  S    
C12   O22   A    
C69   C70   A    
C1    C39   S    
C99   C100  S    
C7    C13   A    
C104  H69   S    
C113  H92   S    
C13   C85   S    
C31   C36   S    
Cr5   O15   S    
C129  H121  S    
C97   O29   D    
Cr2   O2    S    
C108  C109  S    
Cr3   O5    S    
C124  H109  S    
C15   C18   S    
O31   C98   S    
C57   C66   S    
C90   O13   A    
C22   O28   S    
C7    C8    A    
C53   C54   A    
C16   O27   S    
C114  O38   D    
C79   C119  S    
C46   H19   S    
C28   C101  S    
C125  H111  S    
C115  O40   D    
C131  H125  S    
C84   O7    A    
C100  H62   S    
C116  O42   D    
C63   H34   S    
C126  C127  S    
Cr1   O25   S    
C9    C10   S    
C94   H50   S    
C91   H43   S    
C121  H101  S    
C101  O33   S    
C2    C11   S    
C62   C117  S    
C106  H74   S    
C14   H2    S    
C47   C50   S    
C128  H118  S    
C122  H103  S    
C48   H25   S    
C45   C52   S    
C105  H72   S    
C88   O17   A    
C5    C9    A    
Cr1   O1    S    
C19   H8    S    
C104  H71   S    
C103  H67   S    
C111  H87   S    
C20   C21   S    
C118  O47   S    
C27   H17   S    
Cr2   O26   S    
C87   O15   A    
C36   H14   S    
C3    O35   S    
C3    C4    A    
C53   C56   S    
C54   C55   A    
C18   C22   S    
C8    H41   S    
Cr1   O24   S    
C85   O10   A    
C34   O25   A    
C86   O11   A    
O47   H97   S    
C107  H77   S    
C43   C50   T    
C129  C130  S    
C71   C72   A    
C76   H36   S    
C57   C58   A    
C126  H114  S    
C33   C35   S    
C120  H100  S    
C100  H61   S    
C127  C128  S    
C96   H54   S    
C10   C11   T    
C63   C64   A    
C16   H5    S    
C40   C44   S    
C121  C122  S    
C68   C87   S    
C41   H21   S    
C113  H90   S    
C106  C107  S    
C35   H16   S    
O43   H95   S    
C100  H63   S    
C117  O44   D    
C120  C121  S    
C73   C74   A    
C23   O1    A    
C35   C36   S    
Cr5   O8    S    
C122  H105  S    
C15   H4    S    
O33   H64   S    
C108  H80   S    
O39   H93   S    
C105  C106  S    
C18   C25   S    
C43   C88   S    
C28   C29   S    
C111  H86   S    
C102  H66   S    
C103  C104  S    
Cr5   O19   S    
C23   C26   S    
C1    O12   A    
C70   C71   A    
C77   H40   S    
C95   C96   S    
C49   C114  S    
C92   H45   S    
C99   H59   S    
C119  O48   D    
C28   O34   S    
Cr6   O11   S    
C93   H48   S    
C129  H120  S    
C21   C97   S    
O52   C126  S    
C119  O49   S    
C42   H22   S    
Cr4   O14   S    
C56   O24   A    
C45   O3    A    
C33   C37   S    
C98   H57   S    
C30   C37   T    
C60   C61   A    
C2    C89   A    
C127  H115  S    
C98   H58   S    
C123  H106  S    
C27   H11   S    
C112  H88   S    
C109  H82   S    
C73   C118  S    
C48   C49   S    
C104  H70   S    
C55   H35   S    
C113  H91   S    
C70   H39   S    
C41   C44   S    
C46   H27   S    
C110  H83   S    
C97   O30   S    
Cr3   O4    S    
O37   C111  S    
C27   C32   S    
C28   C31   S    
C75   H37   S    
C31   C38   S    
C64   C65   S    
C17   C84   S    
C58   C59   A    
Cr3   O3    S    
C88   O16   A    
C131  H124  S    
C38   C39   T    
C1    O20   A    
C95   H51   S    
Cr4   O19   S    
C130  H122  S    
C54   C116  S    
Cr2   O20   S    
C110  H85   S    
C21   H9    S    
C7    O51   S    
C130  C131  S    
C44   C49   S    
C93   H46   S    
C91   H42   S    
Cr3   O23   S    
C101  O32   D    
C14   C18   S    
C61   C68   A    
C106  H75   S    
C81   C82   T    
C53   C59   A    
O34   C102  S    
C128  H119  S    
C62   C63   A    
Cr4   O6    S    
C122  H104  S    
C5    O31   S    
C123  C124  S    
Cr6   O18   S    
C77   C83   A    
C15   C16   S    
C35   H18   S    
C20   C24   S    
C8    C9    A    
C30   C86   S    
Cr2   O5    S    
C75   C80   A    
C125  H110  S    
C58   H31   S    
C87   O14   A    
C67   C78   A    
C4    C115  S    
C92   C93   S    
C12   C67   S    
C114  O39   S    
C17   C24   T    
C125  H112  S    
C85   O9    A    
C34   O26   A    
C117  O45   S    
C89   O52   S    
C131  H126  S    
C59   H32   S    
O30   H56   S    
C116  O43   S    
C47   C48   S    
C23   O23   A    
O50   C120  S    
C127  H116  S    
C44   C51   S    
C94   H49   S    
C91   C92   S    
C121  H102  S    
O41   H94   S    
C6    H1    S    
C118  O46   D    
C83   C90   S    
C128  H117  S    
C126  H113  S    
C15   H3    S    
C80   C81   S    
C48   H28   S    
C4    C67   A    
C61   H29   S    
C105  H73   S    
C22   H6    S    
C12   O21   A    
C124  H108  S    
C60   H30   S    
C2    C3    A    
C6    C13   A    
C102  C103  S    
C40   H20   S    
C103  H68   S    
C111  C112  S    
C42   C47   S    
C79   C80   A    
C65   C66   T    
C109  H81   S    
C32   H10   S    
C90   O18   A    
C72   C82   S    
C95   H52   S    
