data_mof_unit_3800.cif
_audit_creation_date              2013-03-05T15:49:18-0500
_audit_creation_method            fapswitch 2.2
_symmetry_space_group_name_H-M    P1
_symmetry_Int_Tables_number       1
_space_group_crystal_system       triclinic
_cell_length_a                    20.55934
_cell_length_b                    22.696388
_cell_length_c                    6.947277
_cell_angle_alpha                 89.999013
_cell_angle_beta                  86.960172
_cell_angle_gamma                 90.00033
_cell_volume                      3237.1961172

loop_
_atom_site_label
_atom_site_type_symbol
_atom_site_description
_atom_site_fract_x
_atom_site_fract_y
_atom_site_fract_z
_atom_type_partial_charge
O1    O     O_R   0.387100 0.552640 0.378490 -0.589093
O2    O     O_R   0.612900 0.052640 0.621510 -0.589100
O3    O     O_R   0.249610 0.559600 0.072250 -0.563396
O4    O     O_R   0.750390 0.059600 0.927750 -0.563627
O5    O     O_R   0.249120 0.447360 0.902040 -0.599781
O6    O     O_R   0.750880 0.947360 0.097960 -0.599725
C1    C     C_R   0.226282 0.572459 0.244036 0.961701
C2    C     C_R   0.773695 0.072479 0.755955 0.961735
O7    O     O_R   0.386610 0.559560 0.048860 -0.558428
O8    O     O_R   0.613390 0.059560 0.951140 -0.558430
O9    O     O_R   0.387100 0.447320 0.878470 -0.573518
O10   O     O_R   0.612900 0.947320 0.121530 -0.573513
C3    C     C_R   0.408206 0.574638 0.213834 1.015781
C4    C     C_R   0.591794 0.074638 0.786164 1.015759
O11   O     O_R   0.249120 0.552680 0.402050 -0.604062
O12   O     O_R   0.750880 0.052680 0.597950 -0.604048
O13   O     O_3   0.318110 0.463180 0.223790 -0.293534
O14   O     O_3   0.681890 0.963180 0.776210 -0.293517
V1    V     V_3+5 0.318110 0.506830 0.948930 1.236809
V2    V     V_3+5 0.681890 0.006830 0.051070 1.236746
O15   O     O_R   0.386610 0.440400 0.548840 -0.601112
O16   O     O_R   0.613390 0.940400 0.451160 -0.601116
C5    C     C_R   0.408281 0.425399 0.714259 1.051612
C6    C     C_R   0.591719 0.925399 0.285743 1.051596
O17   O     O_R   0.249610 0.440440 0.572240 -0.611224
O18   O     O_R   0.750390 0.940440 0.427760 -0.611318
C7    C     C_R   0.226446 0.427001 0.744134 0.949771
C8    C     C_R   0.773547 0.926993 0.255871 0.949825
V3    V     V_3+5 0.318110 0.493170 0.448930 1.188174
V4    V     V_3+5 0.681890 0.993170 0.551070 1.188112
O19   O     O_3   0.318110 0.536820 0.723940 -0.259637
O20   O     O_3   0.681890 0.036820 0.276060 -0.259704
C9    C     C_R   0.170091 0.386356 0.759144 -0.123553
C10   C     C_R   0.829885 0.886329 0.240896 -0.122915
C11   C     C_R   0.138942 0.369375 0.592254 -0.168876
C12   C     C_R   0.860965 0.869282 0.407843 -0.168763
C13   C     C_R   0.083973 0.333333 0.605524 -0.060025
C14   C     C_R   0.915924 0.833222 0.394629 -0.059948
C15   C     C_R   0.059202 0.313211 0.785681 0.165258
C16   C     C_R   0.940763 0.813176 0.214473 0.165712
C17   C     C_R   0.089871 0.330094 0.952636 -0.085922
C18   C     C_R   0.910154 0.830107 0.047466 -0.086245
C19   C     C_R   0.145088 0.366096 0.939604 -0.195878
C20   C     C_R   0.854933 0.866104 0.060445 -0.196075
C21   C     C_R   0.936811 0.141240 0.846630 -0.213219
C22   C     C_R   0.063279 0.641346 0.152561 -0.213264
C23   C     C_R   0.882795 0.103630 0.862939 0.622481
C24   C     C_R   0.117319 0.603759 0.136268 0.622469
C25   C     C_R   0.834423 0.156601 0.601522 -0.181547
C26   C     C_R   0.165316 0.656344 0.399141 -0.181018
C27   C     C_R   0.888228 0.194298 0.587864 -0.118507
C28   C     C_R   0.111492 0.694017 0.412779 -0.119170
C29   C     C_R   0.939551 0.186624 0.710328 0.020146
C30   C     C_R   0.060346 0.686528 0.289572 0.020551
C31   C     C_2   0.000316 0.275361 0.801187 0.095123
C32   C     C_2   0.999665 0.775353 0.199048 0.094860
C33   C     C_2   0.997931 0.225275 0.694115 0.395671
C34   C     C_2   0.001958 0.725169 0.305665 0.395511
C35   C     C_R   0.830741 0.111703 0.740765 -0.289642
C36   C     C_R   0.169204 0.611657 0.259187 -0.290004
H1    H     H_    0.156350 0.384643 0.451106 0.127895
H2    H     H_    0.843511 0.884506 0.548997 0.127789
H3    H     H_    0.795159 0.163048 0.505647 0.156526
H4    H     H_    0.204440 0.662655 0.495598 0.156966
H5    H     H_    0.071205 0.315104 0.092953 0.121977
H6    H     H_    0.928876 0.815165 0.907153 0.121822
H7    H     H_    0.976365 0.135464 0.942007 0.139269
H8    H     H_    0.023873 0.635736 0.056563 0.138872
H9    H     H_    0.167678 0.378575 0.070863 0.135996
H10   H     H_    0.832390 0.878625 0.929151 0.135906
H11   H     H_    0.060243 0.321658 0.475297 0.121344
H12   H     H_    0.939600 0.821497 0.524898 0.120995
H13   H     H_    0.890177 0.229137 0.481169 0.161713
H14   H     H_    0.109394 0.728698 0.520018 0.161708
C37   C     C_R   0.579120 0.360772 0.671500 -0.271898
C38   C     C_R   0.420880 0.860770 0.328506 -0.271806
H15   H     H_    0.667227 0.275776 0.638058 0.148783
H16   H     H_    0.332773 0.775773 0.361954 0.148901
H17   H     H_    0.629175 0.375037 0.646964 0.187225
H18   H     H_    0.370825 0.875034 0.353039 0.187273
C39   C     C_R   0.463865 0.383584 0.713342 -0.281569
C40   C     C_R   0.536135 0.883584 0.286664 -0.281557
C41   C     C_R   0.474358 0.096550 0.854813 0.473357
C42   C     C_R   0.525641 0.596553 0.145172 0.473373
C43   C     C_R   0.420718 0.135417 0.867610 0.279276
C44   C     C_R   0.579281 0.635420 0.132387 0.279311
C45   C     C_R   0.429545 0.194797 0.816776 -0.354504
C46   C     C_R   0.570456 0.694798 0.183236 -0.354511
C47   C     C_R   0.491315 0.217884 0.760087 0.064297
C48   C     C_R   0.508686 0.717884 0.239923 0.064317
C49   C     C_R   0.545330 0.177987 0.745460 0.049427
C50   C     C_R   0.454671 0.677987 0.254544 0.049384
C51   C     C_R   0.501675 0.279916 0.726994 0.162696
C52   C     C_R   0.498326 0.779916 0.273018 0.162710
C53   C     C_R   0.566128 0.300295 0.688542 0.111582
C54   C     C_R   0.433872 0.800293 0.311469 0.111490
C55   C     C_R   0.617949 0.260337 0.670312 -0.183730
C56   C     C_R   0.382052 0.760334 0.329699 -0.183603
C57   C     C_R   0.607753 0.200265 0.696060 -0.149475
C58   C     C_R   0.392248 0.700263 0.303948 -0.149463
C59   C     C_R   0.450839 0.322726 0.733239 -0.281071
C60   C     C_R   0.549162 0.822726 0.266772 -0.281077
C61   C     C_R   0.529294 0.403158 0.688677 0.300291
C62   C     C_R   0.470707 0.903157 0.311324 0.300268
C63   C     C_R   0.536424 0.117083 0.789604 -0.372824
C64   C     C_R   0.463576 0.617083 0.210390 -0.372834
H19   H     H_    0.400298 0.310282 0.751319 0.126796
H20   H     H_    0.599703 0.810282 0.248692 0.126779
H21   H     H_    0.387440 0.222829 0.833203 0.191715
H22   H     H_    0.612563 0.722829 0.166818 0.191694
H23   H     H_    0.649825 0.171573 0.682679 0.100234
H24   H     H_    0.350176 0.671570 0.317327 0.100343
N1    N     N_R   0.546839 0.464980 0.682398 0.224841
O21   O     O_R   0.607860 0.480482 0.667946 -0.349910
O22   O     O_R   0.503173 0.506449 0.696459 -0.388869
N2    N     N_R   0.453161 0.964978 0.317590 0.224836
O23   O     O_R   0.392140 0.980480 0.332035 -0.349843
O24   O     O_R   0.496827 0.006449 0.303520 -0.388876
O25   O     O_3   0.467646 0.039754 0.925504 -0.562459
C65   C     C_3   0.452382 0.001708 0.774527 -0.003452
H25   H     H_    0.410327 0.018030 0.695128 0.165488
H26   H     H_    0.438505 0.958233 0.837077 0.153299
H27   H     H_    0.495685 0.994680 0.675158 0.119481
O26   O     O_3   0.532355 0.539759 0.074471 -0.562456
C66   C     C_3   0.547623 0.501710 0.225440 -0.003529
H28   H     H_    0.589681 0.518031 0.304828 0.165475
H29   H     H_    0.561498 0.458237 0.162882 0.153289
H30   H     H_    0.504323 0.494680 0.324820 0.119496
N3    N     N_R   0.356921 0.115496 0.935881 0.252535
O27   O     O_R   0.349903 0.069694 0.047614 -0.271716
O28   O     O_R   0.305179 0.144900 0.893990 -0.369865
N4    N     N_R   0.643076 0.615500 0.064114 0.252496
O29   O     O_R   0.650088 0.569732 0.952231 -0.271784
O30   O     O_R   0.694822 0.644876 0.106142 -0.369932
O31   O     O_3   0.879873 0.060564 0.003878 -0.618140
C67   C     C_3   0.917337 0.011944 0.937309 -0.227889
H31   H     H_    0.968994 0.024305 0.901937 0.150236
H32   H     H_    0.895692 0.991142 0.810438 0.119631
H33   H     H_    0.917505 0.978676 0.054036 0.188557
O32   O     O_3   0.120482 0.560933 0.994544 -0.618044
C68   C     C_3   0.082605 0.512340 0.059150 -0.227833
H34   H     H_    0.030860 0.524801 0.092447 0.150267
H35   H     H_    0.103559 0.491368 0.186832 0.119786
H36   H     H_    0.082910 0.479173 0.942042 0.188053
O33   O     O_3   0.054503 0.207635 0.589197 -0.616521
C69   C     C_3   0.040533 0.173788 0.426096 -0.137233
H37   H     H_    0.005847 0.196995 0.334482 0.134096
H38   H     H_    0.021909 0.129448 0.468988 0.146841
H39   H     H_    0.086386 0.167247 0.337221 0.186077
O34   O     O_3   0.945293 0.707431 0.409922 -0.616402
C70   C     C_3   0.959108 0.673496 0.572971 -0.137120
H40   H     H_    0.993648 0.696680 0.665118 0.133182
H41   H     H_    0.977833 0.629199 0.529979 0.146700
H42   H     H_    0.913165 0.666859 0.661334 0.186234
N5    N     N_R   0.946713 0.294063 0.929720 0.229838
O35   O     O_R   0.913437 0.256294 0.035829 -0.423478
O36   O     O_R   0.937423 0.350008 0.961612 -0.377993
N6    N     N_R   0.053388 0.794212 0.071214 0.229968
O37   O     O_R   0.086878 0.756561 0.965234 -0.422988
O38   O     O_R   0.062612 0.850190 0.039817 -0.377699

loop_
_geom_bond_atom_site_label_1
_geom_bond_atom_site_label_2
_geom_bond_distance
_ccdc_geom_bond_type
C59   H19   1.077680 S    
C37   C61   1.405764 A    
C38   C62   1.405763 A    
C25   H3    1.083381 S    
C48   C52   1.440551 A    
C33   O33   1.398005 S    
N5    O36   1.301275 A    
C26   H4    1.083383 S    
C49   C63   1.425619 A    
O4    C2    1.295689 A    
V1    O19   1.704830 S    
O33   C69   1.411066 S    
C37   C53   1.402160 A    
O31   C67   1.409660 S    
C15   C17   1.402609 A    
C13   H11   1.083331 S    
C39   C59   1.412367 A    
C7    C9    1.480344 S    
C31   N5    1.444891 S    
O9    V1    2.000535 S    
C61   N1    1.448831 S    
C42   C44   1.411314 A    
N1    O21   1.301688 A    
O3    C1    1.295695 A    
C68   H35   1.113335 S    
C2    C35   1.471752 S    
C39   C61   1.418351 A    
C9    C11   1.407732 A    
C44   C46   1.402546 A    
O12   V4    1.997794 S    
O13   V3    1.705808 S    
N2    O23   1.301687 A    
N3    O28   1.301740 A    
C70   H42   1.109143 S    
C41   O25   1.383730 S    
O7    C3    1.296849 A    
C51   C53   1.415517 A    
C32   N6    1.444922 S    
C43   N3    1.443516 S    
C62   N2    1.448827 S    
C48   C50   1.432338 A    
O7    V1    2.000325 S    
C4    C63   1.490513 S    
O6    C8    1.299456 A    
C28   C30   1.400977 A    
N4    O29   1.300818 A    
C16   C32   1.483628 S    
C54   C56   1.399739 A    
H16   C56   1.084146 S    
C66   H30   1.108796 S    
C42   C64   1.410436 A    
C70   H40   1.113196 S    
C24   C36   1.412764 A    
O14   V4    1.705785 S    
C6    C40   1.485226 S    
C47   C49   1.432336 A    
C5    C39   1.485233 S    
C69   H38   1.111760 S    
C65   H27   1.108795 S    
C46   H22   1.075508 S    
C43   C45   1.402555 A    
C8    C10   1.480346 S    
C2    O12   1.296736 A    
O5    C7    1.299430 A    
N6    O38   1.301263 A    
C17   C19   1.397755 A    
O10   V2    2.000512 S    
C18   C20   1.397764 A    
C67   H33   1.108158 S    
C12   H2    1.082821 S    
C55   C57   1.389558 A    
C65   H26   1.109362 S    
O11   V3    1.997799 S    
C22   C24   1.400580 A    
C21   C23   1.400503 A    
O17   V3    2.005367 S    
C14   H12   1.083292 S    
C23   C35   1.412669 A    
C24   O32   1.382631 S    
C9    C19   1.406804 A    
C38   H18   1.083653 S    
C10   C20   1.406804 A    
O32   C68   1.409661 S    
C67   H32   1.113292 S    
O8    C4    1.296850 A    
C68   H36   1.108186 S    
C51   C59   1.426011 A    
C29   C33   1.486093 S    
C67   H31   1.113255 S    
C15   C31   1.483722 S    
C17   H5    1.083329 S    
C1    O11   1.296815 A    
C25   C27   1.397705 A    
O15   V3    2.000811 S    
C41   C63   1.410441 A    
C27   C29   1.400995 A    
C52   C54   1.415517 A    
C22   H8    1.083836 S    
V4    O20   2.152137 S    
C69   H39   1.109150 S    
C26   C28   1.397685 A    
V3    O19   2.152167 S    
C57   H23   1.082763 S    
O3    V1    2.005964 S    
C22   C30   1.398269 A    
O1    V3    1.999870 S    
C40   C60   1.412366 A    
C11   H1    1.082819 S    
C60   H20   1.077683 S    
N2    O24   1.300798 A    
O5    V1    1.997195 S    
N4    O30   1.301742 A    
C41   C43   1.411329 A    
C46   C48   1.410458 A    
C58   H24   1.082763 S    
C56   C58   1.389557 A    
O15   C5    1.299768 A    
C66   H28   1.113408 S    
O16   C6    1.299765 A    
O1    C3    1.301320 A    
C12   C14   1.394280 A    
C1    C36   1.471914 S    
C3    C64   1.490509 S    
C20   H10   1.082766 S    
C50   C58   1.404899 A    
C66   H29   1.109362 S    
C69   H37   1.113196 S    
C30   C34   1.486083 S    
C50   C64   1.425619 A    
O16   V4    2.000815 S    
C23   O31   1.382552 S    
O34   C70   1.411066 S    
O18   C8    1.298283 A    
C27   H13   1.083096 S    
C16   C18   1.402592 A    
O25   C65   1.406845 S    
C53   C55   1.399742 A    
O18   V4    2.005395 S    
C21   H7    1.083828 S    
C45   H21   1.075501 S    
C42   O26   1.383729 S    
O6    V2    1.997198 S    
O10   C6    1.298443 A    
C28   H14   1.083098 S    
C25   C35   1.404320 A    
O2    V4    1.999894 S    
C26   C36   1.404356 A    
C31   C33   1.360825 D    
N3    O27   1.300815 A    
C11   C13   1.394192 A    
C13   C15   1.402432 A    
V2    O20   1.704852 S    
C68   H34   1.113180 S    
C38   C54   1.402161 A    
C14   C16   1.402326 A    
C44   N4    1.443493 S    
N6    O37   1.301047 A    
O8    V2    2.000322 S    
O9    C5    1.298447 A    
O13   V1    2.151212 S    
C10   C12   1.407757 A    
C32   C34   1.360819 D    
O14   V2    2.151243 S    
C70   H41   1.111757 S    
C47   C51   1.440554 A    
O2    C4    1.301322 A    
C21   C29   1.398282 A    
O4    V2    2.005936 S    
C52   C60   1.426004 A    
C19   H9    1.082766 S    
N5    O35   1.301067 A    
C18   H6    1.083330 S    
C45   C47   1.410458 A    
C40   C62   1.418350 A    
C65   H25   1.113408 S    
H15   C55   1.084147 S    
C49   C57   1.404900 A    
C37   H17   1.083653 S    
C34   O34   1.397987 S    
O26   C66   1.406845 S    
N1    O22   1.300795 A    
O17   C7    1.298308 A    
