data_mof_unit_3541.cif
_audit_creation_date              2012-12-10T17:48:45-0500
_audit_creation_method            fapswitch 2.2
_symmetry_space_group_name_H-M    P1
_symmetry_Int_Tables_number       1
_space_group_crystal_system       triclinic
_cell_length_a                    15.7616
_cell_length_b                    10.594501
_cell_length_c                    9.965259
_cell_angle_alpha                 92.796171
_cell_angle_beta                  90.643865
_cell_angle_gamma                 94.007516
_cell_volume                      1657.83724808

loop_
_atom_site_label
_atom_site_type_symbol
_atom_type_description
_atom_site_fract_x
_atom_site_fract_y
_atom_site_fract_z
_atom_type_partial_charge
C1    C     C_R   0.503643 0.259098 0.496708 0.985501
C2    C     C_R   0.588050 0.074141 0.833179 -0.356956
C3    C     C_R   0.531700 0.972976 0.866703 0.021528
C4    C     C_R   0.338655 0.500566 0.499425 0.894134
C5    C     C_R   0.479560 0.907934 0.764023 0.033913
C6    C     C_R   0.490633 0.943768 0.629059 -0.114891
C7    C     C_R   0.529331 0.062530 0.606228 -0.022609
C8    C     C_R   0.503365 0.122254 0.490406 -0.122575
C9    C     C_R   0.454857 0.053726 0.387143 0.330030
C10   C     C_R   0.435799 0.923567 0.398042 -0.126008
C11   C     C_R   0.463430 0.867689 0.514317 -0.187066
C12   C     C_3   0.954854 0.583454 0.637702 0.620472
C13   C     C_R   0.376666 0.355019 0.136654 -0.152425
C14   C     C_R   0.304601 0.296175 0.073765 -0.143360
C15   C     C_R   0.295347 0.303790 0.934659 -0.123527
C16   C     C_R   0.487536 0.737502 0.503612 0.934954
C17   C     C_R   0.366101 0.351842 0.860861 0.463628
C18   C     C_R   0.434874 0.429822 0.925433 0.047999
C19   C     C_R   0.436976 0.430410 0.069227 0.014163
C20   C     C_R   0.562498 0.564659 0.078156 0.514660
C21   C     C_R   0.563220 0.563542 0.933548 -0.094875
C22   C     C_R   0.661380 0.501487 0.500737 0.951771
C23   C     C_3   0.917397 0.511598 0.503844 -0.087710
C24   C     C_3   0.056307 0.599702 0.629059 -0.262483
C25   C     C_3   0.044212 0.375803 0.515547 0.198594
C26   C     C_3   0.945231 0.369991 0.494067 0.215053
C27   C     C_1   0.750125 0.505685 0.502694 -0.134477
C28   C     C_3   0.083797 0.514815 0.502426 -0.156996
C29   C     C_2   0.089093 0.738111 0.613384 0.480101
C30   C     C_2   0.533564 0.937330 0.008514 0.468105
C31   C     C_2   0.403220 0.822961 0.795075 0.536813
C32   C     C_2   0.384770 0.847728 0.291847 0.507557
C33   C     C_2   0.096995 0.561206 0.760010 0.586034
C34   C     C_3   0.951849 0.584495 0.377692 0.679036
C35   C     C_2   0.244542 0.220990 0.157794 0.497255
C36   C     C_2   0.212395 0.263290 0.865625 0.470518
C37   C     C_2   0.635989 0.627852 0.867056 0.488192
C38   C     C_2   0.902940 0.286538 0.598166 0.563567
C39   C     C_2   0.078564 0.514889 0.236786 0.548538
C40   C     C_3   0.050557 0.573479 0.370354 -0.214594
C41   C     C_1   0.825392 0.509258 0.503817 -0.001288
C42   C     C_1   0.175631 0.512498 0.499508 0.173992
C43   C     C_1   0.250445 0.507147 0.498598 -0.040755
C44   C     C_R   0.587252 0.120584 0.703879 0.530500
H1    H     H_    0.631291 0.119456 0.909165 0.143334
H2    H     H_    0.679660 0.248163 0.749185 0.328526
H3    H     H_    0.554208 0.007791 0.087056 0.079857
H4    H     H_    0.369086 0.766714 0.715295 0.080115
H5    H     H_    0.386822 0.873769 0.188163 0.143795
H6    H     H_    0.658772 0.691681 0.103842 0.322316
H7    H     H_    0.141682 0.488133 0.759920 0.057307
H8    H     H_    0.241510 0.244674 0.264829 0.129612
H9    H     H_    0.156209 0.239317 0.923172 0.150711
H10   H     H_    0.352521 0.215370 0.725765 0.341641
H11   H     H_    0.700181 0.604943 0.891833 0.025108
H12   H     H_    0.386053 0.336992 0.239457 0.231961
H13   H     H_    0.066861 0.202788 0.459789 0.392999
H14   H     H_    0.847468 0.314718 0.652243 0.063763
H15   H     H_    0.961793 0.328836 0.299631 0.414930
H16   H     H_    0.055945 0.551490 0.144082 0.154391
H17   H     H_    0.875531 0.723962 0.395135 0.367997
H18   H     H_    0.058570 0.349182 0.619793 0.132120
H19   H     H_    0.081105 0.671106 0.367316 0.156346
H20   H     H_    0.870171 0.523336 0.767785 0.349677
H21   H     H_    0.048493 0.806201 0.573524 0.174865
H22   H     H_    0.936571 0.738177 0.745538 0.376765
H23   H     H_    0.852588 0.558385 0.253576 0.357642
H24   H     H_    0.372969 0.074087 0.243011 0.321882
N1    N     N_R   0.499210 0.498800 0.142780 -0.114049
N2    N     N_R   0.499180 0.498720 0.857170 -0.125422
O1    O     O_R   0.500000 0.316780 0.614690 -0.556996
O2    O     O_2   0.163450 0.773290 0.637794 -0.560104
O3    O     O_3   0.919935 0.702526 0.654217 -0.746401
O4    O     O_3   0.911963 0.533158 0.257066 -0.765166
O5    O     O_3   0.427019 0.116387 0.278446 -0.802919
O6    O     O_3   0.644218 0.218529 0.669424 -0.777700
O7    O     O_2   0.516854 0.828574 0.039001 -0.561644
O8    O     O_2   0.373076 0.821657 0.907246 -0.537619
O9    O     O_2   0.337558 0.756984 0.320371 -0.556296
O10   O     O_3   0.623907 0.632398 0.157686 -0.720521
O11   O     O_2   0.081717 0.615448 0.867163 -0.520183
O12   O     O_R   0.499990 0.316750 0.385360 -0.608507
O13   O     O_2   0.202202 0.127781 0.111518 -0.546187
O14   O     O_2   0.204078 0.262121 0.743595 -0.585871
O15   O     O_3   0.371638 0.306851 0.731285 -0.698293
O16   O     O_2   0.625704 0.711605 0.790251 -0.520093
O17   O     O_3   0.082554 0.288679 0.428378 -0.673930
O18   O     O_2   0.927410 0.181715 0.616228 -0.534946
O19   O     O_3   0.918900 0.310262 0.368942 -0.675962
O20   O     O_2   0.128240 0.431804 0.229611 -0.555617
O21   O     O_3   0.937673 0.714846 0.391033 -0.736931
O22   O     O_R   0.377150 0.500020 0.614720 -0.575885
O23   O     O_R   0.377140 0.499990 0.385380 -0.623262
O24   O     O_R   0.500010 0.683250 0.614640 -0.606166
O25   O     O_R   0.500000 0.683220 0.385310 -0.545689
O26   O     O_R   0.622860 0.500010 0.614620 -0.599515
O27   O     O_R   0.622850 0.499980 0.385280 -0.567931
O28   O     O_3   0.930992 0.511775 0.749138 -0.800720
Zn1   Zn    Zn3+2 0.500010 0.500020 0.653130 1.036012
Zn2   Zn    Zn3+2 0.499990 0.499980 0.346870 1.052843

loop_
_geom_bond_atom_site_label_1
_geom_bond_atom_site_label_2
_ccdc_geom_bond_type
C18   N2    A    
C1    C8    S    
H2    O6    S    
C7    C8    A    
C26   O19   S    
C12   C23   S    
C1    O1    A    
C40   H19   S    
C17   O15   S    
C5    C6    A    
C28   C40   S    
O26   Zn1   S    
C25   O17   S    
C18   C19   A    
H15   O19   S    
C23   C26   S    
C44   O6    S    
C34   O21   S    
C36   H9    S    
C38   H14   S    
C30   O7    D    
C2    C44   A    
C8    C9    A    
C9    C10   A    
C39   O20   D    
C12   O28   S    
C29   O2    D    
H20   O28   S    
C22   O27   A    
C13   C14   A    
C22   O26   A    
C2    H1    S    
C20   O10   S    
C37   O16   D    
C6    C11   A    
C13   C19   A    
O25   Zn2   S    
C26   C38   S    
C25   C26   S    
H22   O3    S    
O1    Zn1   S    
C14   C35   S    
H13   O17   S    
C38   O18   D    
H24   O5    S    
C3    C30   S    
C30   H3    S    
C11   C16   S    
C27   C41   T    
C23   C34   S    
C17   C18   A    
H23   O4    S    
C7    C44   A    
O23   Zn2   S    
C34   O4    S    
C29   H21   S    
C31   H4    S    
C34   C40   S    
C20   N1    A    
C19   N1    A    
C42   C43   T    
C15   C36   S    
C39   C40   S    
O27   Zn2   S    
N2    Zn1   S    
C31   O8    D    
C15   C17   A    
C16   O25   A    
C35   O13   D    
O12   Zn2   S    
C24   C28   S    
C3    C5    A    
H6    O10   S    
H10   O15   S    
C6    C7    A    
C4    C43   S    
C33   H7    S    
C12   C24   S    
C16   O24   A    
C24   C33   S    
C23   C41   S    
C21   N2    A    
C22   C27   S    
C13   H12   S    
C2    C3    A    
C1    O12   A    
C32   O9    D    
O24   Zn1   S    
C36   O14   D    
C39   H16   S    
C28   C42   S    
C25   H18   S    
C32   H5    S    
C10   C11   A    
C25   C28   S    
C4    O23   A    
C37   H11   S    
N1    Zn2   S    
C10   C32   S    
C24   C29   S    
C21   C37   S    
C20   C21   A    
C35   H8    S    
C14   C15   A    
C9    O5    S    
C5    C31   S    
C12   O3    S    
C33   O11   D    
H17   O21   S    
O22   Zn1   S    
C4    O22   A    
