data_mof_unit_3410.cif
_audit_creation_date              2012-12-10T17:16:41-0500
_audit_creation_method            fapswitch 2.2
_symmetry_space_group_name_H-M    P1
_symmetry_Int_Tables_number       1
_space_group_crystal_system       triclinic
_cell_length_a                    10.119629
_cell_length_b                    10.656657
_cell_length_c                    10.714238
_cell_angle_alpha                 89.656629
_cell_angle_beta                  94.949288
_cell_angle_gamma                 81.487552
_cell_volume                      1138.24285698

loop_
_atom_site_label
_atom_site_type_symbol
_atom_type_description
_atom_site_fract_x
_atom_site_fract_y
_atom_site_fract_z
_atom_type_partial_charge
C1    C     C_R   0.443953 0.512943 0.266586 0.836504
C2    C     C_R   0.505608 0.738800 0.517711 0.850613
C3    C     C_R   0.709930 0.081902 0.379321 -0.081076
C4    C     C_R   0.290672 0.917653 0.622003 -0.087503
C5    C     C_R   0.836060 0.007901 0.384126 -0.123029
C6    C     C_R   0.164531 0.991599 0.617397 -0.117608
C7    C     C_R   0.861602 0.896682 0.456225 -0.152035
C8    C     C_R   0.138828 0.102848 0.545337 -0.145110
C9    C     C_R   0.757911 0.854630 0.514707 -0.092954
C10   C     C_R   0.242380 0.144993 0.486700 -0.090255
C11   C     C_R   0.626268 0.922943 0.500516 0.089094
C12   C     C_R   0.556138 0.495976 0.733390 0.839863
C13   C     C_R   0.374088 0.076785 0.500734 0.087047
C14   C     C_R   0.607160 0.044733 0.446590 0.060605
C15   C     C_R   0.393277 0.954975 0.554636 0.066348
C16   C     C_R   0.513277 0.873289 0.537778 -0.237180
C17   C     C_R   0.487028 0.126437 0.463199 -0.238745
C18   C     C_2   0.411650 0.535902 0.133471 0.216443
C19   C     C_2   0.588776 0.509681 0.866262 0.215202
C20   C     C_2   0.508260 0.567408 0.066993 -0.178770
C21   C     C_2   0.492871 0.569703 0.932221 -0.202831
C22   C     C_2   0.071557 0.494752 0.486639 0.038456
C23   C     C_2   0.928495 0.505063 0.513509 0.034200
C24   C     C_R   0.494462 0.261101 0.482536 0.885286
Cl1   Cl    Cl    0.749205 0.443043 0.934996 -0.484468
Cl2   Cl    Cl    0.250692 0.516314 0.065212 -0.489538
Cl3   Cl    Cl    0.887661 0.359020 0.320282 -0.528447
Cl4   Cl    Cl    0.112255 0.641379 0.679445 -0.549992
H1    H     H_    0.039325 0.157569 0.536437 0.179336
H2    H     H_    0.606060 0.579058 0.112048 0.221018
H3    H     H_    0.892569 0.561762 0.590413 0.162974
H4    H     H_    0.107540 0.437868 0.409874 0.163832
H5    H     H_    0.961064 0.841886 0.465210 0.179182
H6    H     H_    0.692824 0.167678 0.322002 0.196441
H7    H     H_    0.307934 0.831741 0.679154 0.183214
H8    H     H_    0.914832 0.038587 0.334621 0.184837
H9    H     H_    0.085854 0.960820 0.666966 0.183819
H10   H     H_    0.781925 0.770065 0.573110 0.162737
H11   H     H_    0.218129 0.229482 0.428219 0.164920
H12   H     H_    0.395461 0.610204 0.886904 0.224206
N1    N     N_2   0.157300 0.551390 0.551120 0.038179
N2    N     N_2   0.842700 0.448610 0.448880 0.035067
O1    O     O_R   0.568940 0.489660 0.307530 -0.590432
O2    O     O_R   0.431060 0.510340 0.692470 -0.585955
O3    O     O_R   0.348880 0.522640 0.340350 -0.589751
O4    O     O_R   0.651120 0.477360 0.659650 -0.587479
O5    O     O_R   0.610030 0.300280 0.483580 -0.586794
O6    O     O_R   0.389970 0.699720 0.516420 -0.594430
O7    O     O_R   0.389970 0.333270 0.516400 -0.620041
O8    O     O_R   0.610030 0.666730 0.483600 -0.630799
Zn1   Zn    Zn3+2 0.646940 0.477980 0.478080 1.041935
Zn2   Zn    Zn3+2 0.353060 0.522020 0.521920 1.043861

loop_
_geom_bond_atom_site_label_1
_geom_bond_atom_site_label_2
_ccdc_geom_bond_type
C6    C8    A    
C3    C14   A    
C2    C16   S    
C11   C16   A    
N1    Zn2   S    
Cl3   N2    S    
C13   C17   A    
N2    Zn1   S    
O7    Zn2   S    
C1    O3    A    
O2    Zn2   S    
C4    C15   A    
C13   C15   A    
O8    Zn1   S    
C6    H9    S    
C12   O2    A    
C20   H2    S    
C7    H5    S    
C14   C17   A    
O1    Zn1   S    
C1    C18   S    
C23   N2    D    
C22   H4    S    
C8    H1    S    
C12   C19   S    
C4    C6    A    
C9    H10   S    
C19   C21   D    
O3    Zn2   S    
C18   C20   D    
C21   H12   S    
C9    C11   A    
C19   Cl1   S    
C11   C14   A    
C4    H7    S    
C22   N1    D    
C15   C16   A    
C17   C24   S    
C5    H8    S    
C7    C9    A    
Cl4   N1    S    
O6    Zn2   S    
C20   C21   S    
C12   O4    A    
C24   O7    A    
C5    C7    A    
C22   C23   S    
O5    Zn1   S    
C2    O8    A    
C3    H6    S    
C2    O6    A    
C24   O5    A    
O4    Zn1   S    
C1    O1    A    
C8    C10   A    
C23   H3    S    
C10   H11   S    
C3    C5    A    
C10   C13   A    
C18   Cl2   S    
