data_mof_unit_188.cif
_audit_creation_date              2012-12-10T16:48:48-0500
_audit_creation_method            fapswitch 2.2
_symmetry_space_group_name_H-M    P1
_symmetry_Int_Tables_number       1
_space_group_crystal_system       triclinic
_cell_length_a                    17.246089
_cell_length_b                    8.684364
_cell_length_c                    7.455364
_cell_angle_alpha                 102.7686
_cell_angle_beta                  91.542634
_cell_angle_gamma                 93.0483
_cell_volume                      1086.58824867

loop_
_atom_site_label
_atom_site_type_symbol
_atom_type_description
_atom_site_fract_x
_atom_site_fract_y
_atom_site_fract_z
_atom_type_partial_charge
C1    C     C_R   0.497625 0.199773 0.453724 0.890721
C2    C     C_R   0.502374 0.800227 0.546276 0.888335
C3    C     C_2   0.496505 0.032005 0.427531 -0.367820
C4    C     C_2   0.503500 0.967997 0.572469 -0.368147
C5    C     C_R   0.350946 0.503102 0.523663 0.800939
C6    C     C_R   0.648990 0.494971 0.476056 0.795358
C7    C     C_R   0.266549 0.512229 0.530839 -0.087488
C8    C     C_R   0.732856 0.477291 0.467443 -0.022252
C9    C     C_R   0.222319 0.479129 0.364150 -0.163511
C10   C     C_R   0.776764 0.495763 0.633353 -0.284108
C11   C     C_R   0.142600 0.497235 0.361091 0.001615
C12   C     C_R   0.855223 0.466745 0.633845 0.054790
C13   C     C_R   0.106128 0.543793 0.530165 0.068270
C14   C     C_R   0.891442 0.426004 0.463586 0.150616
C15   C     C_R   0.150352 0.580274 0.696324 -0.057837
C16   C     C_R   0.847544 0.403923 0.297916 -0.210077
C17   C     C_R   0.230242 0.563646 0.697147 -0.174842
C18   C     C_R   0.768522 0.429816 0.299419 -0.202339
C19   C     C_2   0.021668 0.546531 0.539339 -0.201810
C20   C     C_2   0.975680 0.421270 0.453664 -0.138690
Cu1   Cu    Cu3+1 0.508700 0.517250 0.683000 0.953062
Cu2   Cu    Cu3+1 0.491300 0.482750 0.317000 0.954033
H1    H     H_    0.250285 0.442501 0.234467 0.193110
H2    H     H_    0.749471 0.528786 0.764539 0.150568
H3    H     H_    0.735526 0.412315 0.170080 0.154169
H4    H     H_    0.263467 0.592117 0.826794 0.162908
H5    H     H_    0.999635 0.319073 0.366274 0.157890
H6    H     H_    0.997237 0.647709 0.627712 0.158092
H7    H     H_    0.122538 0.618555 0.825881 0.168977
H8    H     H_    0.875108 0.370559 0.167365 0.162475
H9    H     H_    0.489918 0.960788 0.287698 0.179493
H10   H     H_    0.510088 0.039214 0.712301 0.179741
H11   H     H_    0.439045 0.377910 0.957381 0.227600
H12   H     H_    0.560955 0.622089 0.042620 0.223008
N1    N     N_2   0.478180 0.456750 0.041980 -0.217840
N2    N     N_2   0.521820 0.543250 0.958020 -0.220445
O1    O     O_R   0.505650 0.286040 0.618880 -0.582727
O2    O     O_R   0.494350 0.713960 0.381120 -0.582530
O3    O     O_R   0.490960 0.256910 0.309800 -0.585414
O4    O     O_R   0.509040 0.743090 0.690200 -0.586239
O5    O     O_R   0.394600 0.516230 0.672450 -0.587737
O6    O     O_R   0.605400 0.483770 0.327550 -0.594533
O7    O     O_R   0.379910 0.487100 0.363380 -0.589634
O8    O     O_R   0.620090 0.512900 0.636620 -0.588263
C21   C     C_2   0.895679 0.475954 0.814675 0.296929
H13   H     H_    0.871630 0.542600 0.939257 0.054918
O9    O     O_2   0.953987 0.404827 0.827955 -0.520960
C22   C     C_2   0.099471 0.474074 0.180829 0.329581
H14   H     H_    0.042831 0.521143 0.172122 0.105828
O10   O     O_2   0.126818 0.401973 0.039491 -0.527782

loop_
_geom_bond_atom_site_label_1
_geom_bond_atom_site_label_2
_ccdc_geom_bond_type
C2    C4    S    
C5    O5    A    
C15   C17   A    
C19   H6    S    
C20   H5    S    
C2    O4    A    
Cu1   O8    S    
C11   C13   A    
C2    O2    A    
C19   C20   D    
C1    O1    A    
C22   O10   D    
C5    O7    A    
Cu1   N2    S    
Cu2   O6    S    
C21   H13   S    
C3    H9    S    
Cu2   N1    S    
C9    C11   A    
C11   C22   S    
C4    H10   S    
Cu1   O4    S    
C10   C12   A    
Cu1   O5    S    
C17   H4    S    
C8    C10   A    
C22   H14   S    
H11   N1    S    
C12   C14   A    
C15   H7    S    
H12   N2    S    
C13   C15   A    
C18   H3    S    
C14   C16   A    
Cu2   O3    S    
C16   H8    S    
C3    C4    D    
Cu2   O2    S    
C14   C20   S    
Cu1   O1    S    
C6    O8    A    
C7    C9    A    
C6    O6    A    
C21   O9    D    
C5    C7    S    
C1    O3    A    
C9    H1    S    
C13   C19   S    
C6    C8    S    
C10   H2    S    
Cu1   Cu2   S    
C16   C18   A    
C8    C18   A    
Cu2   O7    S    
C12   C21   S    
C1    C3    S    
N1    N2    D    
C7    C17   A    
