data_mof_unit_317.cif
_audit_creation_date              2012-12-10T17:48:53-0500
_audit_creation_method            fapswitch 2.2
_symmetry_space_group_name_H-M    P1
_symmetry_Int_Tables_number       1
_space_group_crystal_system       triclinic
_cell_length_a                    10.728388
_cell_length_b                    14.695977
_cell_length_c                    14.663175
_cell_angle_alpha                 65.031059
_cell_angle_beta                  103.720479
_cell_angle_gamma                 102.936551
_cell_volume                      2015.77815972

loop_
_atom_site_label
_atom_site_type_symbol
_atom_type_description
_atom_site_fract_x
_atom_site_fract_y
_atom_site_fract_z
_atom_type_partial_charge
C1    C     C_R   0.481277 0.119572 0.311948 0.818769
C2    C     C_3   0.877885 0.000203 0.497881 0.103493
C3    C     C_3   0.918948 0.895175 0.570485 -0.369643
C4    C     C_3   0.965241 0.080950 0.536783 -0.416218
C5    C     C_R   0.480468 0.186359 0.203815 -0.057687
C6    C     C_R   0.556852 0.812773 0.797535 -0.077441
C7    C     C_R   0.433652 0.215199 0.024737 -0.186343
C8    C     C_R   0.434990 0.149167 0.126560 -0.166205
C9    C     C_R   0.528661 0.289057 0.178364 -0.216131
C10   C     C_R   0.527687 0.357408 0.076443 0.095506
C11   C     C_R   0.476979 0.319164 0.999061 0.157776
C12   C     C_R   0.260235 0.000032 0.500677 0.776800
C13   C     C_R   0.569320 0.463180 0.049550 0.069652
C14   C     C_R   0.545410 0.530634 0.945569 0.079227
C15   C     C_R   0.500504 0.489111 0.870354 -0.216722
C16   C     C_R   0.468308 0.385165 0.896960 -0.219796
C17   C     C_R   0.633449 0.503792 0.123140 -0.177838
C18   C     C_R   0.662390 0.607427 0.097202 -0.169546
C19   C     C_R   0.627536 0.674426 0.997582 0.105889
C20   C     C_R   0.568369 0.637230 0.920638 0.088522
C21   C     C_R   0.651626 0.778583 0.974820 -0.159062
C22   C     C_R   0.618109 0.848724 0.875678 0.160802
C23   C     C_R   0.526199 0.880265 0.688569 0.798306
C24   C     C_R   0.530539 0.707856 0.822112 -0.295913
C25   C     C_R   0.742076 0.300322 0.642834 -0.308192
C26   C     C_R   0.700111 0.213589 0.621827 0.072033
C27   C     C_R   0.509743 0.280326 0.517558 0.034305
C28   C     C_R   0.553441 0.375145 0.526545 -0.012760
C29   C     C_R   0.668735 0.380828 0.596222 0.159949
C30   C     C_R   0.485370 0.462083 0.473646 0.024649
C31   C     C_R   0.524289 0.546384 0.504915 0.068660
C32   C     C_R   0.636750 0.545295 0.578571 -0.208430
C33   C     C_R   0.709119 0.465726 0.620621 -0.186332
C34   C     C_R   0.739964 0.000440 0.498681 0.770155
C35   C     C_R   0.384475 0.471693 0.388254 0.082867
C36   C     C_R   0.312079 0.551609 0.348690 -0.159045
C37   C     C_R   0.342766 0.630390 0.383056 0.065542
C38   C     C_R   0.452139 0.630706 0.459410 -0.045487
C39   C     C_R   0.269752 0.712125 0.338348 0.051939
C40   C     C_R   0.308743 0.794028 0.367652 0.061462
C41   C     C_R   0.484985 0.716795 0.485906 0.030471
C42   C     C_3   0.047496 0.027558 0.390075 -0.385779
C43   C     C_3   0.902359 0.026637 0.387935 0.016283
C44   C     C_3   0.062458 0.895030 0.570218 -0.366269
C45   C     C_3   0.108517 0.080801 0.538805 -0.379007
C46   C     C_3   0.122631 0.000929 0.500147 0.111375
Cu1   Cu    Cu3+1 0.465900 0.918260 0.475680 0.953750
Cu2   Cu    Cu3+1 0.534100 0.081740 0.524320 0.936014
H1    H     H_    0.059553 0.972652 0.360004 0.199017
H2    H     H_    0.950008 0.065087 0.614946 0.175350
H3    H     H_    0.116797 0.874184 0.649354 0.155900
H4    H     H_    0.904658 0.877381 0.649334 0.152521
H5    H     H_    0.432940 0.356523 0.837039 0.146460
H6    H     H_    0.477870 0.682527 0.762919 0.162670
H7    H     H_    0.710628 0.635305 0.156210 0.171424
H8    H     H_    0.396143 0.185341 0.965898 0.137620
H9    H     H_    0.398980 0.069542 0.144663 0.167509
H10   H     H_    0.562423 0.314499 0.239869 0.174252
H11   H     H_    0.088961 0.103937 0.339323 0.156680
H12   H     H_    0.491518 0.534864 0.789786 0.142624
H13   H     H_    0.665434 0.457560 0.201580 0.155192
H14   H     H_    0.697812 0.805316 0.035021 0.158565
H15   H     H_    0.796348 0.469704 0.675006 0.144512
H16   H     H_    0.566150 0.724106 0.542785 0.125460
H17   H     H_    0.254625 0.857602 0.332849 0.148008
H18   H     H_    0.235048 0.554502 0.285296 0.204773
H19   H     H_    0.831942 0.304841 0.694472 0.142074
H20   H     H_    0.758916 0.153003 0.654771 0.119705
H21   H     H_    0.414213 0.263862 0.479857 0.158398
H22   H     H_    0.876551 0.103697 0.338038 0.124785
H23   H     H_    0.674087 0.606224 0.604279 0.129829
H24   H     H_    0.069292 0.836225 0.543250 0.191933
H25   H     H_    0.857941 0.834261 0.547144 0.196152
H26   H     H_    0.161710 0.063486 0.617998 0.175497
H27   H     H_    0.150910 0.157828 0.489949 0.188067
H28   H     H_    0.939386 0.157933 0.486340 0.183202
N1    N     N_R   0.585360 0.204570 0.560800 -0.181827
N2    N     N_R   0.414550 0.795430 0.439160 -0.192059
O1    O     O_R   0.455060 0.022100 0.338110 -0.574433
O2    O     O_R   0.512640 0.160150 0.379180 -0.568216
O3    O     O_R   0.288900 0.930980 0.479450 -0.592227
O4    O     O_R   0.346480 0.069030 0.520520 -0.589148
O5    O     O_R   0.487360 0.839850 0.620820 -0.591283
O6    O     O_R   0.544940 0.977900 0.661890 -0.577861
O7    O     O_R   0.653520 0.930970 0.479480 -0.555770
O8    O     O_R   0.711100 0.069020 0.520550 -0.602153
C47   C     C_3   0.650681 0.959847 0.856982 -0.813522
H29   H     H_    0.561237 0.996320 0.826600 0.243800
H30   H     H_    0.696036 0.972122 0.928053 0.226321
H31   H     H_    0.721053 0.997244 0.802955 0.226131
I1    I     I_    0.348827 0.393412 0.288389 -0.454724
I2    I     I_    0.100375 0.720097 0.226195 -0.415734
I3    I     I_    0.785912 0.928608 0.313530 -0.389822

loop_
_geom_bond_atom_site_label_1
_geom_bond_atom_site_label_2
_ccdc_geom_bond_type
C47   H29   S    
C15   H12   S    
C19   C20   A    
C25   H19   S    
Cu1   O1    S    
C7    C8    A    
C45   C46   S    
C7    C11   A    
C23   O5    A    
C30   C35   A    
C1    C5    S    
Cu1   O7    S    
C36   C37   A    
C19   C21   A    
C18   C19   A    
C42   C46   S    
C30   C31   A    
C36   H18   S    
C24   H6    S    
C15   C16   A    
C6    C22   A    
C29   C33   A    
C9    H10   S    
C34   O8    A    
C20   C24   A    
C16   H5    S    
C17   H13   S    
Cu1   Cu2   S    
Cu1   O5    S    
C9    C10   A    
C27   H21   S    
C2    C34   S    
C21   C22   A    
C7    H8    S    
C44   C46   S    
C32   H23   S    
C4    C45   S    
C25   C29   A    
C3    C44   S    
C26   N1    A    
C23   O6    A    
C14   C20   A    
C38   C41   A    
C12   C46   S    
C41   N2    A    
C25   C26   A    
Cu2   O6    S    
C4    H2    S    
C45   H26   S    
C34   O7    A    
Cu2   N1    S    
C2    C4    S    
C5    C9    A    
C37   C38   A    
C8    H9    S    
C11   C16   A    
C31   C32   A    
C2    C43   S    
C33   H15   S    
C6    C24   A    
C17   C18   A    
C12   O4    A    
C22   C47   S    
C21   H14   S    
C18   H7    S    
C44   H3    S    
C43   H22   S    
C40   H17   S    
C47   H30   S    
C1    O1    A    
C40   N2    A    
C42   C43   S    
C39   I2    S    
C39   C40   A    
C28   C29   A    
C27   N1    A    
C10   C13   A    
C42   H11   S    
C5    C8    A    
C3    H4    S    
C41   H16   S    
C31   C38   A    
C13   C17   A    
C45   H27   S    
C26   H20   S    
C32   C33   A    
Cu2   O2    S    
C28   C30   A    
C2    C3    S    
C37   C39   A    
C6    C23   S    
C43   I3    S    
Cu2   O4    S    
C12   O3    A    
C44   H24   S    
Cu2   O8    S    
Cu1   O3    S    
C3    H25   S    
C4    H28   S    
C10   C11   A    
C42   H1    S    
C47   H31   S    
C27   C28   A    
C1    O2    A    
C14   C15   A    
C35   C36   A    
Cu1   N2    S    
C13   C14   A    
C35   I1    S    
