data_mof_unit_4266.cif
_audit_creation_date              2012-12-10T16:32:38-0500
_audit_creation_method            fapswitch 2.2
_symmetry_space_group_name_H-M    P1
_symmetry_Int_Tables_number       1
_space_group_crystal_system       triclinic
_cell_length_a                    16.961283
_cell_length_b                    17.007988
_cell_length_c                    16.970817
_cell_angle_alpha                 66.186208
_cell_angle_beta                  65.901092
_cell_angle_gamma                 66.204765
_cell_volume                      3918.08753621

loop_
_atom_site_label
_atom_site_type_symbol
_atom_type_description
_atom_site_fract_x
_atom_site_fract_y
_atom_site_fract_z
_atom_type_partial_charge
C1    C     C_R   0.591877 0.030615 0.592394 0.074689
C2    C     C_R   0.822467 0.566364 0.027411 0.906575
C3    C     C_R   0.436014 0.965727 0.178472 0.899051
C4    C     C_R   0.563974 0.034305 0.821526 0.906904
C5    C     C_R   0.564826 0.822378 0.030521 0.901945
C6    C     C_R   0.432677 0.176302 0.975761 0.915810
C7    C     C_R   0.021939 0.568210 0.824228 0.919115
C8    C     C_R   0.972610 0.433618 0.177520 0.906476
C9    C     C_R   0.821501 0.034126 0.564034 0.899338
C10   C     C_R   0.178498 0.965865 0.435971 0.907115
C11   C     C_R   0.544937 0.014530 0.545176 0.130277
C12   C     C_R   0.408089 0.969517 0.407559 0.074623
C13   C     C_R   0.455022 0.985627 0.454766 0.130502
C14   C     C_R   0.997187 0.550544 0.548904 0.130965
C15   C     C_R   0.957532 0.461171 0.465916 0.131204
C16   C     C_R   0.533896 0.538777 0.042832 0.133105
C17   C     C_R   0.451122 0.449358 0.002983 0.132947
C18   C     C_R   0.553321 0.058902 0.453277 -0.183523
C19   C     C_R   0.446640 0.941256 0.546663 -0.183353
C20   C     C_R   0.034744 0.457619 0.561927 -0.187939
C21   C     C_R   0.919883 0.554164 0.452792 -0.187260
C22   C     C_R   0.478928 0.586275 0.984984 -0.175651
C23   C     C_R   0.013420 0.597232 0.596397 0.079058
C24   C     C_R   0.505905 0.401711 0.061044 -0.177445
C25   C     C_R   0.508850 0.044774 0.408655 -0.185088
C26   C     C_R   0.491109 0.955385 0.591284 -0.185080
C27   C     C_R   0.438179 0.542276 0.965340 -0.189154
C28   C     C_R   0.546941 0.445789 0.080568 -0.188431
C29   C     C_R   0.015202 0.413648 0.521073 -0.174327
C30   C     C_R   0.939307 0.598213 0.493928 -0.176085
C31   C     C_R   0.551269 0.035111 0.681159 -0.249968
C32   C     C_R   0.448700 0.965005 0.318803 -0.250635
C33   C     C_R   0.021112 0.684602 0.555409 -0.264008
C34   C     C_R   0.945072 0.413938 0.416253 0.084349
C35   C     C_R   0.943538 0.324174 0.455174 -0.269398
C36   C     C_R   0.674652 0.547037 0.053207 -0.251182
C37   C     C_R   0.314854 0.442967 0.982507 -0.251309
C38   C     C_R   0.319260 0.965040 0.448418 -0.255112
C39   C     C_R   0.680719 0.035048 0.551550 -0.255832
C40   C     C_R   0.444640 0.315336 0.979007 -0.265435
C41   C     C_R   0.544673 0.675777 0.056752 -0.270472
C42   C     C_R   0.947085 0.452914 0.325211 -0.250270
C43   C     C_R   0.017586 0.556967 0.685182 -0.250527
C44   C     C_R   0.596167 0.051648 0.724503 -0.074284
C45   C     C_R   0.583564 0.586002 0.055299 0.084257
C46   C     C_R   0.403823 0.948411 0.275482 -0.070627
C47   C     C_R   0.016962 0.734152 0.607536 -0.064896
C48   C     C_R   0.964017 0.271334 0.399455 -0.062957
C49   C     C_R   0.727821 0.602364 0.033714 -0.074603
C50   C     C_R   0.265216 0.391197 0.986186 -0.073291
C51   C     C_R   0.275640 0.948354 0.403840 -0.074559
C52   C     C_R   0.724357 0.051681 0.596148 -0.070974
C53   C     C_R   0.392473 0.265819 0.983089 -0.065018
C54   C     C_R   0.600469 0.728634 0.036145 -0.063036
C55   C     C_R   0.966406 0.397604 0.272119 -0.075030
C56   C     C_R   0.403653 0.402686 0.986696 0.078994
C57   C     C_R   0.013884 0.608766 0.734781 -0.073633
C58   C     C_R   0.676303 0.074487 0.676270 0.118545
C59   C     C_R   0.323707 0.925540 0.323722 0.118490
C60   C     C_R   0.996538 0.700667 0.700018 0.108880
C61   C     C_R   0.992578 0.305673 0.307562 0.138858
C62   C     C_R   0.692388 0.694300 0.007522 0.139421
C63   C     C_R   0.299957 0.299295 0.003501 0.109154
C64   C     C_3   0.709165 0.123212 0.708970 -0.832487
C65   C     C_3   0.290892 0.876769 0.291027 -0.832527
C66   C     C_3   0.950759 0.763320 0.760072 -0.817450
C67   C     C_R   0.969550 0.177601 0.435144 0.901472
C68   C     C_3   0.072111 0.249085 0.251947 -0.857952
C69   C     C_3   0.747989 0.750891 0.927916 -0.858827
C70   C     C_3   0.239855 0.236625 0.049205 -0.817555
C71   C     C_R   0.024243 0.823706 0.567322 0.915277
C72   C     C_R   0.175768 0.431785 0.978094 0.919164
H1    H     H_    0.484464 0.918747 0.661612 0.131564
H2    H     H_    0.469451 0.657473 0.952447 0.136612
H3    H     H_    0.875016 0.592888 0.411132 0.130548
H4    H     H_    0.080538 0.418833 0.602599 0.131007
H5    H     H_    0.485411 0.024288 0.716982 0.161693
H6    H     H_    0.514545 0.975858 0.282969 0.161497
H7    H     H_    0.027552 0.714592 0.484141 0.162329
H8    H     H_    0.932804 0.294217 0.527107 0.158663
H9    H     H_    0.705746 0.476226 0.059104 0.158215
H10   H     H_    0.282956 0.512800 0.980914 0.161216
H11   H     H_    0.283051 0.978662 0.513036 0.164386
H12   H     H_    0.515494 0.081411 0.338326 0.130570
H13   H     H_    0.716923 0.021429 0.486929 0.164085
H14   H     H_    0.515927 0.285341 0.972620 0.162070
H15   H     H_    0.472710 0.705731 0.067490 0.158535
H16   H     H_    0.941224 0.523723 0.294094 0.158573
H17   H     H_    0.019190 0.487124 0.717094 0.161426
H18   H     H_    0.651306 0.167709 0.747211 0.228074
H19   H     H_    0.752627 0.074502 0.752479 0.262179
H20   H     H_    0.747511 0.167627 0.651072 0.226378
H21   H     H_    0.348776 0.832265 0.252807 0.226339
H22   H     H_    0.252551 0.832357 0.348928 0.228102
H23   H     H_    0.907636 0.669573 0.483918 0.136338
H24   H     H_    0.247439 0.925448 0.247499 0.262180
H25   H     H_    0.913836 0.732481 0.828015 0.237277
H26   H     H_    0.001320 0.783935 0.767144 0.259106
H27   H     H_    0.898599 0.822516 0.733817 0.236708
H28   H     H_    0.122906 0.286760 0.213767 0.217829
H29   H     H_    0.107759 0.185510 0.293217 0.239516
H30   H     H_    0.050926 0.232914 0.207857 0.258898
H31   H     H_    0.706678 0.814478 0.892318 0.239269
H32   H     H_    0.792216 0.767047 0.948959 0.259252
H33   H     H_    0.786052 0.713213 0.877159 0.217757
H34   H     H_    0.047676 0.342443 0.530636 0.138745
H35   H     H_    0.171869 0.267416 0.086105 0.237254
H36   H     H_    0.232805 0.216056 0.998629 0.259514
H37   H     H_    0.266102 0.177398 0.101338 0.236491
H38   H     H_    0.588474 0.407097 0.125563 0.128537
H39   H     H_    0.397646 0.581030 0.919415 0.129353
H40   H     H_    0.406723 0.894373 0.583796 0.133671
H41   H     H_    0.593242 0.105782 0.416144 0.133254
H42   H     H_    0.515830 0.330355 0.092775 0.133343
O1    O     O_R   0.982940 0.138950 0.510160 -0.640235
O2    O     O_R   0.982940 0.510160 0.138950 -0.638054
O3    O     O_R   0.861050 0.017060 0.489840 -0.639849
O4    O     O_R   0.138950 0.982940 0.510160 -0.636793
O5    O     O_R   0.867700 0.025880 0.612340 -0.628506
O6    O     O_R   0.132300 0.974120 0.387660 -0.624552
O7    O     O_R   0.025880 0.612340 0.867700 -0.629300
O8    O     O_R   0.974120 0.387660 0.132300 -0.629895
O9    O     O_R   0.612340 0.867700 0.025880 -0.617597
O10   O     O_R   0.387660 0.132300 0.974120 -0.629019
O11   O     O_R   0.387660 0.974120 0.132300 -0.628490
O12   O     O_R   0.017060 0.861050 0.489840 -0.644004
O13   O     O_R   0.612340 0.025880 0.867700 -0.624485
O14   O     O_R   0.132300 0.387660 0.974120 -0.628964
O15   O     O_R   0.867700 0.612340 0.025880 -0.629485
O16   O     O_R   0.974120 0.132300 0.387660 -0.618412
O17   O     O_R   0.025880 0.867700 0.612340 -0.629704
O18   O     O_R   0.138950 0.510160 0.982940 -0.639209
O19   O     O_R   0.861050 0.489840 0.017060 -0.638362
O20   O     O_R   0.510160 0.982940 0.138950 -0.640737
O21   O     O_R   0.489840 0.017060 0.861050 -0.637665
O22   O     O_R   0.489840 0.861050 0.017060 -0.641354
O23   O     O_R   0.510160 0.138950 0.982940 -0.644974
O24   O     O_R   0.017060 0.489840 0.861050 -0.638830
Zn1   Zn    Zn3+2 0.004880 0.004880 0.583590 0.926835
Zn2   Zn    Zn3+2 0.995120 0.995120 0.416410 0.933846
Zn3   Zn    Zn3+2 0.004880 0.583590 0.004880 0.930551
Zn4   Zn    Zn3+2 0.995120 0.416410 0.995120 0.930537
Zn5   Zn    Zn3+2 0.583590 0.004880 0.004880 0.933082
Zn6   Zn    Zn3+2 0.416410 0.995120 0.995120 0.925902

loop_
_geom_bond_atom_site_label_1
_geom_bond_atom_site_label_2
_ccdc_geom_bond_type
C16   C28   A    
C5    O22   A    
C11   C18   A    
C24   H42   S    
C46   C59   A    
C9    O3    A    
C34   C42   A    
C64   H18   S    
O16   Zn2   S    
C26   H1    S    
C19   H40   S    
C18   C25   A    
O12   Zn2   S    
O19   Zn4   S    
C43   H17   S    
C8    O2    A    
C72   O14   A    
C66   H25   S    
C2    C49   S    
C14   C30   A    
C70   H35   S    
C38   H11   S    
O15   Zn3   S    
C35   C48   A    
O11   Zn6   S    
C35   H8    S    
C1    C31   A    
C2    O15   A    
C23   C43   A    
C20   H4    S    
C34   C35   A    
C40   H14   S    
C19   C26   A    
C50   C72   S    
C67   O1    A    
O20   Zn5   S    
C37   C56   A    
C65   H24   S    
C44   C58   A    
C40   C56   A    
C1    C11   S    
C25   H12   S    
C71   O12   A    
C31   H5    S    
O6    Zn2   S    
C6    O10   A    
C15   C34   S    
C65   H21   S    
C39   C52   A    
O23   Zn5   S    
C60   C66   S    
C12   C32   A    
C50   C63   A    
C13   C25   A    
C9    C52   S    
C7    O7    A    
C10   C51   S    
C18   H41   S    
C14   C23   S    
C15   C29   A    
C20   C29   A    
C69   H31   S    
C58   C64   S    
C41   H15   S    
C2    O19   A    
C31   C44   A    
C13   C19   A    
C17   C24   A    
O7    Zn3   S    
C5    C54   S    
C22   H2    S    
C10   O6    A    
C68   H29   S    
C23   C33   A    
O24   Zn4   S    
C69   H33   S    
C33   H7    S    
C57   C60   A    
C38   C51   A    
C4    C44   S    
C11   C26   A    
C28   H38   S    
C32   H6    S    
C62   C69   S    
C17   C27   A    
C66   H27   S    
C68   H28   S    
C30   H23   S    
C10   O4    A    
C70   H37   S    
C14   C20   A    
C42   C55   A    
C39   H13   S    
C1    C39   A    
C63   C70   S    
C36   H9    S    
C36   C45   A    
O13   Zn5   S    
C17   C56   S    
C47   C71   S    
C52   C58   A    
C4    O21   A    
C8    C55   S    
O21   Zn6   S    
O1    Zn1   S    
C22   C27   A    
C9    O5    A    
C37   H10   S    
O3    Zn2   S    
C42   H16   S    
O8    Zn4   S    
C6    C53   S    
O4    Zn1   S    
C47   C60   A    
C69   H32   S    
O18   Zn3   S    
C5    O9    A    
C65   H22   S    
C16   C22   A    
C49   C62   A    
C4    O13   A    
C32   C46   A    
C24   C28   A    
C68   H30   S    
C16   C45   S    
C7    O24   A    
C3    O11   A    
C54   C62   A    
C21   C30   A    
C21   H3    S    
C3    C46   S    
C64   H19   S    
C3    O20   A    
O5    Zn1   S    
C66   H26   S    
C6    O23   A    
O22   Zn6   S    
C70   H36   S    
C59   C65   S    
C72   O18   A    
C37   C50   A    
C53   C63   A    
C61   C68   S    
C8    O8    A    
C48   C61   A    
C33   C47   A    
C55   C61   A    
C48   C67   S    
C12   C38   A    
C29   H34   S    
C41   C54   A    
O17   Zn1   S    
C43   C57   A    
C27   H39   S    
O2    Zn3   S    
C67   O16   A    
C15   C21   A    
C51   C59   A    
C12   C13   S    
C71   O17   A    
C40   C53   A    
O9    Zn5   S    
C41   C45   A    
O10   Zn6   S    
C64   H20   S    
O14   Zn4   S    
C7    C57   S    
C36   C49   A    
