data_mof_unit_1178.cif
_audit_creation_date              2012-10-26T20:57:29-0400
_audit_creation_method            fapswitch 2.2
_symmetry_space_group_name_H-M    P1
_symmetry_Int_Tables_number       1
_space_group_crystal_system       triclinic
_cell_length_a                    14.794134
_cell_length_b                    14.784106
_cell_length_c                    15.869536
_cell_angle_alpha                 75.632304
_cell_angle_beta                  103.057307
_cell_angle_gamma                 115.305019
_cell_volume                      3011.15175227

loop_
_atom_site_label
_atom_site_type_symbol
_atom_type_description
_atom_site_fract_x
_atom_site_fract_y
_atom_site_fract_z
_atom_type_partial_charge
C1    C     C_R   0.880312 0.312337 0.515320 0.539144
C2    C     C_R   0.359951 0.924049 0.481480 -0.009158
C3    C     C_R   0.675164 0.001726 0.559141 -0.018358
C4    C     C_R   0.322674 0.999044 0.435560 -0.019147
C5    C     C_R   0.533749 0.050869 0.481977 -0.043951
C6    C     C_R   0.464796 0.951807 0.513199 -0.046945
C7    C     C_R   0.502902 0.884539 0.577150 0.235845
C8    C     C_R   0.494958 0.119132 0.420064 0.235445
C9    C     C_R   0.606167 0.904420 0.590267 -0.001426
C10   C     C_R   0.391065 0.097258 0.405899 -0.001669
C11   C     C_R   0.735533 0.691759 0.381946 -0.166011
C12   C     C_R   0.119633 0.687696 0.483992 0.539725
C13   C     C_R   0.264395 0.308134 0.617782 -0.165896
C14   C     C_R   0.809754 0.654326 0.395700 0.041220
C15   C     C_R   0.190034 0.345416 0.603826 0.041665
C16   C     C_R   0.000293 0.499858 0.660021 0.551184
C17   C     C_R   0.999114 0.499101 0.340131 0.550279
C18   C     C_R   0.708182 0.500806 0.478259 0.049656
C19   C     C_R   0.292232 0.499621 0.522486 0.049595
C20   C     C_R   0.631433 0.537055 0.471906 -0.003823
C21   C     C_R   0.369006 0.463420 0.528785 -0.003919
C22   C     C_R   0.646470 0.633493 0.419312 0.016569
C23   C     C_R   0.780442 0.027621 0.579333 -0.144001
C24   C     C_R   0.353768 0.366763 0.580979 0.016569
C25   C     C_R   0.540112 0.481369 0.512323 0.009080
C26   C     C_R   0.460427 0.519249 0.488515 0.009045
C27   C     C_R   0.476431 0.611350 0.425901 -0.013810
C28   C     C_R   0.523972 0.389169 0.574804 -0.013442
C29   C     C_R   0.570629 0.669561 0.398729 -0.131723
C30   C     C_R   0.429649 0.330764 0.601648 -0.130662
C31   C     C_3   0.013887 0.413352 0.049153 -0.012801
C32   C     C_3   0.982935 0.577620 0.952626 -0.011111
C33   C     C_3   0.927499 0.412830 0.973885 0.277589
C34   C     C_R   0.217240 0.971976 0.415378 -0.144166
C35   C     C_3   0.069243 0.578009 0.027794 0.286044
C36   C     C_1   0.001996 0.499572 0.750035 -0.048779
C37   C     C_1   0.995734 0.496035 0.250631 -0.046844
C38   C     C_3   0.090448 0.501300 0.992276 -0.154790
C39   C     C_3   0.906227 0.489509 0.009383 -0.160529
C40   C     C_3   0.002563 0.500068 0.917184 0.005489
C41   C     C_3   0.994129 0.490909 0.084481 0.003626
C42   C     C_1   0.003459 0.499415 0.825895 -0.067373
C43   C     C_1   0.993502 0.493449 0.175306 -0.066480
C44   C     C_R   0.812129 0.204581 0.526409 -0.015485
C45   C     C_R   0.848232 0.127927 0.560954 -0.144123
C46   C     C_R   0.187313 0.795605 0.470755 -0.014656
C47   C     C_3   0.782857 0.268391 0.997869 0.006753
C48   C     C_3   0.722678 0.162716 0.973685 -0.255082
C49   C     C_3   0.643098 0.096753 0.034355 -0.493670
C50   C     C_3   0.216321 0.722523 0.004941 0.007084
C51   C     C_3   0.315840 0.713115 0.049713 -0.265625
C52   C     C_3   0.396778 0.763888 0.988794 -0.496716
C53   C     C_R   0.395401 0.642140 0.372245 0.007247
C54   C     C_R   0.397158 0.738635 0.369755 -0.119191
C55   C     C_R   0.323258 0.768880 0.314393 -0.131845
C56   C     C_R   0.150291 0.871487 0.435002 -0.144825
C57   C     C_R   0.248170 0.703645 0.260859 -0.086388
C58   C     C_R   0.248569 0.609233 0.260988 -0.091300
C59   C     C_R   0.321536 0.578538 0.316547 -0.105629
C60   C     C_R   0.604734 0.358056 0.628497 0.007105
C61   C     C_R   0.676896 0.419875 0.686393 -0.101999
C62   C     C_R   0.748835 0.388015 0.742572 -0.081059
C63   C     C_R   0.750385 0.294714 0.740511 -0.086069
C64   C     C_R   0.677127 0.231359 0.684568 -0.134153
C65   C     C_R   0.603826 0.262390 0.629076 -0.118059
C66   C     C_R   0.028479 0.317319 0.095753 0.035189
C67   C     C_R   0.708308 0.178902 0.504971 -0.117173
C68   C     C_R   0.058340 0.267053 0.049826 -0.081548
C69   C     C_R   0.069788 0.176421 0.090386 -0.123393
C70   C     C_R   0.051028 0.134861 0.176992 -0.097453
C71   C     C_R   0.020418 0.183721 0.222989 -0.112743
C72   C     C_R   0.008893 0.274389 0.182652 -0.117731
C73   C     C_R   0.968443 0.673931 0.906776 0.037381
C74   C     C_R   0.939286 0.723906 0.953616 -0.080923
C75   C     C_R   0.926847 0.814187 0.913600 -0.123130
C76   C     C_R   0.944021 0.855783 0.826644 -0.098679
C77   C     C_R   0.973849 0.807208 0.779706 -0.113583
C78   C     C_R   0.291298 0.822312 0.491177 -0.112661
C79   C     C_R   0.986176 0.716800 0.819454 -0.114997
C80   C     C_R   0.641458 0.824605 0.642544 0.070279
C81   C     C_R   0.645000 0.801531 0.734239 -0.065784
C82   C     C_R   0.681768 0.728645 0.783110 -0.107677
C83   C     C_R   0.716555 0.679641 0.740942 -0.095927
C84   C     C_R   0.714235 0.703129 0.649726 -0.117451
C85   C     C_R   0.676214 0.774895 0.600562 -0.098913
C86   C     C_R   0.354574 0.176917 0.355611 0.071752
C87   C     C_R   0.320839 0.225435 0.399779 -0.095179
C88   C     C_R   0.280831 0.296365 0.352550 -0.118006
C89   C     C_R   0.638746 0.077590 0.513323 -0.008248
C90   C     C_R   0.275711 0.320379 0.261100 -0.096579
C91   C     C_R   0.309436 0.272527 0.216769 -0.106514
C92   C     C_R   0.347755 0.200133 0.263684 -0.071665
C93   C     C_3   0.401532 0.823358 0.686019 0.003060
C94   C     C_3   0.313917 0.728785 0.721656 -0.244536
C95   C     C_3   0.244032 0.756536 0.758254 -0.495476
C96   C     C_3   0.593204 0.191638 0.309030 0.000961
C97   C     C_3   0.670524 0.292240 0.268517 -0.241742
C98   C     C_3   0.714498 0.278366 0.196833 -0.504328
Cu1   Cu    Cu3+1 0.081740 0.475690 0.522610 0.929355
Cu2   Cu    Cu3+1 0.918260 0.524310 0.477390 0.928382
H1    H     H_    0.300400 0.575398 0.492423 0.151192
H2    H     H_    0.682326 0.239651 0.487014 0.193809
H3    H     H_    0.069945 0.852753 0.418043 0.117560
H4    H     H_    0.928422 0.145911 0.578353 0.117518
H5    H     H_    0.811392 0.971572 0.612193 0.116271
H6    H     H_    0.185526 0.027372 0.382249 0.116944
H7    H     H_    0.581933 0.740637 0.353253 0.106389
H8    H     H_    0.418214 0.259482 0.646850 0.106821
H9    H     H_    0.730420 0.306718 0.990418 0.130759
H10   H     H_    0.818003 0.259367 0.067651 0.142672
H11   H     H_    0.684573 0.169645 0.904953 0.168296
H12   H     H_    0.700388 0.425318 0.508890 0.151963
H13   H     H_    0.775061 0.125125 0.978422 0.171970
H14   H     H_    0.679342 0.087720 0.103576 0.146588
H15   H     H_    0.601586 0.020427 0.015416 0.141833
H16   H     H_    0.588206 0.131525 0.028809 0.140708
H17   H     H_    0.227431 0.803539 0.994243 0.148707
H18   H     H_    0.195623 0.701131 0.938566 0.125912
H19   H     H_    0.343332 0.749692 0.108954 0.176019
H20   H     H_    0.303490 0.631678 0.070826 0.163373
H21   H     H_    0.374802 0.723224 0.932546 0.148440
H22   H     H_    0.469264 0.761040 0.025274 0.145822
H23   H     H_    0.119999 0.298960 0.630371 0.124018
H24   H     H_    0.408011 0.844635 0.964032 0.138653
H25   H     H_    0.455551 0.789988 0.410587 0.115329
H26   H     H_    0.324541 0.843086 0.312519 0.116256
H27   H     H_    0.191136 0.727199 0.217985 0.154051
H28   H     H_    0.194024 0.560282 0.216855 0.147997
H29   H     H_    0.322295 0.506445 0.314844 0.106663
H30   H     H_    0.675453 0.491293 0.689480 0.105157
H31   H     H_    0.802150 0.435488 0.788351 0.147805
H32   H     H_    0.807128 0.270613 0.783243 0.152560
H33   H     H_    0.676736 0.157949 0.684732 0.114284
H34   H     H_    0.879570 0.700490 0.368719 0.123603
H35   H     H_    0.546591 0.212344 0.586591 0.117634
H36   H     H_    0.072478 0.297953 0.982435 0.116859
H37   H     H_    0.093257 0.138424 0.054660 0.098816
H38   H     H_    0.060268 0.064896 0.208465 0.102270
H39   H     H_    0.005434 0.151227 0.289964 0.105180
H40   H     H_    0.983048 0.308985 0.219289 0.108734
H41   H     H_    0.926255 0.692927 0.021258 0.117662
H42   H     H_    0.903866 0.851894 0.950029 0.098607
H43   H     H_    0.934043 0.925486 0.795593 0.103150
H44   H     H_    0.987391 0.839602 0.712383 0.105238
H45   H     H_    0.747705 0.766013 0.342088 0.084313
H46   H     H_    0.010623 0.682157 0.781771 0.108417
H47   H     H_    0.620992 0.841009 0.767910 0.093419
H48   H     H_    0.684784 0.711275 0.853824 0.102970
H49   H     H_    0.746700 0.624643 0.779215 0.113151
H50   H     H_    0.742785 0.666581 0.617117 0.117999
H51   H     H_    0.675779 0.793506 0.530113 0.107439
H52   H     H_    0.323431 0.206390 0.470440 0.107123
H53   H     H_    0.252913 0.331857 0.386847 0.118688
H54   H     H_    0.244132 0.374806 0.224327 0.111161
H55   H     H_    0.304095 0.290160 0.145888 0.104008
H56   H     H_    0.252057 0.233687 0.657303 0.084327
H57   H     H_    0.370070 0.160952 0.228276 0.088728
H58   H     H_    0.373511 0.884498 0.654846 0.139862
H59   H     H_    0.460714 0.850576 0.741715 0.117642
H60   H     H_    0.268686 0.684546 0.668383 0.205797
H61   H     H_    0.344415 0.679496 0.773968 0.153018
H62   H     H_    0.287437 0.806612 0.807745 0.137351
H63   H     H_    0.186553 0.686203 0.789506 0.142604
H64   H     H_    0.204597 0.796292 0.704412 0.151335
H65   H     H_    0.530386 0.160196 0.257026 0.123095
H66   H     H_    0.630676 0.137230 0.335626 0.136576
H67   H     H_    0.831022 0.483671 0.016895 0.087306
H68   H     H_    0.633810 0.346918 0.240016 0.176529
H69   H     H_    0.732919 0.324621 0.320499 0.191502
H70   H     H_    0.753397 0.225478 0.224179 0.142033
H71   H     H_    0.770120 0.352809 0.168997 0.146424
H72   H     H_    0.653631 0.248006 0.143309 0.137711
H73   H     H_    0.165499 0.507098 0.984383 0.093262
H74   H     H_    0.318335 0.762161 0.510700 0.189341
N1    N     N_R   0.795440 0.560790 0.443380 -0.238781
N2    N     N_R   0.204560 0.439210 0.556620 -0.238414
O1    O     O_R   0.977900 0.338120 0.529810 -0.511988
O2    O     O_3   0.141105 0.665946 0.060619 -0.587731
O3    O     O_3   0.441217 0.797336 0.626562 -0.585595
O4    O     O_3   0.556562 0.210219 0.375183 -0.588040
O5    O     O_R   0.022100 0.661880 0.470190 -0.511316
O6    O     O_R   0.839850 0.379180 0.491620 -0.516191
O7    O     O_R   0.160150 0.620820 0.508380 -0.516591
O8    O     O_R   0.069010 0.479460 0.640020 -0.496247
O9    O     O_R   0.930990 0.520540 0.359980 -0.497928
O10   O     O_R   0.930960 0.520530 0.601820 -0.487602
O11   O     O_R   0.069040 0.479470 0.398180 -0.487413
O12   O     O_3   0.856200 0.324980 0.940834 -0.586977

loop_
_geom_bond_atom_site_label_1
_geom_bond_atom_site_label_2
_ccdc_geom_bond_type
C19   C21   A    
C31   C66   S    
C66   C68   A    
C87   C88   A    
C88   H53   S    
C34   C56   A    
C93   C94   S    
C23   C45   A    
C22   C29   A    
C27   C29   A    
C50   H17   S    
C52   H24   S    
C73   C74   A    
C36   C42   T    
C21   C26   A    
Cu1   O11   S    
C97   C98   S    
C53   C59   A    
C39   C41   S    
C53   C54   A    
C25   C28   A    
C58   H28   S    
C26   C27   A    
C80   C85   A    
C15   H23   S    
C15   N2    A    
C2    C78   A    
C50   O2    S    
C18   H12   S    
Cu1   O1    S    
C5    C6    A    
C11   C14   A    
C12   O7    A    
C20   C25   A    
C23   H5    S    
C67   C89   A    
C97   H69   S    
C32   C39   S    
C93   H59   S    
C19   N2    A    
C64   H33   S    
C3    C23   A    
C66   C72   A    
Cu1   N2    S    
C12   O5    A    
C17   O9    A    
C68   C69   A    
C81   H47   S    
C47   C48   S    
C51   H19   S    
C31   C33   S    
C70   C71   A    
C90   H54   S    
Cu2   O6    S    
Cu1   O7    S    
C61   C62   A    
C90   C91   A    
C98   H72   S    
C18   N1    A    
C35   O2    S    
C40   C42   S    
C49   H14   S    
C41   C43   S    
C2    C6    A    
C1    O1    A    
C51   H20   S    
C81   C82   A    
C79   H46   S    
C28   C60   S    
C69   H37   S    
C54   H25   S    
C4    C34   A    
C33   C40   S    
C74   C75   A    
C51   C52   S    
C34   H6    S    
C32   C35   S    
C68   H36   S    
C35   C38   S    
C76   C77   A    
C12   C46   S    
C95   H62   S    
C32   C73   S    
C46   C78   A    
C86   C87   A    
C11   H45   S    
C38   H73   S    
C71   H39   S    
C14   H34   S    
C58   C59   A    
C47   H9    S    
C96   O4    S    
C13   C24   A    
C60   C61   A    
C9    C80   S    
C37   C43   T    
C2    C4    A    
C75   C76   A    
C85   H51   S    
C13   H56   S    
C91   H55   S    
C62   C63   A    
C3    C9    A    
C45   H4    S    
C95   H63   S    
C52   H21   S    
C8    O4    S    
C1    C44   S    
C82   H48   S    
C83   C84   A    
C55   H26   S    
C96   C97   S    
C49   H16   S    
Cu2   N1    S    
C16   O8    A    
C50   C51   S    
C73   C79   A    
C77   C79   A    
C7    O3    S    
C94   C95   S    
C33   C39   S    
C63   H32   S    
C84   C85   A    
Cu2   O5    S    
C94   H61   S    
Cu1   O8    S    
C65   H35   S    
C61   H30   S    
C98   H71   S    
C48   C49   S    
C49   H15   S    
C74   H41   S    
C88   C90   A    
C60   C65   A    
C70   H38   S    
C87   H52   S    
C55   C57   A    
C13   C15   A    
C96   H66   S    
C17   C37   S    
C4    C10   A    
C93   H58   S    
C97   H68   S    
C91   C92   A    
C44   C45   A    
C7    C9    A    
C14   N1    A    
C54   C55   A    
C10   C86   S    
C94   H60   S    
C31   C41   S    
C30   H8    S    
C50   H18   S    
C62   H31   S    
C29   H7    S    
C56   H3    S    
C20   C22   A    
C80   C81   A    
C57   H27   S    
C5    C8    A    
C52   H22   S    
C1    O6    A    
C27   C53   S    
C31   C38   S    
C6    C7    A    
C47   H10   S    
C93   O3    S    
C11   C22   A    
Cu1   Cu2   S    
Cu2   O10   S    
C3    C89   A    
C64   C65   A    
C59   H29   S    
Cu2   O9    S    
C25   C26   A    
C77   H44   S    
C71   C72   A    
C86   C92   A    
C95   H64   S    
C16   C36   S    
C75   H42   S    
C38   C40   S    
C19   H1    S    
C57   C58   A    
C17   O11   A    
C28   C30   A    
C33   O12   S    
C18   C20   A    
C32   C40   S    
C39   H67   S    
C69   C70   A    
C35   C41   S    
C24   C30   A    
C63   C64   A    
C98   H70   S    
C76   H43   S    
C72   H40   S    
C48   H11   S    
C8    C10   A    
C82   C83   A    
C21   C24   A    
C46   C56   A    
C78   H74   S    
C96   H65   S    
C92   H57   S    
C44   C67   A    
C16   O10   A    
C47   O12   S    
C5    C89   A    
C67   H2    S    
C48   H13   S    
C83   H49   S    
C84   H50   S    
