data_mof_unit_3432.cif
_audit_creation_date              2013-03-05T15:39:27-0500
_audit_creation_method            fapswitch 2.2
_symmetry_space_group_name_H-M    P1
_symmetry_Int_Tables_number       1
_space_group_crystal_system       triclinic
_cell_length_a                    17.649556
_cell_length_b                    17.649468
_cell_length_c                    17.63567
_cell_angle_alpha                 89.872733
_cell_angle_beta                  89.869695
_cell_angle_gamma                 90.000548
_cell_volume                      5493.57645271

loop_
_atom_site_label
_atom_site_type_symbol
_atom_site_description
_atom_site_fract_x
_atom_site_fract_y
_atom_site_fract_z
_atom_type_partial_charge
C1    C     C_R   0.683276 0.780177 0.219020 -0.147541
C2    C     C_R   0.316883 0.218859 0.779906 -0.148291
C3    C     C_R   0.219626 0.683104 0.218865 -0.149208
C4    C     C_R   0.778734 0.318669 0.778619 -0.155138
C5    C     C_R   0.318950 0.221596 0.221574 -0.148976
C6    C     C_R   0.681065 0.778082 0.779246 -0.142086
C7    C     C_R   0.780839 0.316996 0.220491 -0.150676
C8    C     C_R   0.222206 0.680991 0.779097 -0.139932
C9    C     C_R   0.680884 0.221257 0.777922 -0.138317
C10   C     C_R   0.319779 0.777075 0.222223 -0.107069
C11   C     C_R   0.218790 0.316911 0.779595 -0.152576
C12   C     C_R   0.777651 0.680400 0.222317 -0.109494
C13   C     C_R   0.319165 0.780571 0.780554 -0.158344
C14   C     C_R   0.682994 0.218639 0.219956 -0.148170
C15   C     C_R   0.780220 0.680585 0.780443 -0.159001
C16   C     C_R   0.221101 0.319043 0.221791 -0.141975
C17   C     C_R   0.222380 0.221912 0.680316 -0.112527
C18   C     C_R   0.781340 0.779906 0.317021 -0.153235
C19   C     C_R   0.220125 0.780933 0.317107 -0.155142
C20   C     C_R   0.780448 0.219745 0.680635 -0.156487
C21   C     C_R   0.777098 0.221808 0.319898 -0.112510
C22   C     C_R   0.221650 0.778478 0.681145 -0.153018
C23   C     C_R   0.778081 0.778146 0.680791 -0.151558
C24   C     C_R   0.219796 0.219930 0.319621 -0.156099
C25   C     C_R   0.633674 0.829229 0.827540 0.094217
C26   C     C_R   0.366225 0.172903 0.170445 0.089485
C27   C     C_R   0.171010 0.633523 0.827405 0.092587
C28   C     C_R   0.830519 0.366250 0.173131 0.095647
C29   C     C_R   0.366107 0.169484 0.827286 0.094003
C30   C     C_R   0.634032 0.827434 0.169544 0.095105
C31   C     C_R   0.827216 0.366057 0.829701 0.093551
C32   C     C_R   0.172349 0.634015 0.169444 0.094783
C33   C     C_R   0.633931 0.169302 0.172550 0.090933
C34   C     C_R   0.372697 0.827108 0.826981 0.092727
C35   C     C_R   0.172613 0.366354 0.170683 0.091245
C36   C     C_R   0.826883 0.626980 0.826862 0.088079
C37   C     C_R   0.360909 0.829635 0.169998 0.066104
C38   C     C_R   0.633488 0.172743 0.829075 0.088314
C39   C     C_R   0.829906 0.639125 0.170042 0.065583
C40   C     C_R   0.169317 0.366167 0.826981 0.095001
C41   C     C_R   0.826953 0.173280 0.626926 0.093471
C42   C     C_R   0.172899 0.830554 0.366322 0.093292
C43   C     C_R   0.830744 0.827183 0.366247 0.090118
C44   C     C_R   0.170133 0.169782 0.639058 0.069821
C45   C     C_R   0.173322 0.173382 0.373449 0.092221
C46   C     C_R   0.826828 0.829449 0.633571 0.091684
C47   C     C_R   0.170400 0.827018 0.633807 0.091603
C48   C     C_R   0.829615 0.169747 0.361024 0.067601
C49   C     C_R   0.708225 0.708355 0.194653 0.218594
C50   C     C_R   0.281421 0.281548 0.813975 0.314994
C51   C     C_R   0.291578 0.707843 0.194371 0.214664
C52   C     C_R   0.707204 0.292272 0.803477 0.224295
C53   C     C_R   0.292311 0.292846 0.196289 0.219168
C54   C     C_R   0.714185 0.713018 0.811946 0.302211
C55   C     C_R   0.718425 0.281514 0.185911 0.314696
C56   C     C_R   0.287111 0.714173 0.811734 0.302331
C57   C     C_R   0.197035 0.706928 0.707758 0.216945
C58   C     C_R   0.804761 0.291553 0.292492 0.220940
C59   C     C_R   0.194558 0.291512 0.707772 0.221292
C60   C     C_R   0.805515 0.707984 0.291797 0.224727
C61   C     C_R   0.188646 0.286173 0.287268 0.303236
C62   C     C_R   0.810840 0.712804 0.713702 0.303661
C63   C     C_R   0.185440 0.718627 0.281535 0.315591
C64   C     C_R   0.811655 0.285692 0.713402 0.305558
C65   C     C_R   0.713835 0.188896 0.712596 0.301066
C66   C     C_R   0.292228 0.804785 0.291849 0.223623
C67   C     C_R   0.707865 0.193878 0.291759 0.226034
C68   C     C_R   0.286652 0.811528 0.714225 0.304330
C69   C     C_R   0.286126 0.188985 0.287121 0.304014
C70   C     C_R   0.706843 0.803213 0.707711 0.219527
C71   C     C_R   0.291834 0.194212 0.708223 0.222020
C72   C     C_R   0.718812 0.814384 0.281538 0.315177
C73   C     C_R   0.606736 0.815413 0.900324 -0.034258
C74   C     C_R   0.382041 0.183338 0.094240 -0.099188
C75   C     C_R   0.184655 0.606660 0.900159 -0.034555
C76   C     C_R   0.815802 0.393991 0.100732 -0.011695
C77   C     C_R   0.393591 0.184191 0.899634 -0.011281
C78   C     C_R   0.618245 0.816833 0.093758 -0.094481
C79   C     C_R   0.816728 0.381905 0.905868 -0.096962
C80   C     C_R   0.183176 0.618119 0.093663 -0.094079
C81   C     C_R   0.606496 0.184138 0.100137 -0.010324
C82   C     C_R   0.393681 0.814931 0.901499 -0.048320
C83   C     C_R   0.183485 0.382439 0.094580 -0.081531
C84   C     C_R   0.814859 0.606097 0.901472 -0.034321
C85   C     C_R   0.382270 0.816826 0.095277 -0.066779
C86   C     C_R   0.617474 0.183539 0.905156 -0.098323
C87   C     C_R   0.816871 0.617723 0.095385 -0.083826
C88   C     C_R   0.184141 0.393825 0.899321 -0.023317
C89   C     C_R   0.901494 0.606379 0.814790 -0.048143
C90   C     C_R   0.099882 0.393289 0.184622 -0.037019
C91   C     C_R   0.901558 0.185165 0.606237 -0.034645
C92   C     C_R   0.100523 0.815815 0.394033 -0.012643
C93   C     C_R   0.906439 0.381511 0.183236 -0.094597
C94   C     C_R   0.095024 0.617469 0.816365 -0.090093
C95   C     C_R   0.906574 0.816877 0.381744 -0.099644
C96   C     C_R   0.095542 0.183126 0.617479 -0.082484
C97   C     C_R   0.099941 0.606545 0.184198 -0.022344
C98   C     C_R   0.899880 0.393409 0.815510 -0.034427
C99   C     C_R   0.098677 0.185239 0.394017 -0.034582
C100  C     C_R   0.899548 0.815431 0.606307 -0.020531
C101  C     C_R   0.093468 0.381639 0.816828 -0.090429
C102  C     C_R   0.904521 0.617561 0.183201 -0.057640
C103  C     C_R   0.094199 0.816724 0.618281 -0.106289
C104  C     C_R   0.904233 0.183216 0.382534 -0.083501
C105  C     C_R   0.816639 0.905680 0.618117 -0.106605
C106  C     C_R   0.185236 0.098749 0.393967 -0.040931
C107  C     C_R   0.606459 0.899749 0.184230 -0.012040
C108  C     C_R   0.381870 0.093742 0.816776 -0.108325
C109  C     C_R   0.183173 0.906445 0.381574 -0.107542
C110  C     C_R   0.814849 0.098773 0.606140 -0.040648
C111  C     C_R   0.393553 0.901628 0.814861 -0.037483
C112  C     C_R   0.618050 0.093546 0.183225 -0.101793
C113  C     C_R   0.183101 0.095123 0.617701 -0.081604
C114  C     C_R   0.815883 0.899522 0.393869 -0.009306
C115  C     C_R   0.393416 0.100174 0.184561 -0.017523
C116  C     C_R   0.617535 0.905243 0.816410 -0.105132
C117  C     C_R   0.816850 0.095031 0.382333 -0.073081
C118  C     C_R   0.184487 0.899700 0.606379 -0.016080
C119  C     C_R   0.606638 0.100026 0.815307 -0.018584
C120  C     C_R   0.382423 0.904283 0.183287 -0.083040
H1    H     H_    0.586607 0.762285 0.922541 0.182261
H2    H     H_    0.375155 0.233642 0.060862 0.203879
H3    H     H_    0.237715 0.586393 0.922177 0.182785
H4    H     H_    0.762442 0.413288 0.078561 0.182676
H5    H     H_    0.412466 0.237582 0.921985 0.183444
H6    H     H_    0.625945 0.766831 0.060251 0.202673
H7    H     H_    0.766527 0.374769 0.939357 0.204941
H8    H     H_    0.233410 0.625498 0.060187 0.202434
H9    H     H_    0.587751 0.237571 0.077546 0.183121
H10   H     H_    0.413255 0.762264 0.925233 0.185043
H11   H     H_    0.234589 0.376650 0.062002 0.200229
H12   H     H_    0.762251 0.586441 0.925381 0.186770
H13   H     H_    0.380872 0.764333 0.064820 0.193769
H14   H     H_    0.623191 0.234691 0.937477 0.200774
H15   H     H_    0.764243 0.619127 0.065124 0.195346
H16   H     H_    0.237545 0.412953 0.921439 0.180630
H17   H     H_    0.925211 0.586784 0.762113 0.185287
H18   H     H_    0.078027 0.413648 0.237784 0.183432
H19   H     H_    0.925623 0.237803 0.586904 0.186756
H20   H     H_    0.078177 0.762427 0.413289 0.183335
H21   H     H_    0.940566 0.372703 0.232598 0.203716
H22   H     H_    0.063083 0.623148 0.764874 0.197680
H23   H     H_    0.940622 0.767346 0.373557 0.205778
H24   H     H_    0.065605 0.236071 0.618510 0.193020
H25   H     H_    0.077135 0.587862 0.237654 0.180991
H26   H     H_    0.921749 0.413596 0.762194 0.182441
H27   H     H_    0.074997 0.237733 0.413996 0.186524
H28   H     H_    0.921035 0.762339 0.585528 0.185756
H29   H     H_    0.059402 0.373240 0.767390 0.203527
H30   H     H_    0.934581 0.618649 0.236051 0.192642
H31   H     H_    0.060543 0.766834 0.626154 0.205515
H32   H     H_    0.933948 0.236325 0.381532 0.193023
H33   H     H_    0.766641 0.939191 0.625746 0.203936
H34   H     H_    0.237806 0.075151 0.413829 0.188050
H35   H     H_    0.587608 0.922201 0.237677 0.183112
H36   H     H_    0.374265 0.060293 0.766733 0.202528
H37   H     H_    0.232642 0.940495 0.372806 0.204559
H38   H     H_    0.762255 0.075419 0.586175 0.187880
H39   H     H_    0.412731 0.925584 0.762057 0.188064
H40   H     H_    0.625299 0.059978 0.233404 0.203747
H41   H     H_    0.235609 0.064577 0.619159 0.196356
H42   H     H_    0.762454 0.921866 0.412907 0.182946
H43   H     H_    0.413878 0.078469 0.237747 0.185025
H44   H     H_    0.623192 0.937445 0.764948 0.200642
H45   H     H_    0.764448 0.064327 0.380964 0.195248
H46   H     H_    0.237684 0.921500 0.585962 0.184626
H47   H     H_    0.586159 0.078325 0.762227 0.185497
H48   H     H_    0.381344 0.934114 0.236308 0.194230
N1    N     N_R   0.584840 0.879720 0.932190 -0.069975
N2    N     N_R   0.415160 0.120280 0.067810 -0.065156
N3    N     N_R   0.120280 0.584840 0.932190 -0.070490
N4    N     N_R   0.879720 0.415160 0.067810 -0.070450
N5    N     N_R   0.415160 0.120280 0.932190 -0.069918
N6    N     N_R   0.584840 0.879720 0.067810 -0.062964
N7    N     N_R   0.879720 0.415160 0.932190 -0.064993
N8    N     N_R   0.120280 0.584840 0.067810 -0.063333
N9    N     N_R   0.584840 0.120280 0.067810 -0.069926
N10   N     N_R   0.415160 0.879720 0.932190 -0.072665
N11   N     N_R   0.120280 0.415160 0.067810 -0.062997
N12   N     N_R   0.879720 0.584840 0.932190 -0.071915
N13   N     N_R   0.415160 0.879720 0.067810 -0.059669
N14   N     N_R   0.584840 0.120280 0.932190 -0.064165
N15   N     N_R   0.879720 0.584840 0.067810 -0.061559
N16   N     N_R   0.120280 0.415160 0.932190 -0.070843
N17   N     N_R   0.932190 0.584840 0.879720 -0.071878
N18   N     N_R   0.067810 0.415160 0.120280 -0.071095
N19   N     N_R   0.932190 0.120280 0.584840 -0.072162
N20   N     N_R   0.067810 0.879720 0.415160 -0.069177
N21   N     N_R   0.932190 0.415160 0.120280 -0.063726
N22   N     N_R   0.067810 0.584840 0.879720 -0.061341
N23   N     N_R   0.932190 0.879720 0.415160 -0.065141
N24   N     N_R   0.067810 0.120280 0.584840 -0.060924
N25   N     N_R   0.067810 0.584840 0.120280 -0.072007
N26   N     N_R   0.932190 0.415160 0.879720 -0.070012
N27   N     N_R   0.067810 0.120280 0.415160 -0.071789
N28   N     N_R   0.932190 0.879720 0.584840 -0.069274
N29   N     N_R   0.067810 0.415160 0.879720 -0.063229
N30   N     N_R   0.932190 0.584840 0.120280 -0.060933
N31   N     N_R   0.067810 0.879720 0.584840 -0.064402
N32   N     N_R   0.932190 0.120280 0.415160 -0.060754
N33   N     N_R   0.879720 0.932190 0.584840 -0.063800
N34   N     N_R   0.120280 0.067810 0.415160 -0.071288
N35   N     N_R   0.584840 0.932190 0.120280 -0.070516
N36   N     N_R   0.415160 0.067810 0.879720 -0.063539
N37   N     N_R   0.120280 0.932190 0.415160 -0.063852
N38   N     N_R   0.879720 0.067810 0.584840 -0.071554
N39   N     N_R   0.415160 0.932190 0.879720 -0.071092
N40   N     N_R   0.584840 0.067810 0.120280 -0.065237
N41   N     N_R   0.120280 0.067810 0.584840 -0.061246
N42   N     N_R   0.879720 0.932190 0.415160 -0.070380
N43   N     N_R   0.415160 0.067810 0.120280 -0.070694
N44   N     N_R   0.584840 0.932190 0.879720 -0.062938
N45   N     N_R   0.879720 0.067810 0.415160 -0.061845
N46   N     N_R   0.120280 0.932190 0.584840 -0.070056
N47   N     N_R   0.584840 0.067810 0.879720 -0.069230
N48   N     N_R   0.415160 0.932190 0.120280 -0.061326
Ni1   Ni    Ni4+2 0.500000 0.880920 0.000000 0.248127
Ni2   Ni    Ni4+2 0.500000 0.119080 0.000000 0.247412
Ni3   Ni    Ni4+2 0.119080 0.500000 0.000000 0.249177
Ni4   Ni    Ni4+2 0.880920 0.500000 0.000000 0.245862
Ni5   Ni    Ni4+2 0.000000 0.500000 0.880920 0.246246
Ni6   Ni    Ni4+2 1.000000 0.500000 0.119080 0.250822
Ni7   Ni    Ni4+2 0.000000 0.119080 0.500000 0.244242
Ni8   Ni    Ni4+2 0.000000 0.880920 0.500000 0.248324
Ni9   Ni    Ni4+2 0.880920 0.000000 0.500000 0.246249
Ni10  Ni    Ni4+2 0.119080 0.000000 0.500000 0.246717
Ni11  Ni    Ni4+2 0.500000 1.000000 0.119080 0.249281
Ni12  Ni    Ni4+2 0.500000 0.000000 0.880920 0.245273
N49   N     N_R   0.652359 0.654111 0.171148 0.257288
O1    O     O_R   0.637738 0.641653 0.100106 -0.357346
O2    O     O_R   0.617606 0.613972 0.222464 -0.240785
N50   N     N_R   0.310255 0.310485 0.883607 0.201249
O3    O     O_R   0.284433 0.284788 0.948104 -0.468635
O4    O     O_R   0.362530 0.362572 0.882628 -0.328078
N51   N     N_R   0.345570 0.651759 0.170575 0.258322
O5    O     O_R   0.358868 0.638002 0.099451 -0.354221
O6    O     O_R   0.383771 0.614997 0.221798 -0.235161
N52   N     N_R   0.652001 0.346545 0.828677 0.254985
O7    O     O_R   0.642406 0.362210 0.899979 -0.362666
O8    O     O_R   0.605619 0.375618 0.779347 -0.267361
N53   N     N_R   0.346564 0.348051 0.170826 0.256702
O9    O     O_R   0.377336 0.392988 0.220341 -0.250028
O10   O     O_R   0.361619 0.358258 0.099406 -0.359403
N54   N     N_R   0.681637 0.681047 0.878926 0.207844
O11   O     O_R   0.629482 0.629239 0.873479 -0.312327
O12   O     O_R   0.703904 0.703929 0.945590 -0.468005
N55   N     N_R   0.689786 0.310493 0.116088 0.200679
O13   O     O_R   0.637442 0.362512 0.116724 -0.323042
O14   O     O_R   0.715775 0.284826 0.051763 -0.469404
N56   N     N_R   0.319199 0.681393 0.878404 0.208352
O15   O     O_R   0.371015 0.629281 0.872456 -0.314235
O16   O     O_R   0.296307 0.703303 0.945290 -0.467807
N57   N     N_R   0.172294 0.651324 0.653807 0.257524
O17   O     O_R   0.101361 0.643248 0.636159 -0.357604
O18   O     O_R   0.220956 0.601945 0.628790 -0.258513
N58   N     N_R   0.828477 0.346565 0.347525 0.258305
O19   O     O_R   0.899246 0.364603 0.356371 -0.357103
O20   O     O_R   0.778830 0.372792 0.395354 -0.247975
N59   N     N_R   0.170605 0.346716 0.652802 0.257430
O21   O     O_R   0.099677 0.363779 0.643230 -0.356976
O22   O     O_R   0.220543 0.374930 0.606311 -0.248638
N60   N     N_R   0.829596 0.653186 0.347119 0.255569
O23   O     O_R   0.900581 0.643431 0.363790 -0.359368
O24   O     O_R   0.779761 0.606771 0.375531 -0.248035
N61   N     N_R   0.122352 0.319265 0.319856 0.208467
O25   O     O_R   0.128848 0.371252 0.371639 -0.305237
O26   O     O_R   0.055273 0.297567 0.297677 -0.469567
N62   N     N_R   0.877020 0.680308 0.680299 0.208649
O27   O     O_R   0.870360 0.628431 0.628431 -0.307890
O28   O     O_R   0.944167 0.702635 0.701632 -0.469528
N63   N     N_R   0.115405 0.690142 0.310269 0.201129
O29   O     O_R   0.115570 0.637761 0.362416 -0.329093
O30   O     O_R   0.051367 0.716206 0.284169 -0.467504
N64   N     N_R   0.878636 0.318198 0.681586 0.207658
O31   O     O_R   0.873303 0.370155 0.629397 -0.308828
O32   O     O_R   0.945194 0.295737 0.704641 -0.468411
N65   N     N_R   0.680489 0.122952 0.679853 0.208449
O33   O     O_R   0.628474 0.129996 0.628145 -0.299260
O34   O     O_R   0.701716 0.055644 0.702090 -0.471109
N66   N     N_R   0.347071 0.828493 0.347044 0.255671
O35   O     O_R   0.394327 0.778729 0.373933 -0.254298
O36   O     O_R   0.356329 0.899308 0.364633 -0.360327
N67   N     N_R   0.651883 0.169588 0.345859 0.254547
O37   O     O_R   0.638326 0.098397 0.358919 -0.361215
O38   O     O_R   0.615071 0.220432 0.384468 -0.252006
N68   N     N_R   0.318420 0.878437 0.681510 0.207470
O39   O     O_R   0.295170 0.945054 0.703608 -0.469175
O40   O     O_R   0.370585 0.872976 0.629541 -0.304248
N69   N     N_R   0.319304 0.122706 0.319641 0.208203
O41   O     O_R   0.297795 0.055619 0.297299 -0.470205
O42   O     O_R   0.371183 0.129223 0.371527 -0.300619
N70   N     N_R   0.651189 0.828222 0.653840 0.256445
O43   O     O_R   0.642628 0.899303 0.636696 -0.359262
O44   O     O_R   0.602727 0.779353 0.627693 -0.266925
N71   N     N_R   0.347696 0.170386 0.653905 0.255437
O45   O     O_R   0.383436 0.221508 0.614430 -0.251867
O46   O     O_R   0.361863 0.099312 0.641189 -0.359132
N72   N     N_R   0.690101 0.884207 0.310253 0.200690
O47   O     O_R   0.637803 0.883651 0.362484 -0.324159
O48   O     O_R   0.716136 0.948446 0.284316 -0.467936

loop_
_geom_bond_atom_site_label_1
_geom_bond_atom_site_label_2
_geom_bond_distance
_ccdc_geom_bond_type
C36   C89   1.382291 A    
C24   C61   1.411809 A    
N31   N46   1.309654 A    
C7    C55   1.407943 A    
C8    C56   1.411039 A    
C14   C33   1.487795 S    
N35   Ni11  1.917038 S    
C12   C49   1.408744 A    
N33   Ni9   1.913986 S    
C2    C29   1.487433 S    
C42   C109  1.378831 A    
N40   Ni11  1.917078 S    
C6    C25   1.496698 S    
N56   O16   1.305384 A    
N63   O29   1.302574 A    
C46   C105  1.383988 A    
C99   N27   1.321918 A    
N54   O11   1.301327 A    
C51   N51   1.436680 S    
N64   O31   1.301355 A    
C97   N25   1.320555 A    
C84   N12   1.321600 A    
C79   H7    1.070978 S    
C86   H14   1.073639 S    
C19   C63   1.407979 A    
C77   N5    1.321008 A    
C29   C108  1.378293 A    
C58   N58   1.437318 S    
C39   C87   1.390209 A    
C21   C48   1.493173 S    
C22   C47   1.499792 S    
C23   C46   1.498978 S    
N17   Ni5   1.917021 S    
C9    C52   1.411841 A    
C6    C54   1.411213 A    
C27   C75   1.388439 A    
C10   C51   1.409195 A    
C100  N28   1.326576 A    
N52   O8    1.300588 A    
N20   N37   1.309654 A    
C15   C54   1.411807 A    
C67   N67   1.436734 S    
C45   C99   1.381734 A    
C90   N18   1.325899 A    
C7    C28   1.488481 S    
C76   H4    1.075593 S    
C94   N22   1.343662 A    
C83   H11   1.073304 S    
N49   O1    1.298976 A    
C8    C57   1.410590 A    
C96   H24   1.073659 S    
C81   H9    1.075405 S    
C82   N10   1.322086 A    
N50   O4    1.302513 A    
N37   Ni10  1.918140 S    
C71   N71   1.436681 S    
C117  N45   1.341254 A    
C80   N8    1.337399 A    
N28   Ni8   1.913941 S    
C38   C119  1.390177 A    
N25   Ni6   1.917076 S    
N62   O28   1.305355 A    
C73   H1    1.075510 S    
N72   O47   1.302564 A    
C2    C71   1.409901 A    
C119  H47   1.075522 S    
C77   H5    1.075449 S    
C120  H48   1.074247 S    
C99   H27   1.076091 S    
C28   C76   1.391444 A    
C112  H40   1.071766 S    
N11   Ni3   1.914385 S    
C97   H25   1.075354 S    
N24   Ni7   1.918265 S    
N59   O22   1.300739 A    
C83   N11   1.342399 A    
C40   C88   1.392343 A    
N70   O44   1.300642 A    
C16   C35   1.497400 S    
N68   O40   1.301339 A    
C104  H32   1.074185 S    
N13   N48   1.310599 A    
C42   C92   1.390978 A    
C115  H43   1.075599 S    
C9    C65   1.411231 A    
C113  H41   1.072492 S    
N39   Ni12  1.917080 S    
N49   O2    1.300673 A    
N31   Ni8   1.918191 S    
C107  H35   1.075356 S    
C105  H33   1.070730 S    
C30   C107  1.390617 A    
N10   Ni1   1.918592 S    
C109  H37   1.070663 S    
N71   O46   1.298981 A    
N11   N18   1.307659 A    
C38   C86   1.384149 A    
C30   C78   1.379047 A    
C53   N53   1.436653 S    
N47   Ni12  1.916944 S    
N29   Ni5   1.917035 S    
C87   N15   1.342603 A    
N57   O17   1.298664 A    
C101  N29   1.336382 A    
C88   N16   1.321432 A    
C19   C66   1.411275 A    
N53   O9    1.300681 A    
C31   C98   1.392278 A    
C76   N4    1.321143 A    
C63   N63   1.425980 S    
N50   O3    1.304818 A    
C2    C50   1.406471 A    
C62   N62   1.427829 S    
C40   C101  1.378272 A    
C23   C62   1.414107 A    
N8    Ni3   1.918534 S    
N58   O20   1.300757 A    
C14   C67   1.409708 A    
C50   N50   1.425987 S    
N8    N25   1.307659 A    
N4    Ni4   1.914325 S    
C19   C42   1.488345 S    
C52   N52   1.436782 S    
C13   C56   1.411182 A    
C14   C55   1.406532 A    
N65   O33   1.301203 A    
C104  N32   1.344195 A    
C23   C70   1.414299 A    
C90   H18   1.075514 S    
C10   C66   1.408307 A    
C1    C72   1.406983 A    
C94   H22   1.074422 S    
C60   N60   1.437229 S    
N66   O35   1.300737 A    
C25   C116  1.385152 A    
N21   Ni6   1.916945 S    
C80   H8    1.071850 S    
C84   H12   1.076017 S    
N3    N22   1.310637 A    
C107  N35   1.320783 A    
C44   C96   1.391174 A    
C105  N33   1.341150 A    
N69   O41   1.305418 A    
C109  N37   1.337046 A    
N5    Ni2   1.918533 S    
N61   O26   1.305408 A    
C41   C91   1.381453 A    
C17   C71   1.409112 A    
N13   Ni1   1.914282 S    
N14   N47   1.310599 A    
C16   C61   1.411415 A    
C111  N39   1.322662 A    
C15   C36   1.497719 S    
C39   C102  1.390678 A    
C91   N19   1.321795 A    
C85   N13   1.341691 A    
N32   Ni7   1.918194 S    
C89   N17   1.322922 A    
C92   N20   1.321064 A    
N60   O23   1.298918 A    
C93   N21   1.336696 A    
N9    N40   1.307691 A    
C115  N43   1.326507 A    
C96   N24   1.343624 A    
C81   N9    1.321065 A    
C21   C58   1.408387 A    
N19   Ni7   1.914015 S    
C9    C38   1.496618 S    
N54   O12   1.305356 A    
C25   C73   1.388874 A    
C57   N57   1.437041 S    
C11   C40   1.488781 S    
N45   Ni9   1.914062 S    
C29   C77   1.390995 A    
C85   H13   1.072263 S    
N67   O37   1.299050 A    
C34   C82   1.382525 A    
N28   N33   1.309667 A    
N3    Ni3   1.914325 S    
C13   C68   1.412934 A    
N1    Ni1   1.914341 S    
C95   H23   1.070695 S    
N7    Ni4   1.918537 S    
N34   Ni10  1.913987 S    
C43   C114  1.392263 A    
C114  H42   1.075478 S    
C98   N26   1.326542 A    
C111  H39   1.075813 S    
C26   C115  1.392515 A    
C5    C69   1.413209 A    
C47   C118  1.392130 A    
C117  H45   1.072271 S    
C106  H34   1.076043 S    
C56   N56   1.427554 S    
C43   C95   1.378560 A    
N51   O5    1.298986 A    
C110  H38   1.075959 S    
C103  H31   1.070763 S    
N18   Ni6   1.917021 S    
C59   N59   1.437184 S    
N72   O48   1.304819 A    
C11   C59   1.411814 A    
N55   O14   1.304779 A    
C18   C72   1.407557 A    
N15   N30   1.310637 A    
C47   C103  1.385158 A    
C87   H15   1.072565 S    
C20   C65   1.411373 A    
C88   H16   1.075541 S    
N71   O45   1.300719 A    
C3    C51   1.409467 A    
C64   N64   1.427256 S    
N56   O15   1.301283 A    
N1    N44   1.307691 A    
C28   C93   1.378799 A    
C108  H36   1.071570 S    
N10   N39   1.307691 A    
N38   Ni9   1.918137 S    
C118  N46   1.326029 A    
C33   C112  1.378540 A    
C22   C68   1.414685 A    
C48   C117  1.388652 A    
C102  H30   1.073728 S    
N26   Ni5   1.917078 S    
C91   H19   1.075955 S    
C74   H2    1.071227 S    
C44   C113  1.390099 A    
C89   H17   1.075890 S    
N5    N36   1.310599 A    
C65   N65   1.427925 S    
C73   N1    1.324835 A    
C78   H6    1.071640 S    
C93   H21   1.070774 S    
C37   C85   1.388812 A    
C6    C70   1.410739 A    
N52   O7    1.298814 A    
C35   C83   1.384139 A    
C72   N72   1.426012 S    
C3    C63   1.406672 A    
N4    N21   1.310637 A    
C4    C64   1.413902 A    
C12   C39   1.493433 S    
C17   C44   1.494076 S    
C13   C34   1.498063 S    
C116  N44   1.343593 A    
C11   C50   1.407292 A    
C18   C43   1.488910 S    
C1    C30   1.487483 S    
C15   C62   1.412423 A    
C49   N49   1.436729 S    
C3    C32   1.487675 S    
N24   N41   1.309667 A    
C4    C31   1.500041 S    
C113  N41   1.342293 A    
C5    C26   1.499287 S    
N44   Ni12  1.917022 S    
C35   C90   1.390441 A    
N62   O27   1.301203 A    
N16   N29   1.310637 A    
C86   N14   1.342371 A    
C8    C27   1.495824 S    
C27   C94   1.384989 A    
N23   Ni8   1.918267 S    
C70   N70   1.436891 S    
C119  N47   1.325459 A    
N15   Ni4   1.918475 S    
N67   O38   1.300668 A    
N9    Ni2   1.918589 S    
C22   C57   1.414259 A    
C20   C41   1.497788 S    
N27   N34   1.309667 A    
C4    C52   1.414083 A    
C10   C37   1.492953 S    
C75   H3    1.075531 S    
C24   C45   1.497293 S    
C5    C53   1.414122 A    
N70   O43   1.298713 A    
N30   Ni6   1.917035 S    
N66   O36   1.298830 A    
C102  N30   1.343026 A    
N68   O39   1.305372 A    
C32   C80   1.379061 A    
C48   C104  1.391940 A    
C32   C97   1.390639 A    
C16   C53   1.412096 A    
C26   C74   1.383892 A    
N16   Ni3   1.918477 S    
N2    N43   1.307691 A    
C66   N66   1.437226 S    
C82   H10   1.075891 S    
N61   O25   1.301230 A    
C7    C58   1.411436 A    
N64   O32   1.305344 A    
C95   N23   1.336416 A    
N43   Ni11  1.917022 S    
C21   C67   1.409326 A    
C34   C111  1.381822 A    
N51   O6    1.300700 A    
C24   C69   1.412679 A    
N48   Ni11  1.916947 S    
C79   N7    1.341492 A    
C112  N40   1.336924 A    
N22   Ni5   1.916942 S    
N57   O18   1.300702 A    
N60   O24   1.300743 A    
C98   H26   1.075580 S    
C118  H46   1.075662 S    
N53   O10   1.298838 A    
C54   N54   1.427460 S    
C20   C64   1.412963 A    
C106  N34   1.322621 A    
N58   O19   1.298807 A    
N32   N45   1.309654 A    
C110  N38   1.322724 A    
N6    Ni1   1.918531 S    
C103  N31   1.341369 A    
C61   N61   1.427898 S    
C17   C59   1.409300 A    
N20   Ni8   1.914015 S    
C18   C60   1.411718 A    
N14   Ni2   1.914281 S    
C41   C110  1.382658 A    
N65   O34   1.305372 A    
C75   N3    1.324555 A    
N42   Ni9   1.918215 S    
C68   N68   1.427329 S    
N12   Ni4   1.914385 S    
N36   Ni12  1.917038 S    
N59   O21   1.298860 A    
C45   C106  1.381492 A    
N63   O30   1.304758 A    
C46   C100  1.391910 A    
N7    N26   1.307659 A    
C116  H44   1.074221 S    
C36   C84   1.381600 A    
N55   O13   1.302521 A    
C31   C79   1.384691 A    
C120  N48   1.343800 A    
C114  N42   1.321256 A    
C108  N36   1.337027 A    
N27   Ni7   1.913942 S    
C37   C120  1.391655 A    
C33   C81   1.391127 A    
C100  H28   1.075670 S    
N19   N38   1.309654 A    
C101  H29   1.070800 S    
N6    N35   1.310599 A    
N69   O42   1.301237 A    
C69   N69   1.427857 S    
N46   Ni10  1.914062 S    
C74   N2    1.341149 A    
N12   N17   1.307659 A    
N23   N42   1.309667 A    
C12   C60   1.409140 A    
N41   Ni10  1.918212 S    
C78   N6    1.337138 A    
C55   N55   1.425960 S    
C1    C49   1.409609 A    
N2    Ni2   1.914341 S    
C92   H20   1.075501 S    
