data_mof_unit_3360.cif
_audit_creation_date              2013-03-05T16:46:59-0500
_audit_creation_method            fapswitch 2.2
_symmetry_space_group_name_H-M    P1
_symmetry_Int_Tables_number       1
_space_group_crystal_system       triclinic
_cell_length_a                    14.994156
_cell_length_b                    8.955744
_cell_length_c                    8.093479
_cell_angle_alpha                 89.600249
_cell_angle_beta                  89.88199
_cell_angle_gamma                 89.58392
_cell_volume                      1086.76599639

loop_
_atom_site_label
_atom_site_type_symbol
_atom_site_description
_atom_site_fract_x
_atom_site_fract_y
_atom_site_fract_z
_atom_type_partial_charge
O1    O     O_R   0.500000 0.285350 0.636850 -0.597697
O2    O     O_R   0.500000 0.714650 0.363150 -0.590300
O3    O     O_R   0.500000 0.714650 0.636850 -0.616677
O4    O     O_R   0.500000 0.285350 0.363150 -0.638997
H1    H     H_    0.923078 0.113062 0.588846 0.202059
H2    H     H_    0.079953 0.771680 0.208610 0.217006
H3    H     H_    0.920211 0.768059 0.202361 0.231981
H4    H     H_    0.080810 0.110247 0.578997 0.246422
C1    C     C_R   0.499935 0.217923 0.500296 0.975581
C2    C     C_R   0.499039 0.782087 0.499572 1.063562
O5    O     O_R   0.367850 0.500000 0.636890 -0.575805
O6    O     O_R   0.632150 0.500000 0.363110 -0.606835
O7    O     O_R   0.632150 0.500000 0.636890 -0.563632
O8    O     O_R   0.367850 0.500000 0.363110 -0.599957
C3    C     C_R   0.326267 0.493505 0.500751 1.036641
C4    C     C_R   0.673882 0.493539 0.500366 1.036411
Zn1   Zn    Zn3+2 0.500000 0.500000 0.682780 1.130333
Zn2   Zn    Zn3+2 0.500000 0.500000 0.317220 1.117718
N1    N     N_1   0.500000 0.500000 0.073640 0.008754
N2    N     N_1   0.500000 0.500000 0.926360 0.013653
C5    C     C_R   0.815283 0.605114 0.413718 0.274745
C6    C     C_R   0.185587 0.361590 0.563513 0.283431
C7    C     C_R   0.816089 0.364607 0.567236 0.329050
C8    C     C_R   0.184013 0.607334 0.421131 0.267242
C9    C     C_R   0.770282 0.489881 0.499329 -0.296390
C10   C     C_R   0.230076 0.489323 0.500926 -0.320090
C11   C     C_R   0.907598 0.349324 0.532268 -0.004743
C12   C     C_R   0.093141 0.590888 0.388087 0.000992
C13   C     C_R   0.906832 0.589195 0.384054 -0.019568
C14   C     C_R   0.094222 0.347843 0.529486 -0.012999
C15   C     C_R   0.953510 0.467832 0.455093 0.017884
C16   C     C_R   0.047359 0.467907 0.455451 0.017561
C17   C     C_R   0.955343 0.217348 0.564889 -0.094688
C18   C     C_R   0.046188 0.691711 0.286799 -0.113323
C19   C     C_R   0.953863 0.689810 0.283469 -0.152817
C20   C     C_R   0.047514 0.215964 0.560890 -0.132438
C21   C     C_1   0.499576 0.065143 0.500251 -0.018723
C22   C     C_1   0.499198 0.934932 0.499252 0.000227
S1    S     S_3+6 0.759554 0.779072 0.372169 0.062120
O9    O     O_2   0.714977 0.771732 0.206372 -0.225762
O10   O     O_2   0.690590 0.808408 0.502672 -0.306783
O11   O     O_3   0.829924 0.924031 0.373300 -0.508931
H5    H     H_    0.863830 0.910446 0.477089 0.352442
S2    S     S_3+6 0.242565 0.227511 0.693653 0.051826
O12   O     O_2   0.300708 0.132198 0.585613 -0.245626
O13   O     O_2   0.300243 0.303623 0.818468 -0.271300
O14   O     O_3   0.174143 0.115886 0.802812 -0.524893
H6    H     H_    0.143772 0.182862 0.882353 0.368813
S3    S     S_3+6 0.760278 0.238306 0.707109 0.056134
O15   O     O_2   0.695210 0.147554 0.609942 -0.298918
O16   O     O_2   0.822471 0.134361 0.797843 -0.269213
O17   O     O_3   0.705160 0.334574 0.853425 -0.509846
H7    H     H_    0.663207 0.262168 0.903490 0.385586
S4    S     S_3+6 0.237447 0.784057 0.394732 0.049819
O18   O     O_2   0.290746 0.783269 0.237336 -0.237811
O19   O     O_2   0.172041 0.911975 0.389374 -0.289337
O20   O     O_3   0.306179 0.812280 0.554852 -0.544932
H8    H     H_    0.266811 0.814515 0.653363 0.391039

loop_
_geom_bond_atom_site_label_1
_geom_bond_atom_site_label_2
_geom_bond_distance
_ccdc_geom_bond_type
C8    S4    1.790384 S    
C21   C22   1.166268 T    
C14   C20   1.398963 A    
O2    Zn2   1.960506 S    
C8    C12   1.398109 A    
O8    Zn2   2.015234 S    
O1    Zn1   1.960507 S    
N1    N2    1.192007 T    
C5    S1    1.792592 S    
S2    O14   1.682637 S    
O7    Zn1   2.015232 S    
C2    C22   1.368848 S    
S3    O17   1.681832 S    
O4    Zn2   1.955415 S    
Zn1   N2    1.971410 S    
C1    C21   1.368315 S    
C12   C18   1.402067 A    
C13   C15   1.408428 A    
O3    C2    1.260944 A    
C11   C17   1.401181 A    
C14   C16   1.410941 A    
O20   H8    0.991284 S    
O5    C3    1.269030 A    
H3    C19   1.080010 S    
C8    C10   1.411674 A    
C6    S2    1.803418 S    
O3    Zn1   1.955414 S    
S1    O11   1.678942 S    
C7    C11   1.406301 A    
C7    C9    1.419257 A    
H4    C20   1.076380 S    
S4    O19   1.503064 D    
C7    S3    1.803675 S    
O11   H5    0.989094 S    
S1    O9    1.502425 D    
C11   C15   1.410702 A    
O2    C2    1.262212 A    
O14   H6    0.990852 S    
O6    C4    1.276864 A    
C12   C16   1.408051 A    
C17   C20   1.382320 A    
O1    C1    1.263107 A    
O17   H7    0.990745 S    
S1    O10   1.499787 D    
C18   C19   1.384875 A    
C6    C10   1.418384 A    
O7    C4    1.270177 A    
O6    Zn2   2.016736 S    
C4    C9    1.445575 S    
S3    O15   1.501503 D    
C13   C19   1.403072 A    
S4    O18   1.502448 D    
Zn2   N1    1.971410 S    
C3    C10   1.443051 S    
C5    C9    1.413722 A    
C6    C14   1.404356 A    
O4    C1    1.259906 A    
O8    C3    1.276669 A    
C5    C13   1.399488 A    
C15   C16   1.407186 A    
O5    Zn1   2.016738 S    
S2    O12   1.499916 D    
H2    C18   1.080434 S    
S2    O13   1.501612 D    
S3    O16   1.502045 D    
S4    O20   1.679067 S    
H1    C17   1.071252 S    
