data_mof_unit_3564.cif
_audit_creation_date              2012-12-11T14:56:24-0500
_audit_creation_method            fapswitch 2.2
_symmetry_space_group_name_H-M    P1
_symmetry_Int_Tables_number       1
_space_group_crystal_system       triclinic
_cell_length_a                    10.645622
_cell_length_b                    10.828355
_cell_length_c                    17.027486
_cell_angle_alpha                 79.750004
_cell_angle_beta                  89.987054
_cell_angle_gamma                 119.028125
_cell_volume                      1680.30732723

loop_
_atom_site_label
_atom_site_type_symbol
_atom_type_description
_atom_site_fract_x
_atom_site_fract_y
_atom_site_fract_z
_atom_type_partial_charge
C1    C     C_R   0.277586 0.887476 0.132653 0.558879
C2    C     C_1   0.689514 0.408333 0.709838 -0.008559
C3    C     C_R   0.642050 0.718425 0.808761 -0.007262
C4    C     C_R   0.637365 0.283962 0.084481 0.543905
C5    C     C_R   0.623908 0.703410 0.729988 0.265238
C6    C     C_R   0.667713 0.822259 0.667019 0.007312
C7    C     C_R   0.738774 0.960549 0.682786 0.293339
C8    C     C_R   0.769406 0.979797 0.761614 -0.017683
C9    C     C_R   0.702245 0.856832 0.824955 -0.079073
C10   C     C_R   0.240281 0.993320 0.755277 0.017855
C11   C     C_R   0.157727 0.939632 0.694240 0.015215
C12   C     C_R   0.819058 0.475591 0.246584 0.290234
C13   C     C_R   0.168945 0.834116 0.660434 0.027899
C14   C     C_R   0.251306 0.773365 0.695998 -0.031488
C15   C     C_R   0.297948 0.800050 0.771495 -0.140856
C16   C     C_R   0.642699 0.855602 0.124009 0.545775
C17   C     C_R   0.283402 0.903917 0.803759 -0.007289
C18   C     C_R   0.711028 0.773609 0.353837 0.536778
C19   C     C_R   0.722820 0.452413 0.382949 0.603054
C20   C     C_R   0.108031 0.812873 0.360258 0.572168
C21   C     C_R   0.677252 0.799192 0.585899 0.616922
C22   C     C_R   0.718742 0.447805 0.625178 0.587031
C23   C     C_R   0.801227 0.451691 0.168378 -0.011955
C24   C     C_R   0.098955 0.802754 0.586576 0.531116
C25   C     C_R   0.295519 0.909154 0.889164 0.571048
C26   C     C_R   0.639893 0.289584 0.861859 0.520051
C27   C     C_R   0.648336 0.868868 0.899655 0.542108
C28   C     C_R   0.539964 0.345433 0.197565 -0.017167
C29   C     C_R   0.559729 0.358956 0.277420 0.326825
C30   C     C_R   0.699066 0.423193 0.302138 0.019916
C31   C     C_3   0.391911 0.303877 0.168057 -0.212042
C32   C     C_3   0.316402 0.377906 0.199121 -0.373174
C33   C     C_3   0.036478 0.973517 0.678921 -0.205660
C34   C     C_R   0.660007 0.369702 0.147085 -0.080619
C35   C     C_3   0.075836 0.107991 0.611019 -0.307018
C36   C     C_3   0.287005 0.679350 0.656283 -0.244520
C37   C     C_3   0.171081 0.522839 0.679873 -0.418087
C38   C     C_3   0.932449 0.524435 0.107135 -0.195470
C39   C     C_3   0.031020 0.458890 0.122933 -0.351904
C40   C     C_3   0.602635 0.587746 0.875115 -0.188267
C41   C     C_3   0.440598 0.478355 0.886753 -0.360667
C42   C     C_3   0.884017 0.127518 0.775518 -0.235439
C43   C     C_3   0.853307 0.242832 0.736408 -0.344601
C44   C     C_3   0.268221 0.138013 0.771133 -0.282262
C45   C     C_1   0.684349 0.830846 0.201508 -0.037327
C46   C     C_3   0.336223 0.258560 0.697673 -0.416347
C47   C     C_1   0.703428 0.807487 0.270396 -0.032892
C48   C     C_1   0.227945 0.854039 0.215849 0.001115
C49   C     C_1   0.179820 0.836014 0.283512 0.042608
C50   C     C_1   0.664098 0.362501 0.780751 -0.062446
Cr1   Cr    Cr6+3 0.402240 0.783890 0.019450 0.976841
Cr2   Cr    Cr6+3 0.382360 0.097900 0.991800 0.958071
Cr3   Cr    Cr6+3 0.715380 0.118170 0.988700 0.989000
Cr4   Cr    Cr6+3 0.936650 0.882420 0.465510 1.038675
Cr5   Cr    Cr6+3 0.605770 0.565620 0.493360 1.068625
Cr6   Cr    Cr6+3 0.921340 0.550490 0.496380 1.056823
F1    F     F_    0.442716 0.305086 0.331563 -0.623381
F2    F     F_    0.953795 0.549840 0.268850 -0.658560
F3    F     F_    0.562542 0.571483 0.714140 -0.699042
F4    F     F_    0.784266 0.074593 0.620366 -0.651347
H1    H     H_    0.344502 0.739933 0.804843 0.140225
H2    H     H_    0.940723 0.876693 0.666832 0.146611
H3    H     H_    0.998184 0.978603 0.736773 0.117161
H4    H     H_    0.180037 0.475840 0.741771 0.137292
H5    H     H_    0.064328 0.515763 0.677110 0.172582
H6    H     H_    0.181843 0.461524 0.637179 0.138324
H7    H     H_    0.302443 0.715867 0.590017 0.171117
H8    H     H_    0.389097 0.687769 0.674803 0.185650
H9    H     H_    0.085060 0.485826 0.178006 0.210673
H10   H     H_    0.969465 0.339828 0.130075 0.164482
H11   H     H_    0.115583 0.503553 0.071670 0.131143
H12   H     H_    0.258710 0.319977 0.259679 0.226442
H13   H     H_    0.900935 0.519958 0.045103 0.138414
H14   H     H_    0.993674 0.640945 0.108767 0.192461
H15   H     H_    0.375041 0.531758 0.890326 0.154070
H16   H     H_    0.407775 0.419873 0.836813 0.185625
H17   H     H_    0.415348 0.397979 0.943309 0.126908
H18   H     H_    0.666146 0.538084 0.861205 0.147821
H19   H     H_    0.638016 0.618707 0.933346 0.132974
H20   H     H_    0.906107 0.283780 0.674371 0.219070
H21   H     H_    0.735195 0.195404 0.734834 0.201367
H22   H     H_    0.899562 0.332938 0.768764 0.128774
H23   H     H_    0.394621 0.492108 0.200239 0.189559
H24   H     H_    0.907471 0.136075 0.837805 0.171337
H25   H     H_    0.991603 0.159925 0.749831 0.101133
H26   H     H_    0.369597 0.225538 0.647128 0.190879
H27   H     H_    0.268459 0.307878 0.680970 0.136018
H28   H     H_    0.432453 0.344682 0.713325 0.239062
H29   H     H_    0.170362 0.131503 0.798294 0.135987
H30   H     H_    0.346449 0.173037 0.813989 0.199608
H31   H     H_    0.234057 0.375309 0.158686 0.093072
H32   H     H_    0.403827 0.339923 0.102003 0.147908
H33   H     H_    0.320915 0.185021 0.184283 0.180318
H34   H     H_    0.183186 0.151080 0.578240 0.154266
H35   H     H_    0.001257 0.081970 0.564340 0.236749
H36   H     H_    0.069552 0.195693 0.631254 0.123372
O1    O     O_R   0.521780 0.757110 0.108900 -0.529501
O2    O     O_R   0.805020 0.410040 0.421340 -0.434665
O3    O     O_R   0.049240 0.685450 0.403290 -0.464803
O4    O     O_R   0.275160 0.783810 0.101120 -0.492334
O5    O     O_R   0.077520 0.903010 0.551800 -0.526566
O6    O     O_R   0.802980 0.872780 0.546830 -0.497680
O7    O     O_R   0.578090 0.681300 0.569920 -0.475980
O8    O     O_R   0.608530 0.436370 0.586530 -0.473614
O9    O     O_R   0.798770 0.401880 0.597100 -0.512246
O10   O     O_R   0.043450 0.677890 0.566230 -0.534355
O11   O     O_3   0.821250 0.666180 0.485090 -0.348433
O12   O     O_R   0.513330 0.228330 0.898660 -0.542640
O13   O     O_R   0.237900 0.972600 0.090980 -0.522550
O14   O     O_R   0.511190 0.220540 0.061620 -0.531566
O15   O     O_R   0.736920 0.257720 0.063840 -0.510182
O16   O     O_R   0.710450 0.984050 0.081720 -0.490588
O17   O     O_R   0.524090 0.765520 0.933110 -0.536063
O18   O     O_R   0.277300 0.791600 0.938160 -0.503343
O19   O     O_R   0.240210 0.981010 0.915190 -0.530061
O20   O     O_R   0.739230 0.266130 0.888050 -0.523576
O21   O     O_R   0.712580 0.991850 0.918770 -0.509499
O22   O     O_3   0.499990 0.999980 0.999980 -0.278147
O23   O     O_R   0.083770 0.911170 0.376030 -0.502278
O24   O     O_R   0.808770 0.880340 0.383890 -0.478255
O25   O     O_R   0.584340 0.689460 0.394160 -0.495726
O26   O     O_R   0.614320 0.443940 0.423590 -0.445826

loop_
_geom_bond_atom_site_label_1
_geom_bond_atom_site_label_2
_ccdc_geom_bond_type
Cr1   O1    S    
Cr5   O25   S    
C19   O26   A    
Cr4   O24   S    
Cr4   O5    S    
Cr6   O2    S    
C18   C47   S    
C36   H7    S    
C7    C8    A    
C32   H12   S    
C35   H36   S    
C12   C23   A    
C16   O16   A    
C20   C49   S    
Cr4   O11   S    
C36   C37   S    
C8    C42   S    
C26   C50   S    
C41   H17   S    
C38   C39   S    
Cr3   O21   S    
C16   O1    A    
C35   H34   S    
C32   H31   S    
C10   C17   A    
Cr5   O7    S    
Cr1   O22   S    
C22   O8    A    
C24   O5    A    
C2    C50   T    
C1    O13   A    
C8    C9    A    
C37   H5    S    
C2    C22   S    
Cr3   O20   S    
C12   F2    S    
Cr3   O15   S    
C27   O21   A    
Cr5   O26   S    
C28   C34   A    
Cr4   O23   S    
C1    O4    A    
C19   O2    A    
C44   C46   S    
C46   H28   S    
C45   C47   T    
C15   H1    S    
C4    C34   S    
Cr1   O18   S    
C5    F3    S    
C10   C44   S    
C11   C33   S    
C42   H24   S    
C26   O12   A    
Cr3   O22   S    
C33   H2    S    
C43   H20   S    
C31   H33   S    
C6    C21   S    
Cr5   O8    S    
C13   C24   S    
Cr5   O11   S    
Cr6   O11   S    
C29   C30   A    
C3    C9    A    
C41   H15   S    
C31   C32   S    
Cr2   O14   S    
C33   H3    S    
C23   C34   A    
C37   H6    S    
C39   H9    S    
C40   H19   S    
C42   H25   S    
Cr1   O17   S    
Cr6   O10   S    
C21   O6    A    
C27   O17   A    
Cr3   O16   S    
C48   C49   T    
C4    O15   A    
C29   F1    S    
C3    C40   S    
C43   H21   S    
C40   H18   S    
C24   O10   A    
C42   C43   S    
C28   C29   A    
C18   O24   A    
C7    F4    S    
C37   H4    S    
C44   H30   S    
C9    C27   S    
C46   H27   S    
C38   H14   S    
Cr2   O19   S    
Cr1   O4    S    
C15   C17   A    
C32   H23   S    
C4    O14   A    
C40   C41   S    
C12   C30   A    
Cr4   O6    S    
C28   C31   S    
C3    C5    A    
C16   C45   S    
C36   H8    S    
C1    C48   S    
C6    C7    A    
C35   H35   S    
C22   O9    A    
C23   C38   S    
C17   C25   S    
C25   O19   A    
C25   O18   A    
C41   H16   S    
C14   C36   S    
C11   C13   A    
C5    C6    A    
C20   O3    A    
Cr2   O13   S    
C33   C35   S    
C39   H10   S    
C26   O20   A    
Cr6   O9    S    
C10   C11   A    
C18   O25   A    
C21   O7    A    
Cr2   O12   S    
C31   H32   S    
C43   H22   S    
C39   H11   S    
C14   C15   A    
Cr6   O3    S    
C13   C14   A    
C19   C30   S    
C20   O23   A    
C44   H29   S    
C46   H26   S    
C38   H13   S    
Cr2   O22   S    
