data_mof_unit_2945.cif
_audit_creation_date              2012-12-10T18:42:34-0500
_audit_creation_method            fapswitch 2.2
_symmetry_space_group_name_H-M    P1
_symmetry_Int_Tables_number       1
_space_group_crystal_system       triclinic
_cell_length_a                    8.591453
_cell_length_b                    10.698791
_cell_length_c                    9.911525
_cell_angle_alpha                 89.374231
_cell_angle_beta                  97.223559
_cell_angle_gamma                 91.018396
_cell_volume                      903.640798278

loop_
_atom_site_label
_atom_site_type_symbol
_atom_type_description
_atom_site_fract_x
_atom_site_fract_y
_atom_site_fract_z
_atom_type_partial_charge
C1    C     C_R   0.499316 0.260117 0.500337 0.869749
C2    C     C_R   0.540662 0.063351 0.622645 -0.183451
C3    C     C_R   0.501277 0.872445 0.499439 -0.006540
C4    C     C_R   0.498723 0.127555 0.500561 -0.006541
C5    C     C_R   0.571025 0.595654 0.076199 0.053279
C6    C     C_R   0.428975 0.404346 0.923801 0.053278
C7    C     C_R   0.568822 0.595402 0.933005 -0.136851
C8    C     C_R   0.431178 0.404598 0.066995 -0.136849
C9    C     C_2   0.980132 0.358376 0.373876 0.478460
C10   C     C_2   0.019868 0.641625 0.626125 0.478454
C11   C     C_2   0.653163 0.701968 0.148342 0.458080
C12   C     C_R   0.500684 0.739883 0.499663 0.869752
C13   C     C_2   0.346837 0.298032 0.851658 0.458082
C14   C     C_R   0.202329 0.495956 0.466112 0.936612
C15   C     C_R   0.797670 0.504044 0.533888 0.936618
C16   C     C_2   0.040397 0.470249 0.456008 -0.247276
C17   C     C_2   0.959603 0.529752 0.543992 -0.247278
C18   C     C_R   0.457868 0.064673 0.377924 -0.163037
C19   C     C_R   0.542132 0.935327 0.622076 -0.163036
C20   C     C_R   0.459338 0.936649 0.377355 -0.183450
H1    H     H_    0.423936 0.114050 0.283022 0.159315
H2    H     H_    0.366311 0.204015 0.891761 0.009431
H3    H     H_    0.576063 0.885950 0.716978 0.159316
H4    H     H_    0.426190 0.888289 0.282305 0.150843
H5    H     H_    0.573810 0.111711 0.717695 0.150843
H6    H     H_    0.625011 0.670818 0.882486 0.152835
H7    H     H_    0.374989 0.329182 0.117514 0.152834
H8    H     H_    0.873666 0.309146 0.393462 0.063329
H9    H     H_    0.126341 0.690850 0.606545 0.063334
H10   H     H_    0.633692 0.795984 0.108237 0.009432
N1    N     N_R   0.499960 0.499970 0.857200 -0.091748
N2    N     N_R   0.500040 0.500030 0.142800 -0.091747
O1    O     O_R   0.499990 0.316750 0.614620 -0.611634
O2    O     O_2   0.948389 0.681966 0.714950 -0.562937
O3    O     O_2   0.752261 0.685917 0.245825 -0.533954
O4    O     O_2   0.247737 0.314083 0.754175 -0.533956
O5    O     O_R   0.500010 0.683250 0.385380 -0.611633
O6    O     O_R   0.499990 0.316780 0.385290 -0.640413
O7    O     O_R   0.500010 0.683220 0.614710 -0.640413
O8    O     O_R   0.271750 0.499990 0.587840 -0.590966
O9    O     O_R   0.728250 0.500010 0.412160 -0.590964
O10   O     O_R   0.271750 0.500010 0.358510 -0.574660
O11   O     O_R   0.728250 0.499990 0.641490 -0.574661
O12   O     O_2   0.051605 0.318039 0.285046 -0.562937
Zn1   Zn    Zn3+2 0.500000 0.499980 0.653120 1.011527
Zn2   Zn    Zn3+2 0.500000 0.500020 0.346880 1.011528

loop_
_geom_bond_atom_site_label_1
_geom_bond_atom_site_label_2
_ccdc_geom_bond_type
C2    C4    A    
O9    Zn2   S    
C3    C19   A    
C18   H1    S    
O1    Zn1   S    
C19   H3    S    
O7    Zn1   S    
C14   O10   A    
C1    C4    S    
C4    C18   A    
C5    N2    A    
C12   O7    A    
C11   O3    D    
C6    N1    A    
O5    Zn2   S    
C15   O11   A    
C3    C20   A    
C10   O2    D    
C6    C13   S    
O11   Zn1   S    
C10   H9    S    
C7    H6    S    
N2    Zn2   S    
C1    O6    A    
C11   H10   S    
C9    C16   S    
C13   H2    S    
C5    C11   S    
C2    H5    S    
C18   C20   A    
N1    Zn1   S    
O8    Zn1   S    
C14   C16   S    
O6    Zn2   S    
C7    N1    A    
C10   C17   S    
C1    O1    A    
C8    N2    A    
C15   O9    A    
C13   O4    D    
C5    C7    A    
O10   Zn2   S    
C12   O5    A    
C15   C17   S    
C8    H7    S    
C9    O12   D    
C6    C8    A    
C3    C12   S    
C2    C19   A    
C14   O8    A    
C20   H4    S    
C9    H8    S    
C16   C17   D    
