data_mof_unit_4896.cif
_audit_creation_date              2012-12-10T17:18:53-0500
_audit_creation_method            fapswitch 2.2
_symmetry_space_group_name_H-M    P1
_symmetry_Int_Tables_number       1
_space_group_crystal_system       triclinic
_cell_length_a                    10.25188
_cell_length_b                    10.852686
_cell_length_c                    13.475098
_cell_angle_alpha                 92.498341
_cell_angle_beta                  100.01296
_cell_angle_gamma                 96.938724
_cell_volume                      1462.39292194

loop_
_atom_site_label
_atom_site_type_symbol
_atom_type_description
_atom_site_fract_x
_atom_site_fract_y
_atom_site_fract_z
_atom_type_partial_charge
C1    C     C_R   0.055282 0.732254 0.496343 0.962873
C2    C     C_2   0.991378 0.059374 0.477468 0.112689
C3    C     C_2   0.431736 0.518920 0.500671 0.118783
C4    C     C_2   0.568279 0.480785 0.499860 0.117628
C5    C     C_R   0.094082 0.517037 0.686237 0.894746
C6    C     C_R   0.907012 0.486649 0.313472 0.892007
C7    C     C_R   0.149992 0.547313 0.793381 -0.090214
C8    C     C_R   0.860640 0.484558 0.203926 -0.090328
C9    C     C_R   0.167738 0.667562 0.953288 0.034713
C10   C     C_R   0.870703 0.426442 0.028943 0.036589
C11   C     C_R   0.094629 0.625927 0.856247 0.057739
C12   C     C_R   0.944769 0.267738 0.503778 0.963575
C13   C     C_R   0.927731 0.432769 0.132609 0.057587
C14   C     C_R   0.274348 0.510877 0.827253 -0.332820
C15   C     C_R   0.743239 0.534961 0.171709 -0.326348
C16   C     C_R   0.355293 0.564138 0.915997 0.054222
C17   C     C_R   0.685571 0.531529 0.069999 0.053957
C18   C     C_R   0.299022 0.638087 0.982399 0.135203
C19   C     C_R   0.748169 0.473037 0.998110 0.129353
C20   C     C_R   0.490245 0.542497 0.940680 0.095366
C21   C     C_R   0.560898 0.575708 0.039547 0.091474
C22   C     C_R   0.503810 0.650719 0.104668 -0.253909
C23   C     C_R   0.557633 0.491397 0.868801 -0.251348
C24   C     C_R   0.376011 0.682430 0.075938 -0.207800
C25   C     C_R   0.684989 0.459076 0.896924 -0.219496
C26   C     C_2   0.084613 0.863683 0.486218 -0.389394
C27   C     C_2   0.915603 0.136317 0.514180 -0.390962
C28   C     C_2   0.008872 0.940589 0.523009 0.114100
H1    H     H_    0.337588 0.740997 0.128204 0.175106
H2    H     H_    0.332419 0.360375 0.429592 0.180319
H3    H     H_    0.125353 0.430483 0.132610 0.189559
H4    H     H_    0.038285 0.289075 0.142163 0.176938
H5    H     H_    0.903177 0.640106 0.870648 0.192397
H6    H     H_    0.979985 0.762546 0.819383 0.179856
H7    H     H_    0.023647 0.691365 0.035573 0.193046
H8    H     H_    0.086921 0.822677 0.986878 0.181381
H9    H     H_    0.030794 0.412014 0.961050 0.195652
H10   H     H_    0.937011 0.274925 0.971109 0.181341
H11   H     H_    0.024678 0.026348 0.334545 0.173291
H12   H     H_    0.731496 0.418966 0.839108 0.184758
H13   H     H_    0.159478 0.100234 0.417153 0.187854
H14   H     H_    0.975545 0.973393 0.665958 0.169674
H15   H     H_    0.840726 0.899692 0.583272 0.188065
H16   H     H_    0.632147 0.366644 0.399578 0.233914
H17   H     H_    0.618763 0.307051 0.513401 0.207479
H18   H     H_    0.368156 0.632417 0.601671 0.233663
H19   H     H_    0.381374 0.692854 0.488091 0.208930
H20   H     H_    0.693408 0.570962 0.228515 0.178459
H21   H     H_    0.308289 0.441792 0.781221 0.173782
H22   H     H_    0.557614 0.690527 0.177151 0.149571
H23   H     H_    0.515251 0.478357 0.789325 0.155673
H24   H     H_    0.850241 0.108227 0.566645 0.114978
H25   H     H_    0.150058 0.891837 0.433828 0.114978
H26   H     H_    0.667584 0.639826 0.570033 0.180442
N1    N     N_2   0.322180 0.446120 0.460900 -0.203852
N2    N     N_3   0.424902 0.640075 0.544645 -0.487936
N3    N     N_2   0.677820 0.553880 0.539100 -0.206680
N4    N     N_3   0.050538 0.383426 0.165737 -0.431010
N5    N     N_3   0.967254 0.665652 0.820586 -0.428603
N6    N     N_3   0.111083 0.741941 0.021267 -0.485707
N7    N     N_3   0.933196 0.367956 0.955275 -0.482199
N8    N     N_3   0.056026 0.094428 0.394020 -0.430960
N9    N     N_3   0.944169 0.905421 0.606405 -0.433416
N10   N     N_3   0.575192 0.359347 0.456498 -0.486318
O1    O     O_R   0.935190 0.693030 0.507870 -0.580110
O2    O     O_R   0.064810 0.306970 0.492130 -0.579855
O3    O     O_R   0.142080 0.658430 0.482770 -0.639046
O4    O     O_R   0.857920 0.341570 0.517230 -0.639214
O5    O     O_R   0.969700 0.527180 0.651960 -0.574983
O6    O     O_R   0.030300 0.472820 0.348040 -0.572554
O7    O     O_R   0.176600 0.492580 0.626860 -0.633847
O8    O     O_R   0.823400 0.507420 0.373140 -0.635731
Zn1   Zn    Zn3+2 0.861850 0.523100 0.516760 0.928777
Zn2   Zn    Zn3+2 0.138150 0.476900 0.483240 0.932153

loop_
_geom_bond_atom_site_label_1
_geom_bond_atom_site_label_2
_ccdc_geom_bond_type
C4    N3    D    
O6    Zn2   S    
O7    Zn2   S    
H9    N7    S    
C28   N9    S    
O5    Zn1   S    
C8    C13   A    
H14   N9    S    
O2    Zn2   S    
C9    C11   A    
C3    N2    S    
C4    N10   S    
H17   N10   S    
C26   C28   D    
C20   C23   A    
H4    N4    S    
C10   C19   A    
C22   H22   S    
H10   N7    S    
C20   C21   A    
C9    N6    S    
H6    N5    S    
H15   N9    S    
C5    O7    A    
O3    Zn2   S    
C10   C13   A    
C21   C22   A    
H16   N10   S    
C6    O8    A    
C12   O4    A    
C2    C27   D    
C12   O2    A    
C15   H20   S    
C18   C24   A    
C15   C17   A    
H13   N8    S    
H3    N4    S    
C16   C18   A    
C16   C20   A    
C17   C19   A    
C7    C11   A    
C8    C15   A    
C22   C24   A    
C23   C25   A    
C25   H12   S    
C1    C26   S    
C19   C25   A    
C14   C16   A    
C14   H21   S    
C2    C28   S    
C12   C27   S    
N3    Zn1   S    
C3    C4    S    
C10   N7    S    
C26   H25   S    
C9    C18   A    
H7    N6    S    
O1    Zn1   S    
C27   H24   S    
H5    N5    S    
H2    N1    S    
H18   N2    S    
C6    O6    A    
H11   N8    S    
C5    C7    S    
H19   N2    S    
C6    C8    S    
C13   N4    S    
C1    O3    A    
O4    Zn1   S    
C24   H1    S    
N1    Zn2   S    
C3    N1    D    
C1    O1    A    
C5    O5    A    
C7    C14   A    
C11   N5    S    
C23   H23   S    
C2    N8    S    
O8    Zn1   S    
H8    N6    S    
H26   N3    S    
C17   C21   A    
