data_mof_unit_2449.cif
_audit_creation_date              2012-12-11T15:20:24-0500
_audit_creation_method            fapswitch 2.2
_symmetry_space_group_name_H-M    P1
_symmetry_Int_Tables_number       1
_space_group_crystal_system       triclinic
_cell_length_a                    12.929878
_cell_length_b                    13.030362
_cell_length_c                    15.299625
_cell_angle_alpha                 116.614508
_cell_angle_beta                  63.479471
_cell_angle_gamma                 97.166911
_cell_volume                      2052.91711576

loop_
_atom_site_label
_atom_site_type_symbol
_atom_type_description
_atom_site_fract_x
_atom_site_fract_y
_atom_site_fract_z
_atom_type_partial_charge
C1    C     C_R   0.010520 0.834798 0.041325 -0.117309
C2    C     C_R   0.298736 0.595900 0.790308 -0.139509
C3    C     C_R   0.260569 0.416529 0.046802 -0.148786
C4    C     C_R   0.677913 0.473935 0.218660 -0.124818
C5    C     C_R   0.983006 0.302506 0.698226 -0.129723
C6    C     C_R   0.363543 0.432646 0.971501 0.140415
C7    C     C_R   0.920733 0.208710 0.699282 0.081820
C8    C     C_R   0.293374 0.569800 0.694245 0.045345
C9    C     C_R   0.035287 0.143641 0.016067 0.053147
C10   C     C_R   0.964746 0.041320 0.420022 -0.172537
C11   C     C_R   0.938465 0.139284 0.515799 -0.240900
C12   C     C_R   0.667517 0.544026 0.322583 0.041612
C13   C     C_R   0.886396 0.131173 0.614592 0.025113
C14   C     C_R   0.829812 0.033023 0.620146 0.560141
C15   C     C_R   0.855171 0.934132 0.521445 -0.376719
C16   C     C_R   0.756372 0.519200 0.891964 -0.163934
C17   C     C_R   0.934348 0.936182 0.423171 0.121232
C18   C     C_R   0.562647 0.654488 0.522799 -0.164724
C19   C     C_R   0.468467 0.660647 0.616682 -0.171131
C20   C     C_R   0.371002 0.603862 0.609655 0.142848
C21   C     C_R   0.359308 0.562770 0.513024 -0.171417
C22   C     C_R   0.453675 0.555905 0.419184 -0.167941
C23   C     C_R   0.664116 0.456863 0.922391 0.158388
C24   C     C_R   0.559531 0.590252 0.422158 0.147749
C25   C     C_2   0.478033 0.388384 0.940253 -0.174548
C26   C     C_2   0.571206 0.433371 0.889936 -0.187589
C27   C     C_2   0.852230 0.962068 0.067056 -0.219474
C28   C     C_R   0.965925 0.720013 0.316642 -0.135749
C29   C     C_2   0.838495 0.048906 0.162597 -0.128002
C30   C     C_R   0.677333 0.419745 0.988023 -0.119531
C31   C     C_R   0.047764 0.819271 0.220232 -0.143924
C32   C     C_R   0.778439 0.552285 0.316279 -0.119778
C33   C     C_R   0.906775 0.747757 0.948712 -0.145103
C34   C     C_R   0.982881 0.829688 0.324406 0.085630
C35   C     C_R   0.924497 0.853951 0.017625 0.140674
C36   C     C_3   0.739951 0.934265 0.727437 0.253237
C37   C     C_3   0.679933 0.956973 0.846406 -0.937106
C38   C     C_R   0.339143 0.514534 0.947960 -0.112303
C39   C     C_R   0.902600 0.201375 0.792544 -0.123158
C40   C     C_R   0.197907 0.508785 0.694970 -0.120672
C41   C     C_R   0.065163 0.250314 0.074339 -0.126786
C42   C     C_R   0.970084 0.166497 0.973908 -0.100631
H1    H     H_    0.049478 0.901203 0.086814 0.085570
H2    H     H_    0.972924 0.216916 0.509747 0.130737
H3    H     H_    0.817030 0.855383 0.520652 0.108298
H4    H     H_    0.640534 0.690547 0.528763 0.096381
H5    H     H_    0.477482 0.700058 0.691584 0.106446
H6    H     H_    0.445769 0.513251 0.343773 0.107328
H7    H     H_    0.481549 0.340509 0.981463 0.125972
H8    H     H_    0.569089 0.477002 0.844764 0.121271
H9    H     H_    0.802318 0.968800 0.028320 0.137192
H10   H     H_    0.882582 0.045986 0.207539 0.127111
H11   H     H_    0.780093 0.547784 0.829655 0.089099
H12   H     H_    0.848870 0.145730 0.825852 0.151286
H13   H     H_    0.935225 0.695626 0.381988 0.082971
H14   H     H_    0.631721 0.355420 0.013485 0.090579
H15   H     H_    0.091489 0.885094 0.197022 0.083293
H16   H     H_    0.800411 0.589081 0.383364 0.081268
H17   H     H_    0.398061 0.551565 0.895755 0.090441
H18   H     H_    0.827136 0.888058 0.689665 0.079644
H19   H     H_    0.685923 0.879176 0.687660 0.107259
H20   H     H_    0.592932 0.004116 0.887299 0.266250
H21   H     H_    0.732620 0.009062 0.888919 0.239717
H22   H     H_    0.669286 0.873836 0.851898 0.209464
H23   H     H_    0.158669 0.486734 0.640332 0.082096
H24   H     H_    0.609622 0.446193 0.193336 0.091166
H25   H     H_    0.282497 0.524922 0.506026 0.105293
H26   H     H_    0.844969 0.730775 0.915369 0.100166
H27   H     H_    0.105189 0.265432 0.127088 0.087320
H28   H     H_    0.926596 0.104721 0.929275 0.088206
H29   H     H_    0.352586 0.655330 0.823145 0.085692
H30   H     H_    0.251609 0.364343 0.087496 0.092293
H31   H     H_    0.001059 0.343401 0.645851 0.084511
H32   H     H_    0.016088 0.047950 0.344726 0.112628
N1    N     N_R   0.037310 0.720000 0.995790 -0.043369
N2    N     N_R   0.824890 0.517960 0.936420 -0.038066
N3    N     N_R   0.003210 0.648190 0.211380 -0.038650
N4    N     N_R   0.774330 0.457010 0.995840 -0.044055
N5    N     N_R   0.053760 0.709140 0.151960 -0.037974
N6    N     N_R   0.853860 0.498840 0.211410 -0.039656
N7    N     N_R   0.974240 0.667310 0.936390 -0.042232
N8    N     N_R   0.225670 0.542990 0.004160 -0.046949
N9    N     N_R   0.946240 0.290860 0.848040 -0.049123
N10   N     N_R   0.146140 0.501160 0.788590 -0.038178
N11   N     N_R   0.025760 0.332690 0.063610 -0.039965
N12   N     N_R   0.962690 0.280000 0.004210 -0.045008
N13   N     N_R   0.209210 0.553840 0.847990 -0.038735
N14   N     N_R   0.175110 0.482040 0.063580 -0.042618
N15   N     N_R   0.996790 0.351810 0.788620 -0.039100
N16   N     N_R   0.790790 0.446160 0.152010 -0.040632
Ni1   Ni    Ni4+2 0.130310 0.630310 0.999970 0.212413
Ni2   Ni    Ni4+2 0.869690 0.369690 0.000030 0.215318
Ni3   Ni    Ni4+2 0.985640 0.509470 0.863740 0.208497
Ni4   Ni    Ni4+2 0.014360 0.490530 0.136260 0.213908
O1    O     O_3   0.748624 0.040371 0.721347 -0.646326

loop_
_geom_bond_atom_site_label_1
_geom_bond_atom_site_label_2
_ccdc_geom_bond_type
C22   H6    S    
N13   Ni1   S    
C27   C29   D    
C10   H32   S    
C40   N10   A    
C19   C20   A    
N10   N13   A    
C32   H16   S    
C3    C6    A    
C37   H20   S    
N11   N12   A    
N9    Ni2   S    
C9    C42   A    
C8    C20   S    
C18   C24   A    
C36   C37   S    
N2    N4    A    
C26   H8    S    
C19   H5    S    
C39   H12   S    
C10   C17   A    
N3    Ni4   S    
C42   H28   S    
C18   C19   A    
C23   C26   S    
C16   H11   S    
C1    H1    S    
C6    C38   A    
C42   N12   A    
C4    C12   A    
N5    Ni1   S    
N1    Ni1   S    
C28   C34   A    
C13   C14   A    
C12   C32   A    
C5    H31   S    
C18   H4    S    
C37   H21   S    
C28   H13   S    
C27   H9    S    
C4    N16   A    
N3    N5    A    
C5    N15   A    
N9    N15   A    
N14   Ni4   S    
C1    N1    A    
C23   C30   A    
C2    N13   A    
C5    C7    A    
N1    N7    A    
N4    Ni2   S    
C25   C26   D    
C30   H14   S    
N8    Ni1   S    
C30   N4    A    
N2    Ni3   S    
C32   N6    A    
N7    Ni3   S    
N11   Ni4   S    
N16   Ni2   S    
C31   C34   A    
C11   H2    S    
C28   N3    A    
C16   C23   A    
C40   H23   S    
C22   C24   A    
C17   C34   S    
C15   H3    S    
N6    Ni4   S    
C2    H29   S    
C14   O1    S    
C37   H22   S    
C1    C35   A    
C41   H27   S    
C15   C17   A    
C3    N14   A    
C16   N2    A    
C2    C8    A    
C36   H18   S    
C31   N5    A    
C21   H25   S    
C41   N11   A    
C12   C24   S    
C9    C41   A    
C27   C35   S    
C31   H15   S    
C3    H30   S    
C39   N9    A    
N12   Ni2   S    
C4    H24   S    
C11   C13   A    
C36   O1    S    
N8    N14   A    
C33   C35   A    
N10   Ni3   S    
N15   Ni3   S    
C25   H7    S    
C10   C11   A    
C38   H17   S    
C6    C25   S    
C7    C13   S    
C20   C21   A    
C7    C39   A    
C14   C15   A    
C8    C40   A    
C21   C22   A    
C33   N7    A    
N6    N16   A    
C38   N8    A    
C36   H19   S    
C33   H26   S    
C29   H10   S    
