data_mof_unit_2384.cif
_audit_creation_date              2012-10-26T19:21:32-0400
_audit_creation_method            fapswitch 2.2
_symmetry_space_group_name_H-M    P1
_symmetry_Int_Tables_number       1
_space_group_crystal_system       triclinic
_cell_length_a                    9.853459
_cell_length_b                    11.031068
_cell_length_c                    15.571335
_cell_angle_alpha                 96.023158
_cell_angle_beta                  79.51407
_cell_angle_gamma                 109.953722
_cell_volume                      1562.66072177

loop_
_atom_site_label
_atom_site_type_symbol
_atom_type_description
_atom_site_fract_x
_atom_site_fract_y
_atom_site_fract_z
_atom_type_partial_charge
C1    C     C_R   0.554607 0.745217 0.505174 0.525406
C2    C     C_2   0.460942 0.051029 0.515291 0.311171
C3    C     C_2   0.913943 0.474794 0.498284 0.377775
C4    C     C_2   0.062547 0.486855 0.519357 0.353208
C5    C     C_R   0.412007 0.483857 0.663283 0.540743
C6    C     C_R   0.587340 0.512451 0.336257 0.540077
C7    C     C_R   0.358443 0.450957 0.755599 -0.018277
C8    C     C_R   0.636093 0.506116 0.240535 -0.008278
C9    C     C_R   0.165708 0.331196 0.865629 -0.107184
C10   C     C_R   0.830016 0.512650 0.118394 -0.111915
C11   C     C_R   0.211232 0.381149 0.782723 -0.210311
C12   C     C_R   0.448070 0.256649 0.489334 0.557566
C13   C     C_R   0.784117 0.527980 0.207595 -0.210289
C14   C     C_R   0.459335 0.473481 0.814010 0.261448
C15   C     C_R   0.533943 0.470971 0.181635 0.253975
C16   C     C_R   0.418541 0.405748 0.891997 -0.046644
C17   C     C_R   0.576915 0.437473 0.092799 -0.043113
C18   C     C_R   0.267851 0.343018 0.921182 0.002887
C19   C     C_R   0.728062 0.469087 0.060033 0.014067
C20   C     C_R   0.522628 0.406939 0.944668 -0.064374
C21   C     C_R   0.473973 0.384976 0.034181 -0.065939
C22   C     C_3   0.379932 0.586614 0.185604 0.016398
C23   C     C_R   0.324976 0.310108 0.060934 0.270039
C24   C     C_3   0.218800 0.572007 0.195509 -0.367855
C25   C     C_3   0.590705 0.686733 0.824168 0.003069
C26   C     C_3   0.742329 0.785970 0.804462 -0.360148
C27   C     C_3   0.359644 0.021350 0.658666 -0.019681
C28   C     C_3   0.370422 0.079950 0.751053 -0.344799
C29   C     C_3   0.257394 0.817456 0.432244 0.023854
C30   C     C_3   0.192012 0.830876 0.353571 -0.331397
C31   C     C_3   0.134831 0.638696 0.631520 -0.002341
C32   C     C_3   0.065574 0.661522 0.724606 -0.378038
C33   C     C_3   0.892030 0.344789 0.369668 -0.017501
C34   C     C_R   0.672475 0.424379 0.911408 0.272364
C35   C     C_3   0.771681 0.257105 0.320802 -0.320121
C36   C     C_R   0.221524 0.291451 0.004541 0.281030
C37   C     C_R   0.775294 0.456454 0.969740 0.287483
C38   C     C_2   0.571870 0.883333 0.515742 0.218766
C39   C     C_2   0.437205 0.125182 0.460839 0.225224
C40   C     C_2   0.478037 0.924949 0.483114 0.297710
Cu1   Cu    Cu3+1 0.362980 0.479380 0.485080 0.997026
Cu2   Cu    Cu3+1 0.637020 0.520620 0.514920 1.024258
H1    H     H_    0.865438 0.559185 0.250701 0.128044
H2    H     H_    0.434314 0.669695 0.228448 0.159302
H3    H     H_    0.169954 0.565067 0.265535 0.122983
H4    H     H_    0.206140 0.656896 0.169597 0.090114
H5    H     H_    0.159944 0.483668 0.158642 0.183082
H6    H     H_    0.553238 0.690898 0.896091 0.124857
H7    H     H_    0.515724 0.713006 0.789635 0.114098
H8    H     H_    0.782989 0.783751 0.733109 0.151520
H9    H     H_    0.737954 0.884027 0.825739 0.112013
H10   H     H_    0.818971 0.764602 0.840031 0.162448
H11   H     H_    0.365729 0.231061 0.154795 0.337063
H12   H     H_    0.131385 0.363176 0.739373 0.189760
H13   H     H_    0.634878 0.337098 0.798845 0.347373
H14   H     H_    0.361455 0.920903 0.657738 0.111840
H15   H     H_    0.253510 0.019214 0.641896 0.102968
H16   H     H_    0.368760 0.180380 0.754119 0.161035
H17   H     H_    0.276512 0.022267 0.797390 0.101865
H18   H     H_    0.473642 0.080832 0.770661 0.170775
H19   H     H_    0.214159 0.870028 0.489829 0.076366
H20   H     H_    0.217405 0.713692 0.445277 0.134305
H21   H     H_    0.261179 0.814835 0.291799 0.178575
H22   H     H_    0.080491 0.759069 0.355392 0.070436
H23   H     H_    0.050487 0.279896 0.884941 0.207627
H24   H     H_    0.182328 0.928274 0.354661 0.187757
H25   H     H_    0.414154 0.155705 0.344422 0.315100
H26   H     H_    0.719729 0.916962 0.590860 0.323125
H27   H     H_    0.116891 0.704369 0.589145 0.034226
H28   H     H_    0.254238 0.668588 0.630621 0.164981
H29   H     H_    0.100587 0.611582 0.770323 0.162155
H30   H     H_    0.100943 0.766481 0.742719 0.079025
H31   H     H_    0.944583 0.624052 0.730367 0.214985
H32   H     H_    0.972801 0.293602 0.364042 0.150095
H33   H     H_    0.940819 0.438465 0.337217 0.083380
H34   H     H_    0.946001 0.534613 0.095475 0.179692
H35   H     H_    0.681744 0.297340 0.326230 0.163506
H36   H     H_    0.816393 0.247645 0.250547 0.109897
H37   H     H_    0.727907 0.159787 0.348182 0.195204
H38   H     H_    0.151324 0.452584 0.398054 0.170545
H39   H     H_    0.895142 0.632170 0.572808 0.170845
H40   H     H_    0.055442 0.203343 0.091501 0.368164
H41   H     H_    0.940511 0.466372 0.876213 0.362967
H42   H     H_    0.428510 0.607955 0.116108 0.115103
N1    N     N_2   0.842890 0.551600 0.537350 -0.317211
N2    N     N_2   0.157110 0.448400 0.462650 -0.330722
O1    O     O_R   0.426810 0.668300 0.492040 -0.515583
O2    O     O_3   0.922499 0.477643 0.940614 -0.718876
O3    O     O_3   0.392798 0.471942 0.210616 -0.510092
O4    O     O_3   0.597687 0.563110 0.795213 -0.505904
O5    O     O_3   0.280029 0.244093 0.137335 -0.682438
O6    O     O_3   0.718969 0.398261 0.824377 -0.667634
O7    O     O_3   0.478595 0.097040 0.600586 -0.522247
O8    O     O_3   0.412147 0.856896 0.412340 -0.537700
O9    O     O_3   0.426182 0.085771 0.374373 -0.729258
O10   O     O_3   0.667889 0.966100 0.567728 -0.677717
O11   O     O_3   0.078935 0.505596 0.606912 -0.509749
O12   O     O_R   0.573190 0.331700 0.507960 -0.403525
O13   O     O_3   0.834532 0.359784 0.458510 -0.487980
O14   O     O_R   0.658240 0.703130 0.517240 -0.526053
O15   O     O_R   0.341760 0.296870 0.482760 -0.507176
O16   O     O_R   0.319390 0.472820 0.610170 -0.468439
O17   O     O_R   0.680610 0.527180 0.389830 -0.511600
O18   O     O_R   0.550820 0.507640 0.635370 -0.433212
O19   O     O_R   0.449180 0.492360 0.364630 -0.447390
O20   O     O_3   0.074607 0.224253 0.029234 -0.706039

loop_
_geom_bond_atom_site_label_1
_geom_bond_atom_site_label_2
_ccdc_geom_bond_type
C1    O1    A    
C8    C13   A    
C30   H22   S    
C3    N1    D    
C34   C37   A    
Cu1   Cu2   S    
C37   O2    S    
Cu2   O17   S    
C32   H30   S    
C7    C11   A    
Cu1   N2    S    
C25   O4    S    
H26   O10   S    
Cu1   O19   S    
C24   H3    S    
C22   C24   S    
Cu2   O14   S    
Cu2   O12   S    
C29   O8    S    
C4    N2    D    
Cu1   O16   S    
C14   O4    S    
H38   N2    S    
C19   C37   A    
C17   C19   A    
C5    O16   A    
C10   H34   S    
C2    C39   D    
C33   H33   S    
C31   H28   S    
C22   H2    S    
H11   O5    S    
C2    C40   S    
C7    C14   A    
C12   O12   A    
C20   C34   A    
C31   O11   S    
H41   O2    S    
C5    O18   A    
C4    O11   S    
H25   O9    S    
C1    O14   A    
C32   H29   S    
C9    H23   S    
C28   H18   S    
Cu1   O1    S    
C29   H19   S    
C36   O20   S    
C27   H15   S    
C32   H31   S    
C5    C7    S    
C27   H14   S    
C6    C8    S    
C25   C26   S    
C35   H35   S    
C17   C21   A    
C33   O13   S    
C22   H42   S    
C29   C30   S    
C26   H10   S    
C15   O3    S    
C9    C18   A    
C31   C32   S    
C10   C19   A    
C16   C20   A    
Cu2   N1    S    
C6    O17   A    
C9    C11   A    
C25   H6    S    
C39   O9    S    
C30   H24   S    
C11   H12   S    
C1    C38   S    
H13   O6    S    
C8    C15   A    
C21   C23   A    
C14   C16   A    
C27   O7    S    
C3    C4    S    
C13   H1    S    
C28   H17   S    
C15   C17   A    
C29   H20   S    
C24   H5    S    
C2    O7    S    
C40   O8    S    
C10   C13   A    
Cu2   O18   S    
C28   H16   S    
C35   H36   S    
C24   H4    S    
C12   C39   S    
C26   H8    S    
C12   O15   A    
C26   H9    S    
C38   C40   D    
C6    O19   A    
C35   H37   S    
C33   C35   S    
C22   O3    S    
Cu1   O15   S    
C23   O5    S    
H40   O20   S    
C25   H7    S    
C3    O13   S    
C33   H32   S    
C31   H27   S    
C20   C21   A    
C16   C18   A    
C23   C36   A    
C38   O10   S    
C27   C28   S    
C30   H21   S    
C18   C36   A    
H39   N1    S    
C34   O6    S    
