data_mof_unit_4872.cif
_audit_creation_date              2013-03-05T15:54:37-0500
_audit_creation_method            fapswitch 2.2
_symmetry_space_group_name_H-M    P1
_symmetry_Int_Tables_number       1
_space_group_crystal_system       triclinic
_cell_length_a                    9.926309
_cell_length_b                    10.659681
_cell_length_c                    16.5177
_cell_angle_alpha                 90.659403
_cell_angle_beta                  84.287983
_cell_angle_gamma                 89.772179
_cell_volume                      1738.94277478

loop_
_atom_site_label
_atom_site_type_symbol
_atom_site_description
_atom_site_fract_x
_atom_site_fract_y
_atom_site_fract_z
_atom_type_partial_charge
O1    O     O_R   0.385310 0.683220 0.500000 -0.599694
O2    O     O_R   0.614640 0.683250 0.500010 -0.638450
C1    C     C_R   0.500498 0.739298 0.494816 0.970495
O3    O     O_R   0.371780 0.500010 0.615800 -0.634810
O4    O     O_R   0.601110 0.500030 0.615800 -0.627294
C2    C     C_R   0.480046 0.495680 0.653383 0.816271
Zn1   Zn    Zn3+2 0.346870 0.499980 0.499990 0.954091
Zn2   Zn    Zn3+2 0.653130 0.500020 0.500010 0.947814
O5    O     O_R   0.385360 0.316750 0.499990 -0.623786
O6    O     O_R   0.614690 0.316780 0.500000 -0.612266
O7    O     O_R   0.398890 0.499970 0.384200 -0.592007
O8    O     O_R   0.628220 0.499990 0.384200 -0.614031
C3    C     C_R   0.500422 0.260681 0.499322 0.850379
C4    C     C_R   0.520041 0.492629 0.346425 0.929105
C5    C     C_R   0.465595 0.455001 0.737027 -0.006772
C6    C     C_R   0.543774 0.508447 0.793709 -0.186833
C7    C     C_R   0.539613 0.458282 0.871114 -0.172378
C8    C     C_R   0.461734 0.350433 0.891445 0.075726
C9    C     C_R   0.384214 0.297109 0.833794 -0.097444
C10   C     C_R   0.384789 0.350144 0.757327 -0.198982
C11   C     C_R   0.431426 0.421095 0.136303 -0.087156
C12   C     C_R   0.423870 0.469119 0.214882 -0.244549
C13   C     C_R   0.652937 0.396498 0.226427 -0.197650
C14   C     C_R   0.659262 0.345630 0.148156 -0.150395
C15   C     C_R   0.547716 0.355406 0.103107 0.216875
C16   C     C_2   0.455124 0.299371 0.974571 0.254568
C17   C     C_2   0.562572 0.315501 0.017220 -0.327962
C18   C     C_R   0.534458 0.457391 0.260459 -0.057721
H1    H     H_    0.607429 0.588695 0.778073 0.132602
H2    H     H_    0.331208 0.514989 0.239966 0.160151
H3    H     H_    0.739109 0.384741 0.261082 0.157393
H4    H     H_    0.661854 0.331049 0.984845 0.142755
H5    H     H_    0.324395 0.213899 0.847467 0.168309
H6    H     H_    0.346913 0.438416 0.101362 0.168464
H7    H     H_    0.326650 0.306042 0.712755 0.152093
H8    H     H_    0.596994 0.504653 0.915052 0.140660
H9    H     H_    0.751345 0.299189 0.122559 0.154513
H10   H     H_    0.592654 0.885003 0.601799 0.135972
C19   C     C_R   0.407572 0.875395 0.351792 0.433493
C20   C     C_R   0.361007 0.947337 0.289049 -0.217452
H11   H     H_    0.326002 0.902456 0.235880 0.155277
C21   C     C_R   0.361856 0.077128 0.293058 -0.156954
H12   H     H_    0.327805 0.131451 0.243892 0.205924
C22   C     C_R   0.408673 0.137454 0.359458 -0.205805
H13   H     H_    0.411020 0.238647 0.358397 0.154865
C23   C     C_R   0.453235 0.068406 0.424550 0.028439
C24   C     C_R   0.452719 0.936295 0.421571 0.053807
C25   C     C_R   0.501589 0.872037 0.488120 -0.089601
C26   C     C_R   0.554372 0.935306 0.552045 -0.242115
H14   H     H_    0.593608 0.111974 0.604801 0.151364
C27   C     C_R   0.554955 0.063374 0.553930 -0.194519
C28   C     C_R   0.502261 0.128656 0.492038 -0.062694
H15   H     H_    0.890528 0.360174 0.409448 0.144551
C29   C     C_R   0.842869 0.664583 0.605355 -0.149471
H16   H     H_    0.735662 0.671631 0.609123 0.193848
C30   C     C_R   0.904460 0.744730 0.657359 -0.198173
H17   H     H_    0.843467 0.808089 0.697695 0.147838
C31   C     C_R   0.043737 0.743492 0.657786 -0.177500
H18   H     H_    0.091401 0.805770 0.698503 0.153576
C32   C     C_R   0.122294 0.662364 0.606016 -0.144859
H19   H     H_    0.228386 0.666649 0.610141 0.198080
C33   C     C_R   0.063550 0.580286 0.552121 0.164161
C34   C     C_R   0.919081 0.580763 0.551933 0.176932
N1    N     N_R   0.857140 0.501200 0.500750 -0.119770
C35   C     C_R   0.937143 0.423080 0.450176 -0.111562
H20   H     H_    0.140849 0.360344 0.409369 0.147790
C36   C     C_R   0.080174 0.423201 0.450132 -0.102519
N2    N     N_R   0.142740 0.501280 0.500770 -0.118770
O9    O     O_3   0.413266 0.746943 0.343794 -0.779791
H21   H     H_    0.377896 0.721347 0.292077 0.319857
N3    N     N_R   0.330394 0.247512 0.012218 0.202150
O10   O     O_R   0.214235 0.283668 0.990190 -0.414737
O11   O     O_R   0.332680 0.164821 0.069451 -0.403716

loop_
_geom_bond_atom_site_label_1
_geom_bond_atom_site_label_2
_geom_bond_distance
_ccdc_geom_bond_type
O4    Zn2   1.930807 S    
C13   C14   1.391706 A    
C23   C24   1.408599 A    
Zn1   O5    1.988700 S    
C33   C34   1.434340 A    
C27   C28   1.386686 A    
C7    H8    1.082463 S    
C15   C17   1.469434 S    
C3    C28   1.410988 S    
H15   C35   1.081846 S    
C29   H16   1.062091 S    
C9    C10   1.389246 A    
C8    C16   1.478302 S    
C33   N2    1.375560 A    
Zn2   O8    1.953080 S    
C4    C18   1.457630 S    
N1    C35   1.366972 A    
Zn1   N2    2.025007 S    
C20   C21   1.384453 A    
C7    C8    1.412910 A    
C19   O9    1.374501 S    
C36   N2    1.367303 A    
N3    O10   1.301397 A    
H10   C26   1.085354 S    
C12   C18   1.397499 A    
C11   C12   1.384689 A    
C22   H13   1.079330 S    
C32   C33   1.409782 A    
Zn1   O7    1.930807 S    
C16   N3    1.444050 S    
C16   C17   1.345972 D    
O9    H21   0.991221 S    
C21   C22   1.385639 A    
Zn2   N1    2.026407 S    
O3    Zn1   1.953080 S    
O4    C2    1.297793 A    
Zn2   O6    1.991690 S    
C25   C26   1.393131 A    
C30   C31   1.383237 A    
O2    C1    1.289641 A    
O1    C1    1.288070 A    
C5    C10   1.402628 A    
O7    C4    1.300164 A    
C29   C30   1.390450 A    
C31   H18   1.082808 S    
O3    C2    1.294413 A    
C13   C18   1.405118 A    
C21   H12   1.083041 S    
C17   H4    1.087695 S    
C31   C32   1.389980 A    
C5    C6    1.392568 A    
O8    C4    1.296715 A    
C23   C28   1.409244 A    
C1    C25   1.420545 S    
H20   C36   1.082003 S    
C14   C15   1.398362 A    
C6    H1    1.083784 S    
C19   C24   1.427804 A    
C8    C9    1.399605 A    
C9    H5    1.082790 S    
N3    O11   1.301728 A    
C19   C20   1.409486 A    
C30   H17   1.082907 S    
C14   H9    1.083493 S    
O5    C3    1.285977 A    
C29   C34   1.411695 A    
C20   H11   1.083193 S    
C11   C15   1.407901 A    
C11   H6    1.080994 S    
C12   H2    1.082897 S    
H14   C27   1.085080 S    
C2    C5    1.446474 S    
O1    Zn1   1.991690 S    
C10   H7    1.083894 S    
C35   C36   1.419697 A    
C32   H19   1.063179 S    
O2    Zn2   1.988698 S    
C24   C25   1.426063 A    
C6    C7    1.388439 A    
C22   C23   1.415518 A    
C34   N1    1.379562 A    
C26   C27   1.365209 A    
O6    C3    1.285314 A    
C13   H3    1.083196 S    
