data_mof_unit_346.cif
_audit_creation_date              2012-12-10T20:02:18-0500
_audit_creation_method            fapswitch 2.2
_symmetry_space_group_name_H-M    P1
_symmetry_Int_Tables_number       1
_space_group_crystal_system       triclinic
_cell_length_a                    10.76971
_cell_length_b                    14.969899
_cell_length_c                    14.222178
_cell_angle_alpha                 87.92687
_cell_angle_beta                  91.085452
_cell_angle_gamma                 90.233376
_cell_volume                      2290.995314

loop_
_atom_site_label
_atom_site_type_symbol
_atom_type_description
_atom_site_fract_x
_atom_site_fract_y
_atom_site_fract_z
_atom_type_partial_charge
C1    C     C_R   0.506636 0.327480 0.501912 0.898455
C2    C     C_R   0.499458 0.672226 0.497974 0.913329
C3    C     C_R   0.874868 0.492125 0.502028 -0.285077
C4    C     C_R   0.127791 0.523314 0.497910 -0.279295
C5    C     C_R   0.942426 0.500941 0.587127 -0.174788
C6    C     C_R   0.059693 0.521522 0.412792 -0.147390
C7    C     C_R   0.471626 0.091136 0.590507 0.349556
C8    C     C_R   0.400882 0.906624 0.439734 0.371893
C9    C     C_R   0.504554 0.180973 0.592112 0.415570
C10   C     C_R   0.421296 0.816183 0.427605 0.396226
C11   C     C_R   0.512401 0.230509 0.505937 -0.216680
C12   C     C_R   0.496957 0.768317 0.493682 -0.208513
C13   C     C_R   0.519126 0.185792 0.421495 -0.315884
C14   C     C_R   0.568634 0.812940 0.559401 -0.285547
C15   C     C_R   0.504697 0.094297 0.421550 -0.192925
C16   C     C_R   0.560302 0.904233 0.563953 -0.195441
C17   C     C_R   0.478439 0.047308 0.505501 -0.023524
C18   C     C_R   0.475279 0.951088 0.505567 -0.023482
C19   C     C_R   0.418623 0.444035 0.107559 -0.459982
C20   C     C_R   0.522713 0.573428 0.895367 -0.421075
C21   C     C_R   0.422825 0.442385 0.207046 0.599066
C22   C     C_R   0.535305 0.574401 0.795905 0.581545
C23   C     C_R   0.260724 0.510139 0.498905 0.923984
C24   C     C_R   0.740540 0.494260 0.501033 0.892954
C25   C     C_R   0.582748 0.552048 0.203708 -0.117808
C26   C     C_R   0.453160 0.427251 0.796357 -0.096584
C27   C     C_R   0.593072 0.545838 0.104347 0.341038
C28   C     C_R   0.465689 0.418608 0.895450 0.342200
C29   C     C_R   0.504562 0.494201 0.054409 0.017964
C30   C     C_R   0.499720 0.494130 0.947452 0.028153
C31   C     C_R   0.162176 0.696907 0.230512 -0.147460
C32   C     C_R   0.895685 0.358133 0.808570 -0.202880
C33   C     C_R   0.123142 0.657488 0.315799 0.053442
C34   C     C_R   0.921483 0.382302 0.714912 0.059207
C35   C     C_R   0.106746 0.563892 0.324178 0.150943
C36   C     C_R   0.895771 0.470017 0.680138 0.183612
C37   C     C_R   0.122642 0.512741 0.244716 -0.037987
C38   C     C_R   0.845075 0.531863 0.740155 -0.095796
C39   C     C_R   0.162271 0.552608 0.160128 -0.179970
C40   C     C_R   0.818072 0.506378 0.832805 -0.176629
C41   C     C_R   0.185772 0.644261 0.153860 -0.185467
C42   C     C_R   0.842625 0.419668 0.867004 -0.169377
C43   C     C_R   0.936504 0.495171 0.415149 0.438999
C44   C     C_R   0.066656 0.524471 0.584109 0.467817
H1    H     H_    0.216200 0.675160 0.088240 0.149160
H2    H     H_    0.822502 0.400500 0.939248 0.125431
H3    H     H_    0.514573 0.060079 0.356265 0.176454
H4    H     H_    0.621407 0.938298 0.612292 0.182001
H5    H     H_    0.346431 0.407238 0.072232 0.221150
H6    H     H_    0.530023 0.634268 0.933255 0.212909
H7    H     H_    0.171021 0.768698 0.222632 0.154769
H8    H     H_    0.919183 0.292414 0.837096 0.143790
H9    H     H_    0.103475 0.442115 0.248393 0.142693
H10   H     H_    0.828780 0.600131 0.715515 0.123741
H11   H     H_    0.173186 0.512626 0.099033 0.138703
H12   H     H_    0.779814 0.554468 0.878474 0.166222
H13   H     H_    0.536833 0.221323 0.355476 0.177844
H14   H     H_    0.633961 0.777099 0.604910 0.198472
N1    N     N_R   0.500000 0.499980 0.252470 -0.162017
N2    N     N_R   0.500000 0.500020 0.747530 -0.168738
O1    O     O_R   0.500010 0.369070 0.579480 -0.603201
O2    O     O_R   0.499990 0.630930 0.420520 -0.619071
O3    O     O_R   0.500010 0.369060 0.420520 -0.603110
O4    O     O_R   0.499990 0.630940 0.579480 -0.576697
O5    O     O_R   0.316760 0.500010 0.579480 -0.585854
O6    O     O_R   0.683240 0.499990 0.420520 -0.580341
O7    O     O_R   0.316760 0.500000 0.420520 -0.575617
O8    O     O_R   0.683240 0.500000 0.579480 -0.619908
Zn1   Zn    Zn3+2 0.500000 0.500010 0.606140 0.991457
Zn2   Zn    Zn3+2 0.500000 0.499990 0.393860 0.996421
O9    O     O_3   0.341197 0.390218 0.260331 -0.613727
C45   C     C_3   0.331566 0.301173 0.229640 0.059427
H15   H     H_    0.345776 0.255880 0.292139 0.178193
H16   H     H_    0.403346 0.282591 0.178306 0.130856
C46   C     C_3   0.200392 0.282783 0.191319 -0.368611
H17   H     H_    0.133668 0.287007 0.249564 0.215573
H18   H     H_    0.174213 0.333333 0.135495 0.215306
C47   C     C_3   0.190085 0.189958 0.151038 -0.940023
H19   H     H_    0.244668 0.187083 0.085994 0.269754
H20   H     H_    0.091489 0.175244 0.133130 0.262767
H21   H     H_    0.224714 0.138333 0.202962 0.262352
O10   O     O_3   0.574113 0.650011 0.743938 -0.621184
C48   C     C_3   0.635633 0.717156 0.795473 0.025140
H22   H     H_    0.710129 0.745879 0.750742 0.143873
H23   H     H_    0.686220 0.691690 0.859375 0.145552
C49   C     C_3   0.545349 0.792383 0.817242 -0.343048
H24   H     H_    0.502605 0.819612 0.750724 0.249311
H25   H     H_    0.469131 0.766357 0.862072 0.208461
C50   C     C_3   0.611861 0.868040 0.867024 -0.943308
H26   H     H_    0.655053 0.842590 0.934264 0.275719
H27   H     H_    0.544181 0.920982 0.882679 0.262669
H28   H     H_    0.684851 0.897911 0.821399 0.264948
C51   C     C_1   0.660476 0.612875 0.254892 0.308747
N3    N     N_1   0.724427 0.661007 0.295661 -0.235788
C52   C     C_1   0.374133 0.364758 0.749049 0.445691
N4    N     N_1   0.307967 0.315295 0.712229 -0.185161
O11   O     O_3   0.678543 0.597102 0.053860 -0.655311
C53   C     C_3   0.802850 0.578951 0.082402 0.072649
H29   H     H_    0.847488 0.537495 0.029857 0.147574
H30   H     H_    0.813421 0.539089 0.149436 0.127219
C54   C     C_3   0.872017 0.667939 0.091695 -0.289517
H31   H     H_    0.806194 0.721589 0.109372 0.229975
H32   H     H_    0.939348 0.661523 0.151017 0.206633
C55   C     C_3   0.939827 0.696248 0.002053 -0.914945
H33   H     H_    0.007661 0.644334 0.983504 0.252048
H34   H     H_    0.990830 0.759703 0.013259 0.247882
H35   H     H_    0.872674 0.707097 0.942798 0.261211
O12   O     O_3   0.433229 0.338215 0.939471 -0.658632
C56   C     C_3   0.541731 0.289892 0.965930 0.086627
H36   H     H_    0.571136 0.307548 0.038300 0.153161
H37   H     H_    0.620870 0.303360 0.917746 0.120499
C57   C     C_3   0.512001 0.190030 0.964428 -0.322194
H38   H     H_    0.424983 0.175809 0.002660 0.226885
H39   H     H_    0.497370 0.170852 0.890323 0.236690
C58   C     C_3   0.615689 0.133511 0.010144 -0.997014
H40   H     H_    0.706415 0.151166 0.978779 0.268228
H41   H     H_    0.596383 0.061650 0.999314 0.271110
H42   H     H_    0.620616 0.144311 0.086963 0.267481
C59   C     C_1   0.092298 0.714501 0.391640 0.172210
N5    N     N_1   0.066832 0.759927 0.452432 -0.242985
C60   C     C_1   0.979484 0.317959 0.656653 0.109545
N6    N     N_1   0.026067 0.266717 0.609670 -0.235667
O13   O     O_3   0.876668 0.475425 0.331245 -0.639999
C61   C     C_3   0.868345 0.381292 0.325885 0.103063
H43   H     H_    0.799620 0.353800 0.376890 0.148380
H44   H     H_    0.959951 0.348876 0.341383 0.118562
C62   C     C_3   0.826195 0.357645 0.226630 -0.353954
H45   H     H_    0.734357 0.388505 0.210064 0.216469
H46   H     H_    0.894438 0.384444 0.175064 0.202329
C63   C     C_3   0.815282 0.256765 0.216997 -0.989794
H47   H     H_    0.905167 0.223767 0.235194 0.273387
H48   H     H_    0.789787 0.242199 0.143146 0.263411
H49   H     H_    0.742324 0.229011 0.263964 0.264598
O14   O     O_3   0.130129 0.541665 0.667458 -0.619540
C64   C     C_3   0.115133 0.632757 0.689008 0.054285
H50   H     H_    0.105454 0.635946 0.766461 0.160735
H51   H     H_    0.029724 0.664232 0.656851 0.122412
C65   C     C_3   0.229745 0.687125 0.659905 -0.271432
H52   H     H_    0.313041 0.658915 0.697156 0.255746
H53   H     H_    0.242755 0.683027 0.582963 0.212014
C66   C     C_3   0.217126 0.785228 0.683522 -1.007448
H54   H     H_    0.133600 0.814932 0.647880 0.269908
H55   H     H_    0.300103 0.822894 0.658891 0.274178
H56   H     H_    0.209788 0.791718 0.760766 0.264563
O15   O     O_3   0.448408 0.044088 0.673892 -0.656467
C67   C     C_3   0.320466 0.049500 0.692229 0.108811
H57   H     H_    0.266270 0.011286 0.639651 0.119179
H58   H     H_    0.288304 0.120322 0.690222 0.167030
C68   C     C_3   0.296644 0.008587 0.790192 -0.321166
H59   H     H_    0.329237 0.938232 0.793955 0.227300
H60   H     H_    0.349813 0.046385 0.843504 0.220446
C69   C     C_3   0.158842 0.010671 0.813125 -0.976307
H61   H     H_    0.124972 0.080718 0.811902 0.277396
H62   H     H_    0.144586 0.980166 0.884448 0.265321
H63   H     H_    0.104017 0.972160 0.761362 0.266946
O16   O     O_3   0.314979 0.951420 0.381853 -0.652058
C70   C     C_3   0.210647 0.973848 0.434987 0.101009
H64   H     H_    0.229223 0.037239 0.471154 0.135880
H65   H     H_    0.186697 0.920419 0.488539 0.144039
C71   C     C_3   0.098712 0.987849 0.368577 -0.308625
H66   H     H_    0.119480 0.042207 0.315987 0.218957
H67   H     H_    0.080124 0.925513 0.330451 0.231624
C72   C     C_3   0.983056 0.012705 0.422171 -0.962163
H68   H     H_    0.958695 0.958376 0.473927 0.271130
H69   H     H_    0.903738 0.022830 0.371934 0.267168
H70   H     H_    0.999125 0.075657 0.459707 0.267173
O17   O     O_3   0.527819 0.218601 0.678137 -0.635001
C73   C     C_3   0.656903 0.214444 0.699916 0.097077
H71   H     H_    0.675115 0.260750 0.757778 0.168642
H72   H     H_    0.714196 0.238851 0.639666 0.117451
C74   C     C_3   0.697378 0.119680 0.733442 -0.329361
H73   H     H_    0.631238 0.092122 0.786056 0.265204
H74   H     H_    0.697829 0.075556 0.672507 0.214066
C75   C     C_3   0.827388 0.117793 0.777428 -1.000636
H75   H     H_    0.895737 0.146745 0.727497 0.281832
H76   H     H_    0.854094 0.047531 0.795197 0.272449
H77   H     H_    0.829364 0.155143 0.843193 0.259759
O18   O     O_3   0.364479 0.775189 0.352675 -0.634631
C76   C     C_3   0.446357 0.776686 0.275539 0.127288
H78   H     H_    0.427193 0.715788 0.235313 0.176652
H79   H     H_    0.546069 0.773718 0.297501 0.127768
C77   C     C_3   0.426355 0.859437 0.210203 -0.344976
H80   H     H_    0.325808 0.871170 0.197054 0.240285
H81   H     H_    0.466177 0.919137 0.243960 0.230530
C78   C     C_3   0.489728 0.848699 0.116129 -0.986886
H82   H     H_    0.590950 0.837611 0.127392 0.270118
H83   H     H_    0.476185 0.910223 0.071181 0.270368
H84   H     H_    0.449062 0.791215 0.078821 0.269600

loop_
_geom_bond_atom_site_label_1
_geom_bond_atom_site_label_2
_ccdc_geom_bond_type
C64   C65   S    
C74   H73   S    
C25   C51   S    
C51   N3    T    
C7    O15   S    
C27   C29   A    
C52   N4    T    
C1    C11   S    
C15   H3    S    
C2    C12   S    
C16   H4    S    
C57   H39   S    
O18   C76   S    
O13   C61   S    
C39   C41   A    
C20   C30   A    
C6    C35   S    
C74   H74   S    
C3    C43   A    
C54   H31   S    
C21   O9    S    
C22   O10   S    
O16   C70   S    
C19   C21   A    
C21   N1    A    
C68   H60   S    
C22   N2    A    
C47   H20   S    
C78   H83   S    
C13   H13   S    
C58   H40   S    
C5    C36   S    
O12   C56   S    
O2    Zn2   S    
C64   H51   S    
C42   H2    S    
C23   O7    A    
C77   H80   S    
C55   H33   S    
C20   H6    S    
C56   H37   S    
C75   H75   S    
C73   C74   S    
C39   H11   S    
C72   H68   S    
O8    Zn1   S    
C40   H12   S    
C69   H63   S    
C50   H27   S    
C64   H50   S    
C24   O6    A    
C76   C77   S    
C37   H9    S    
C40   C42   A    
C70   H65   S    
C70   H64   S    
C3    C24   S    
C45   C46   S    
C1    O3    A    
C55   H34   S    
C57   H38   S    
C2    O4    A    
O11   C53   S    
C67   H58   S    
C44   O14   S    
C14   H14   S    
C74   C75   S    
C49   H25   S    
C10   O18   S    
C71   C72   S    
C32   H8    S    
C9    O17   S    
C72   H70   S    
C4    C6    A    
C56   C57   S    
O17   C73   S    
C4    C23   S    
C47   H19   S    
C78   H84   S    
C4    C44   A    
C58   H41   S    
C65   C66   S    
C66   H56   S    
C8    C18   A    
C1    O1    A    
C77   C78   S    
C71   H67   S    
C63   H48   S    
C46   H17   S    
C62   H46   S    
C29   C30   S    
C67   C68   S    
C9    C11   A    
C19   H5    S    
C48   H22   S    
C38   H10   S    
O3    Zn2   S    
C58   H42   S    
C31   C33   A    
C17   C18   S    
C16   C18   A    
O4    Zn1   S    
C50   H28   S    
C46   H18   S    
C75   H77   S    
C60   N6    T    
C10   C12   A    
C61   C62   S    
C45   H16   S    
C73   H71   S    
C48   H23   S    
C5    C44   A    
C69   H62   S    
C33   C59   S    
C34   C60   S    
C53   H30   S    
C6    C43   A    
C13   C15   A    
C14   C16   A    
C68   C69   S    
C63   H49   S    
C20   C22   A    
C62   H45   S    
C19   C29   A    
C43   O13   S    
O15   C67   S    
C61   H44   S    
C67   H57   S    
O1    Zn1   S    
C26   C52   S    
C15   C17   A    
C27   O11   S    
C32   C42   A    
C31   C41   A    
C77   H81   S    
C35   C37   A    
C49   H24   S    
C8    C10   A    
C31   H7    S    
C45   H15   S    
C3    C5    A    
C49   C50   S    
C7    C17   A    
C59   N5    T    
O14   C64   S    
C65   H53   S    
C70   C71   S    
C25   C27   A    
C53   C54   S    
C26   C28   A    
O7    Zn2   S    
C71   H66   S    
C23   O5    A    
C66   H55   S    
C63   H47   S    
C12   C14   A    
C62   C63   S    
C28   C30   A    
C37   C39   A    
C66   H54   S    
C36   C38   A    
C38   C40   A    
C11   C13   A    
C47   H21   S    
C78   H82   S    
O6    Zn2   S    
N2    Zn1   S    
C28   O12   S    
O5    Zn1   S    
C73   H72   S    
C33   C35   A    
C34   C36   A    
C55   H35   S    
C8    O16   S    
C46   C47   S    
C75   H76   S    
C65   H52   S    
C24   O8    A    
N1    Zn2   S    
C76   H78   S    
C7    C9    A    
O9    C45   S    
C48   C49   S    
C69   H61   S    
C54   H32   S    
C53   H29   S    
C56   H36   S    
C41   H1    S    
C72   H69   S    
C54   C55   S    
C25   N1    A    
O10   C48   S    
C50   H26   S    
C68   H59   S    
C26   N2    A    
C57   C58   S    
C2    O2    A    
C32   C34   A    
C61   H43   S    
C76   H79   S    
