data_mof_unit_4623.cif
_audit_creation_date              2012-12-10T16:57:51-0500
_audit_creation_method            fapswitch 2.2
_symmetry_space_group_name_H-M    P1
_symmetry_Int_Tables_number       1
_space_group_crystal_system       triclinic
_cell_length_a                    10.625224
_cell_length_b                    10.903616
_cell_length_c                    9.752287
_cell_angle_alpha                 89.108489
_cell_angle_beta                  90.673837
_cell_angle_gamma                 90.164094
_cell_volume                      1129.61628553

loop_
_atom_site_label
_atom_site_type_symbol
_atom_type_description
_atom_site_fract_x
_atom_site_fract_y
_atom_site_fract_z
_atom_type_partial_charge
C1    C     C_R   0.494631 0.265587 0.500853 0.851305
C2    C     C_3   0.956794 0.591592 0.414421 -0.201336
C3    C     C_3   0.036164 0.480460 0.372123 0.125854
C4    C     C_3   0.122463 0.499095 0.497201 -0.046519
C5    C     C_2   0.477108 0.934055 0.397137 -0.260605
C6    C     C_2   0.532497 0.865261 0.496574 -0.138837
C7    C     C_2   0.485510 0.067740 0.390141 -0.106063
C8    C     C_2   0.480329 0.133701 0.504355 -0.275905
C9    C     C_2   0.594729 0.472160 0.923947 -0.099249
C10   C     C_2   0.583775 0.449884 0.076161 -0.024317
C11   C     C_R   0.259545 0.498646 0.499111 0.772288
C12   C     C_R   0.506626 0.734366 0.499222 0.773967
C13   C     C_R   0.740347 0.501866 0.500735 0.803705
C14   C     C_3   0.041712 0.411391 0.584532 -0.208642
C15   C     C_3   0.954472 0.391990 0.458213 -0.178623
C16   C     C_3   0.876991 0.503022 0.501929 -0.024847
C17   C     C_3   0.961575 0.522169 0.628866 -0.150081
C18   C     C_3   0.043577 0.608746 0.540780 0.108129
Cu1   Cu    Cu3+1 0.500030 0.500020 0.638630 0.947923
Cu2   Cu    Cu3+1 0.499970 0.499980 0.361370 0.912272
H1    H     H_    0.914678 0.302912 0.424755 0.138920
H2    H     H_    0.465883 0.089567 0.603616 0.149536
H3    H     H_    0.687182 0.466631 0.878774 0.156217
H4    H     H_    0.414497 0.465239 0.882295 0.210498
H5    H     H_    0.655873 0.393787 0.125342 0.131337
H6    H     H_    0.078972 0.337852 0.653642 0.147173
H7    H     H_    0.926981 0.541714 0.733098 0.138602
H8    H     H_    0.919380 0.665292 0.345621 0.128448
H9    H     H_    0.417933 0.891096 0.319992 0.158409
H10   H     H_    0.490490 0.111602 0.289582 0.167221
N1    N     N_2   0.498620 0.498660 0.846910 -0.277684
N2    N     N_2   0.498590 0.498630 0.153040 -0.177916
O1    O     O_R   0.500020 0.321960 0.617040 -0.577024
O2    O     O_R   0.499980 0.321920 0.382900 -0.578485
O3    O     O_R   0.316870 0.499990 0.617050 -0.587390
O4    O     O_R   0.316830 0.499950 0.382910 -0.610553
O5    O     O_R   0.500020 0.678080 0.617100 -0.528935
O6    O     O_R   0.499980 0.678040 0.382960 -0.606484
O7    O     O_R   0.683170 0.500050 0.617090 -0.580232
O8    O     O_R   0.683130 0.500010 0.382950 -0.588052
C19   C     C_3   0.422254 0.603423 0.104457 -0.097919
C20   C     C_3   0.500693 0.717257 0.062028 -0.337158
C21   C     C_3   0.415495 0.820631 0.009257 -0.864603
H11   H     H_    0.365092 0.792061 0.914449 0.263983
H12   H     H_    0.345412 0.845018 0.087791 0.229852
H13   H     H_    0.473198 0.903044 0.984925 0.266773
H14   H     H_    0.556770 0.750424 0.150643 0.231053
H15   H     H_    0.568219 0.696997 0.980063 0.247487
H16   H     H_    0.350539 0.578642 0.027287 0.109958
H17   H     H_    0.361853 0.632367 0.189410 0.198269
C22   C     C_3   0.102025 0.729563 0.587490 -0.432262
C23   C     C_3   0.001595 0.822459 0.627106 -0.319674
C24   C     C_3   0.062540 0.941516 0.675233 -0.838591
H18   H     H_    0.125621 0.923271 0.764871 0.250938
H19   H     H_    0.117953 0.984299 0.591151 0.252009
H20   H     H_    0.988774 0.006919 0.706363 0.238673
H21   H     H_    0.939265 0.842818 0.537324 0.233733
H22   H     H_    0.943141 0.783778 0.711196 0.231740
H23   H     H_    0.164869 0.710329 0.677149 0.208539
H24   H     H_    0.159929 0.768010 0.502807 0.188279
C25   C     C_3   0.078965 0.455411 0.226091 -0.383046
C26   C     C_3   0.966565 0.433001 0.129751 -0.352122
C27   C     C_3   0.010371 0.403869 0.985500 -0.875569
H25   H     H_    0.064176 0.482449 0.941754 0.252876
H26   H     H_    0.070936 0.320974 0.987523 0.257187
H27   H     H_    0.927260 0.385728 0.918737 0.237296
H28   H     H_    0.909649 0.354564 0.168894 0.219540
H29   H     H_    0.905694 0.515769 0.124932 0.220032
H30   H     H_    0.133926 0.535557 0.188057 0.191220
H31   H     H_    0.140874 0.373398 0.228480 0.205772
C28   C     C_2   0.631517 0.912663 0.592098 0.821812
O9    O     O_2   0.643403 0.868209 0.707424 -0.607127
O10   O     O_R   0.714015 0.005095 0.548323 -0.764987
H32   H     H_    0.775009 0.030981 0.623122 0.322012

loop_
_geom_bond_atom_site_label_1
_geom_bond_atom_site_label_2
_ccdc_geom_bond_type
C25   H31   S    
C1    O2    A    
C8    H2    S    
C21   H11   S    
C27   H26   S    
C26   C27   S    
C16   C17   S    
C2    C18   S    
C1    C8    S    
C2    C16   S    
C19   C20   S    
Cu1   Cu2   S    
C26   H29   S    
N2    C19   S    
C4    C18   S    
Cu1   N1    S    
C24   H20   S    
C11   O3    A    
C2    C3    S    
C3    C4    S    
C27   H27   S    
Cu2   O2    S    
C28   O9    D    
C7    H10   S    
C20   H15   S    
C24   H18   S    
C14   H6    S    
C4    C11   S    
C12   O6    A    
C21   H12   S    
C14   C17   S    
C6    C28   S    
C15   H1    S    
C23   H22   S    
C26   H28   S    
C5    C6    D    
Cu1   O7    S    
C10   H5    S    
C19   H16   S    
C11   O4    A    
Cu1   O3    S    
C18   C22   S    
C17   C18   S    
C5    H9    S    
C20   H14   S    
C24   H19   S    
O10   H32   S    
C4    C14   S    
C25   C26   S    
Cu2   O8    S    
C21   H13   S    
H4    N1    S    
C22   H23   S    
C23   H21   S    
C9    N1    D    
C3    C25   S    
C1    O1    A    
C22   C23   S    
C17   H7    S    
C6    C12   S    
C10   N2    D    
C19   H17   S    
C7    C8    D    
Cu2   O6    S    
C23   C24   S    
C5    C7    S    
Cu2   N2    S    
C13   C16   S    
C25   H30   S    
C12   O5    A    
C28   O10   S    
C14   C15   S    
C9    H3    S    
C3    C15   S    
C2    H8    S    
C22   H24   S    
Cu1   O5    S    
Cu1   O1    S    
C13   O7    A    
C15   C16   S    
C20   C21   S    
C9    C10   S    
C27   H25   S    
C13   O8    A    
Cu2   O4    S    
