data_mof_unit_2425.cif
_audit_creation_date              2012-12-11T14:21:05-0500
_audit_creation_method            fapswitch 2.2
_symmetry_space_group_name_H-M    P1
_symmetry_Int_Tables_number       1
_space_group_crystal_system       triclinic
_cell_length_a                    11.520989
_cell_length_b                    11.51639
_cell_length_c                    19.532032
_cell_angle_alpha                 90.464743
_cell_angle_beta                  89.993182
_cell_angle_gamma                 59.827807
_cell_volume                      2240.31252416

loop_
_atom_site_label
_atom_site_type_symbol
_atom_type_description
_atom_site_fract_x
_atom_site_fract_y
_atom_site_fract_z
_atom_type_partial_charge
C1    C     C_R   0.640582 0.117663 0.599204 0.540576
C2    C     C_1   0.651482 0.683537 0.664149 0.001195
C3    C     C_1   0.146475 0.188679 0.863133 -0.001446
C4    C     C_1   0.226916 0.145248 0.735529 -0.031809
C5    C     C_1   0.187436 0.164571 0.805005 -0.030818
C6    C     C_1   0.258184 0.133070 0.675898 0.001054
C7    C     C_1   0.678174 0.191171 0.860848 -0.000147
C8    C     C_1   0.658208 0.167576 0.729039 -0.032869
C9    C     C_1   0.665226 0.181031 0.800375 -0.033342
C10   C     C_1   0.652840 0.150071 0.668606 0.001486
C11   C     C_R   0.660343 0.678180 0.191328 -0.007538
C12   C     C_R   0.613804 0.743425 0.597967 0.537576
C13   C     C_R   0.534706 0.725421 0.222552 0.030220
C14   C     C_R   0.532592 0.699039 0.292050 0.037237
C15   C     C_R   0.764092 0.650649 0.302208 -0.149253
C16   C     C_R   0.774706 0.640884 0.231687 -0.139020
C17   C     C_R   0.414324 0.782050 0.184547 -0.077367
C18   C     C_R   0.298833 0.791954 0.212694 -0.075987
C19   C     C_R   0.301465 0.747339 0.278697 -0.106077
C20   C     C_R   0.418235 0.696673 0.317325 -0.084992
C21   C     C_R   0.643290 0.680634 0.333333 -0.002773
C22   C     C_R   0.154416 0.186557 0.189342 -0.004432
C23   C     C_R   0.297772 0.120226 0.605358 0.557947
C24   C     C_R   0.213845 0.254510 0.219095 -0.012701
C25   C     C_R   0.207315 0.269807 0.290334 0.028877
C26   C     C_R   0.149271 0.092968 0.299295 -0.153586
C27   C     C_R   0.122149 0.106099 0.229835 -0.145378
C28   C     C_R   0.262869 0.321510 0.178545 -0.085925
C29   C     C_R   0.271115 0.430913 0.205170 0.272543
C30   C     C_R   0.248196 0.457723 0.275001 -0.116380
C31   C     C_R   0.214565 0.381348 0.316748 -0.139618
C32   C     C_R   0.191171 0.174338 0.330835 0.010361
C33   C     C_R   0.664602 0.181890 0.191381 -0.010737
C34   C     C_R   0.647059 0.111489 0.402132 0.546229
C35   C     C_R   0.738465 0.050438 0.217215 0.029271
C36   C     C_R   0.762901 0.034312 0.287908 0.037255
C37   C     C_R   0.588057 0.268221 0.305901 -0.157078
C38   C     C_R   0.590071 0.290105 0.236273 -0.140258
C39   C     C_R   0.801584 0.936713 0.173343 -0.084278
C40   C     C_R   0.907264 0.816270 0.196703 -0.117759
C41   C     C_R   0.946445 0.805603 0.264572 -0.140408
C42   C     C_R   0.876198 0.912910 0.309838 -0.093495
C43   C     C_R   0.673853 0.140980 0.332805 -0.002891
C44   C     C_R   0.084410 0.229705 0.929287 0.535792
C45   C     C_R   0.616885 0.735860 0.402759 0.542633
C46   C     C_R   0.709126 0.546296 0.922596 0.561713
C47   C     C_R   0.707996 0.206455 0.930199 0.534594
C48   C     C_R   0.086697 0.232843 0.123880 0.537273
C49   C     C_R   0.681272 0.616243 0.124159 0.544370
C50   C     C_R   0.704886 0.209414 0.125366 0.536012
C51   C     C_R   0.243992 0.142878 0.400815 0.554104
C52   C     C_1   0.698832 0.581325 0.851780 0.000945
C53   C     C_1   0.672879 0.645006 0.722367 -0.029951
C54   C     C_1   0.689113 0.609089 0.791969 -0.032920
Cr1   Cr    Cr6+3 0.404720 0.198220 0.499960 1.015103
Cr2   Cr    Cr6+3 0.698290 0.897110 0.500380 1.019109
Cr3   Cr    Cr6+3 0.396970 0.904720 0.499610 1.021978
Cr4   Cr    Cr6+3 0.926180 0.151990 0.028120 1.007997
Cr5   Cr    Cr6+3 0.921330 0.451820 0.027470 1.000447
Cr6   Cr    Cr6+3 0.626260 0.446870 0.028710 1.005894
H1    H     H_    0.255172 0.539489 0.297640 0.107188
H2    H     H_    0.185512 0.418980 0.368344 0.145981
H3    H     H_    0.522186 0.351489 0.339088 0.126293
H4    H     H_    0.774050 0.942966 0.119909 0.123528
H5    H     H_    0.960542 0.732135 0.161795 0.119303
H6    H     H_    0.030063 0.713188 0.282639 0.105942
H7    H     H_    0.917721 0.900490 0.360519 0.138399
H8    H     H_    0.411081 0.813872 0.132195 0.111620
H9    H     H_    0.873708 0.598346 0.209073 0.147248
H10   H     H_    0.208211 0.830968 0.182766 0.115844
H11   H     H_    0.212184 0.754199 0.300563 0.091830
H12   H     H_    0.417682 0.654758 0.366574 0.128981
H13   H     H_    0.132210 0.023688 0.328848 0.126658
H14   H     H_    0.071142 0.057004 0.208375 0.144877
O1    O     O_R   0.267740 0.231960 0.575440 -0.502758
O2    O     O_R   0.685970 0.784660 0.430010 -0.494087
O3    O     O_R   0.502530 0.767000 0.423990 -0.529768
O4    O     O_R   0.288330 0.026350 0.429250 -0.489025
O5    O     O_3   0.499990 0.000020 0.499980 -0.265135
O6    O     O_R   0.821500 0.119340 0.952830 -0.506587
O7    O     O_R   0.037130 0.162530 0.957360 -0.495265
O8    O     O_R   0.056440 0.344740 0.951340 -0.520132
O9    O     O_R   0.797900 0.560360 0.957470 -0.491822
O10   O     O_R   0.596130 0.579390 0.952730 -0.513626
O11   O     O_R   0.639060 0.321160 0.958670 -0.517061
O12   O     O_R   0.527280 0.186640 0.570530 -0.511369
O13   O     O_R   0.821240 0.124200 0.104370 -0.521905
O14   O     O_R   0.036890 0.167040 0.097840 -0.504114
O15   O     O_R   0.056180 0.349610 0.102880 -0.532075
O16   O     O_R   0.797660 0.564870 0.097950 -0.503319
O17   O     O_R   0.595880 0.584250 0.104270 -0.515712
O18   O     O_R   0.638830 0.325670 0.099150 -0.490795
O19   O     O_3   0.824590 0.350230 0.028100 -0.258687
O20   O     O_R   0.728090 0.003450 0.576380 -0.503477
O21   O     O_R   0.682970 0.789190 0.570490 -0.495559
O22   O     O_R   0.499290 0.771880 0.575530 -0.513846
O23   O     O_R   0.285330 0.030870 0.569730 -0.488953
O24   O     O_R   0.270980 0.227080 0.423890 -0.528988
O25   O     O_R   0.530280 0.182120 0.430050 -0.495535
O26   O     O_R   0.731330 0.998570 0.424830 -0.528908
H15   H     H_    0.850262 0.632965 0.332425 0.128006
O27   O     O_3   0.299356 0.515213 0.166374 -0.573443
C55   C     C_3   0.267493 0.517175 0.096232 -0.009263
H16   H     H_    0.168738 0.522880 0.089090 0.135105
H17   H     H_    0.348429 0.426605 0.069814 0.140993
C56   C     C_3   0.257538 0.640319 0.062509 -0.356555
H18   H     H_    0.351561 0.642750 0.070350 0.190991
H19   H     H_    0.241190 0.637098 0.006664 0.099265
H20   H     H_    0.171490 0.732867 0.084369 0.128303
H21   H     H_    0.537377 0.392349 0.218012 0.192622
H22   H     H_    0.286381 0.292515 0.125309 0.100234

loop_
_geom_bond_atom_site_label_1
_geom_bond_atom_site_label_2
_ccdc_geom_bond_type
C18   H10   S    
Cr2   O21   S    
C22   C48   S    
C25   C31   A    
Cr2   O2    S    
C11   C13   A    
C41   C42   A    
Cr3   O5    S    
C19   H11   S    
C35   C36   A    
Cr5   O8    S    
C49   O16   A    
C2    C12   S    
Cr4   O13   S    
C53   C54   S    
C26   C32   A    
C39   H4    S    
C26   C27   A    
C29   C30   A    
Cr2   O5    S    
C45   O2    A    
C47   O11   A    
C14   C21   A    
C28   C29   A    
Cr4   O19   S    
Cr5   O9    S    
C44   O8    A    
C35   C39   A    
C56   H18   S    
C15   C16   A    
C46   C52   S    
C26   H13   S    
C18   C19   A    
Cr5   O15   S    
C36   C42   A    
C19   C20   A    
C8    C9    S    
Cr3   O22   S    
C34   O26   A    
C48   O14   A    
C12   O21   A    
C38   H21   S    
C27   H14   S    
Cr4   O6    S    
Cr1   O1    S    
Cr6   O19   S    
C51   O24   A    
C13   C14   A    
C31   H2    S    
C47   O6    A    
C49   O17   A    
C37   H3    S    
C52   C54   T    
C34   O25   A    
C21   C45   S    
Cr6   O18   S    
C28   H22   S    
C3    C44   S    
C1    C10   S    
Cr3   O3    S    
C24   C25   A    
C4    C6    T    
C44   O7    A    
Cr4   O7    S    
C39   C40   A    
C1    O20   A    
C33   C50   S    
Cr5   O16   S    
C7    C47   S    
C37   C43   A    
Cr2   O20   S    
C32   C51   S    
C37   C38   A    
C11   C49   S    
C14   C20   A    
Cr1   O5    S    
C11   C16   A    
Cr3   O23   S    
C17   C18   A    
C55   H17   S    
C15   H15   S    
C50   O13   A    
C46   O10   A    
C50   O18   A    
C40   C41   A    
C23   O23   A    
C40   H5    S    
C42   H7    S    
C22   C24   A    
Cr2   O26   S    
Cr6   O17   S    
C1    O12   A    
C7    C9    T    
C17   H8    S    
Cr3   O4    S    
C12   O22   A    
C16   H9    S    
C24   C28   A    
C23   O1    A    
C4    C5    S    
C3    C5    T    
C2    C53   T    
Cr4   O14   S    
Cr6   O11   S    
C41   H6    S    
C22   C27   A    
C33   C38   A    
C13   C17   A    
C48   O15   A    
Cr1   O12   S    
C51   O4    A    
Cr6   O10   S    
C30   C31   A    
C56   H19   S    
C25   C32   A    
C6    C23   S    
Cr1   O24   S    
C33   C35   A    
C29   O27   S    
C55   C56   S    
O27   C55   S    
C46   O9    A    
C15   C21   A    
C8    C10   T    
C30   H1    S    
Cr1   O25   S    
C55   H16   S    
C20   H12   S    
C36   C43   A    
C45   O3    A    
Cr5   O19   S    
C34   C43   S    
C56   H20   S    
