data_mof_unit_651.cif
_audit_creation_date              2012-12-11T16:35:17-0500
_audit_creation_method            fapswitch 2.2
_symmetry_space_group_name_H-M    P1
_symmetry_Int_Tables_number       1
_space_group_crystal_system       triclinic
_cell_length_a                    6.925969
_cell_length_b                    17.553138
_cell_length_c                    19.64307
_cell_angle_alpha                 109.010925
_cell_angle_beta                  90.107845
_cell_angle_gamma                 90.459675
_cell_volume                      2257.70570542

loop_
_atom_site_label
_atom_site_type_symbol
_atom_type_description
_atom_site_fract_x
_atom_site_fract_y
_atom_site_fract_z
_atom_type_partial_charge
O1    O     O_R   0.505700 0.440210 0.561730 -0.542033
O2    O     O_R   0.169350 0.406300 0.412660 -0.538074
O3    O     O_R   0.005650 0.559790 0.438270 -0.536009
C1    C     C_R   0.339304 0.381900 0.385736 0.784273
O4    O     O_R   0.175560 0.430650 0.559600 -0.542658
O5    O     O_R   0.011900 0.584320 0.586250 -0.526160
C2    C     C_R   0.343952 0.417613 0.582888 0.719650
O6    O     O_R   0.499450 0.415680 0.413750 -0.534556
O7    O     O_3   0.341370 0.550390 0.508570 -0.370926
V1    V     V_3+5 0.063940 0.490650 0.498410 1.425529
O8    O     O_R   0.682570 0.593700 0.587340 -0.548057
C3    C     C_R   0.851751 0.616984 0.614879 0.712841
O9    O     O_R   0.676370 0.569350 0.440400 -0.551422
C4    C     C_R   0.844987 0.583179 0.417787 0.726535
V2    V     V_3+5 0.564750 0.509350 0.501590 1.400664
O10   O     O_3   0.837190 0.449610 0.491430 -0.372621
C5    C     C_R   0.045314 0.701455 0.301929 -0.156407
H1    H     H_    0.185989 0.721048 0.289919 0.102125
C6    C     C_R   0.034894 0.655561 0.348206 -0.161116
H2    H     H_    0.167930 0.640645 0.369817 0.120176
C7    C     C_R   0.855388 0.630817 0.367522 -0.036927
C8    C     C_R   0.686580 0.652228 0.338363 -0.191662
H3    H     H_    0.545920 0.633637 0.351464 0.116120
C9    C     C_R   0.697154 0.697535 0.291444 -0.142112
H4    H     H_    0.564478 0.711612 0.269062 0.106937
C10   C     C_R   0.876747 0.722945 0.272641 0.106920
C11   C     C_R   0.749784 0.829089 0.223228 -0.132293
H5    H     H_    0.631545 0.840838 0.261112 0.112127
C12   C     C_R   0.763339 0.874202 0.176305 -0.157495
H6    H     H_    0.654211 0.919028 0.179210 0.135761
C13   C     C_R   0.917116 0.863098 0.127343 -0.091618
C14   C     C_R   0.056770 0.803910 0.125721 0.142355
C15   C     C_R   0.041307 0.758884 0.172782 -0.156098
H7    H     H_    0.147534 0.712912 0.169423 0.134023
C16   C     C_R   0.889143 0.771001 0.222345 0.048503
H8    H     H_    0.555954 0.659417 0.921842 0.152985
C17   C     C_R   0.137278 0.880601 0.756317 -0.177124
C18   C     C_R   0.238440 0.881958 0.695975 -0.188824
C19   C     C_R   0.191504 0.827981 0.627867 0.334987
C20   C     C_R   0.032893 0.774378 0.621518 0.234074
C21   C     C_R   0.965461 0.758981 0.684899 -0.046488
C22   C     C_R   0.004385 0.818108 0.753058 0.049266
C23   C     C_R   0.860846 0.687575 0.682285 -0.178278
C24   C     C_R   0.778336 0.680654 0.746281 0.077122
C25   C     C_R   0.798849 0.744718 0.812680 0.058843
C26   C     C_R   0.909192 0.814266 0.815986 -0.151250
C27   C     C_R   0.677832 0.609774 0.745949 -0.152624
C28   C     C_R   0.596935 0.602969 0.808539 -0.130819
C29   C     C_R   0.616356 0.665585 0.873128 -0.089030
C30   C     C_R   0.716950 0.735449 0.875632 -0.114672
H9    H     H_    0.172615 0.927862 0.805658 0.164755
H10   H     H_    0.350403 0.927256 0.703333 0.158732
H11   H     H_    0.661553 0.558220 0.697808 0.112138
H12   H     H_    0.520615 0.548343 0.807000 0.126863
H13   H     H_    0.733618 0.780867 0.927921 0.125423
H14   H     H_    0.543484 0.487052 0.195599 0.122890
C31   C     C_R   0.295477 0.209274 0.376734 0.277113
C32   C     C_R   0.233321 0.130910 0.369878 -0.169745
C33   C     C_R   0.228306 0.071470 0.303099 -0.174578
C34   C     C_R   0.291670 0.088595 0.242631 -0.154372
C35   C     C_R   0.345072 0.167984 0.246492 0.030869
C36   C     C_R   0.331091 0.231256 0.314009 0.038362
C37   C     C_R   0.417367 0.184034 0.184824 -0.169590
C38   C     C_R   0.456160 0.264699 0.188754 0.072523
C39   C     C_R   0.422185 0.329150 0.253966 0.057793
C40   C     C_R   0.358695 0.313017 0.316862 -0.196525
C41   C     C_R   0.522228 0.283020 0.127690 -0.145690
C42   C     C_R   0.554343 0.362467 0.130592 -0.114376
C43   C     C_R   0.519646 0.425371 0.193773 -0.115787
C44   C     C_R   0.453531 0.409320 0.254685 -0.142657
H15   H     H_    0.202066 0.114555 0.417358 0.118986
H16   H     H_    0.186313 0.010503 0.298783 0.134401
H17   H     H_    0.298761 0.038401 0.193090 0.127391
H18   H     H_    0.548683 0.236360 0.076915 0.102642
H19   H     H_    0.605022 0.375301 0.083332 0.119284
H20   H     H_    0.426803 0.460668 0.302093 0.095097
C45   C     C_R   0.540637 0.314704 0.711392 -0.140394
H21   H     H_    0.679229 0.308855 0.734732 0.104474
C46   C     C_R   0.530116 0.360279 0.664844 -0.182664
H22   H     H_    0.661334 0.387692 0.653354 0.115367
C47   C     C_R   0.353213 0.370173 0.633484 -0.060974
C48   C     C_R   0.186340 0.334317 0.651084 -0.173436
H23   H     H_    0.047553 0.340623 0.628095 0.117072
C49   C     C_R   0.196878 0.288775 0.697862 -0.134520
H24   H     H_    0.066374 0.260699 0.709071 0.107616
C50   C     C_R   0.374514 0.277886 0.728249 0.101749
C51   C     C_R   0.244174 0.229908 0.827449 -0.122231
H25   H     H_    0.121184 0.269165 0.833173 0.116237
C52   C     C_R   0.259180 0.182923 0.872782 -0.158974
H26   H     H_    0.146541 0.187081 0.911986 0.143508
C53   C     C_R   0.418095 0.132050 0.868498 -0.091557
C54   C     C_R   0.561241 0.128303 0.816105 0.138026
C55   C     C_R   0.545498 0.175963 0.771301 -0.159408
H27   H     H_    0.655198 0.171114 0.730931 0.131865
C56   C     C_R   0.388011 0.227499 0.776455 0.046811
O11   O     O_R   0.273230 0.084330 0.086440 -0.540826
O12   O     O_R   0.596660 0.069390 0.940470 -0.525007
O13   O     O_R   0.760270 0.915710 0.913690 -0.529268
C57   C     C_R   0.428148 0.083144 0.917824 0.710230
O14   O     O_R   0.603330 0.093680 0.087390 -0.541616
O15   O     O_R   0.766990 0.940160 0.061660 -0.539726
C58   C     C_R   0.433910 0.116877 0.115031 0.683456
O16   O     O_R   0.266510 0.059870 0.938470 -0.540220
O17   O     O_3   0.431050 0.949630 0.991510 -0.354357
V3    V     V_3+5 0.708490 0.009340 0.001580 1.471453
O18   O     O_R   0.096270 0.930570 0.059390 -0.526489
C59   C     C_R   0.927515 0.913774 0.079569 0.713414
O19   O     O_R   0.089600 0.906290 0.912460 -0.539488
C60   C     C_R   0.920600 0.883454 0.884571 0.728903
V4    V     V_3+5 0.207670 0.990600 0.998190 1.474425
O20   O     O_3   0.935250 0.050360 0.008480 -0.365456
N1    N     N_2   0.297887 0.826707 0.565114 -0.521588
H28   H     H_    0.326212 0.769856 0.530025 0.262590
C61   C     C_3   0.447113 0.886345 0.569576 -0.572229
H29   H     H_    0.502366 0.878854 0.514794 0.194989
H30   H     H_    0.568359 0.878691 0.603798 0.214259
H31   H     H_    0.387172 0.948007 0.591596 0.217355
N2    N     N_2   0.925760 0.745221 0.554994 -0.525193
H32   H     H_    0.791780 0.722249 0.560377 0.249437
C62   C     C_3   0.906241 0.798814 0.512467 -0.526120
H33   H     H_    0.774058 0.782980 0.478460 0.182468
H34   H     H_    0.029578 0.791838 0.475218 0.231364
H35   H     H_    0.894282 0.862640 0.547540 0.206387
N3    N     N_2   0.356221 0.259507 0.446005 -0.539259
H36   H     H_    0.271312 0.253612 0.487125 0.243673
C63   C     C_3   0.559637 0.250375 0.458918 -0.510500
H37   H     H_    0.602026 0.290344 0.513186 0.196022
H38   H     H_    0.649340 0.266539 0.418716 0.205401
H39   H     H_    0.590244 0.187267 0.455886 0.181667
I1    I     I_    0.797878 0.047963 0.795250 -0.489004
I2    I     I_    0.289791 0.772903 0.051609 -0.466122

loop_
_geom_bond_atom_site_label_1
_geom_bond_atom_site_label_2
_ccdc_geom_bond_type
O15   C59   A    
C57   O16   A    
C51   H25   S    
C55   H27   S    
O11   C58   A    
C11   C12   A    
C21   C22   A    
C20   N2    S    
C6    H2    S    
C1    O6    A    
N1    C61   S    
C61   H29   S    
C31   C36   A    
C45   H21   S    
C62   H33   S    
C42   H19   S    
C28   H12   S    
H14   C43   S    
O14   V3    S    
C63   H37   S    
O13   V3    S    
O16   V4    S    
C19   N1    S    
C5    C10   A    
C4    C7    S    
C6    C7    A    
C17   C18   A    
C49   C50   A    
C3    C23   S    
O5    C3    A    
C18   C19   A    
C17   H9    S    
C32   H15   S    
C18   H10   S    
O18   C59   A    
V2    O10   S    
C34   H17   S    
O19   C60   A    
C22   C26   A    
C17   C22   A    
C35   C37   A    
V4    O20   S    
O17   V3    S    
C5    C6    A    
N2    H32   S    
O8    V2    S    
C13   C14   A    
O19   V4    S    
C42   C43   A    
C51   C56   A    
O1    V2    S    
C52   C53   A    
O7    V1    S    
C24   C27   A    
C33   H16   S    
C27   H11   S    
O12   V3    S    
V3    O20   S    
C33   C34   A    
C55   C56   A    
O13   C60   A    
O9    C4    A    
C21   C23   A    
C35   C36   A    
C37   C58   S    
N1    H28   S    
O12   C57   A    
C62   H34   S    
C47   C48   A    
C45   C46   A    
O15   V3    S    
C36   C40   A    
C41   C42   A    
C38   C41   A    
C9    H4    S    
C53   C54   A    
O4    C2    A    
C63   H39   S    
C11   C16   A    
C32   C33   A    
C25   C26   A    
O11   V4    S    
C46   H22   S    
C34   C35   A    
C54   I1    S    
C23   C24   A    
C12   H6    S    
C27   C28   A    
O14   C58   A    
C5    H1    S    
C41   H18   S    
C49   H24   S    
O3    C4    A    
C20   C21   A    
C2    C47   S    
C45   C50   A    
C29   C30   A    
O6    V2    S    
C48   C49   A    
C51   C52   A    
C44   H20   S    
C8    C9    A    
O2    V1    S    
C19   C20   A    
C24   C25   A    
N3    C63   S    
O18   V4    S    
C28   C29   A    
C63   H38   S    
O1    C2    A    
C13   C59   S    
C9    C10   A    
O5    V1    S    
C61   H30   S    
O8    C3    A    
C62   H35   S    
C46   C47   A    
C30   H13   S    
C14   C15   A    
O9    V2    S    
O7    V2    S    
O4    V1    S    
C12   C13   A    
O3    V1    S    
V1    O10   S    
C38   C39   A    
C31   N3    S    
O17   V4    S    
C31   C32   A    
C25   C30   A    
O2    C1    A    
C54   C55   A    
C15   C16   A    
C15   H7    S    
C39   C40   A    
C43   C44   A    
N2    C62   S    
C61   H31   S    
C50   C56   S    
C37   C38   A    
C10   C16   S    
C1    C40   S    
C48   H23   S    
C26   C60   S    
C11   H5    S    
C8    H3    S    
C53   C57   S    
C52   H26   S    
C7    C8    A    
C14   I2    S    
H8    C29   S    
C39   C44   A    
N3    H36   S    
