data_mof_unit_495.cif
_audit_creation_date              2012-12-10T18:27:44-0500
_audit_creation_method            fapswitch 2.2
_symmetry_space_group_name_H-M    P1
_symmetry_Int_Tables_number       1
_space_group_crystal_system       triclinic
_cell_length_a                    19.497555
_cell_length_b                    19.308044
_cell_length_c                    19.138052
_cell_angle_alpha                 110.914011
_cell_angle_beta                  111.400335
_cell_angle_gamma                 104.780534
_cell_volume                      5617.32595209

loop_
_atom_site_label
_atom_site_type_symbol
_atom_type_description
_atom_site_fract_x
_atom_site_fract_y
_atom_site_fract_z
_atom_type_partial_charge
C1    C     C_R   0.891874 0.392380 0.000358 0.817557
C2    C     C_R   0.017373 0.810647 0.953407 -0.368943
C3    C     C_R   0.755990 0.566158 0.742045 -0.226285
C4    C     C_R   0.681910 0.494923 0.686039 -0.162934
C5    C     C_R   0.670421 0.424685 0.697398 -0.039828
C6    C     C_R   0.736924 0.426694 0.762050 0.450866
C7    C     C_R   0.812503 0.498548 0.815542 -0.180888
C8    C     C_R   0.820193 0.569524 0.808058 -0.044135
C9    C     C_R   0.527405 0.352164 0.669499 -0.122682
C10   C     C_R   0.447975 0.284897 0.614696 0.548006
C11   C     C_R   0.428495 0.222181 0.535039 -0.419866
C12   C     C_R   0.881444 0.500136 0.881410 0.845700
C13   C     C_R   0.488090 0.221094 0.511214 -0.098107
C14   C     C_R   0.570146 0.282436 0.570224 0.510025
C15   C     C_R   0.588566 0.351202 0.645960 -0.107888
C16   C     C_1   0.829809 0.332346 0.999991 -0.173766
C17   C     C_1   0.777775 0.281451 0.999183 -0.023498
C18   C     C_1   0.717401 0.221305 0.998457 -0.005175
C19   C     C_1   0.666643 0.169755 0.998343 -0.163792
C20   C     C_R   0.994393 0.502970 0.278384 0.444463
C21   C     C_R   0.074777 0.525999 0.291208 0.486922
C22   C     C_R   0.094385 0.465727 0.246277 -0.004360
C23   C     C_R   0.107596 0.607557 0.998989 0.811271
C24   C     C_R   0.035887 0.382587 0.194120 -0.294928
C25   C     C_R   0.959371 0.358819 0.188133 -0.201071
C26   C     C_R   0.938310 0.418236 0.229589 -0.269624
C27   C     C_R   0.240836 0.488990 0.314679 0.446282
C28   C     C_R   0.315728 0.503775 0.314298 -0.229363
C29   C     C_R   0.324291 0.516970 0.248708 -0.113656
C30   C     C_R   0.258001 0.516025 0.185345 0.436309
C31   C     C_R   0.184195 0.500302 0.185929 -0.203540
C32   C     C_R   0.175216 0.488149 0.250769 -0.054370
C33   C     C_R   0.470626 0.605711 0.300246 -0.104493
C34   C     C_R   0.117107 0.498855 0.118677 0.864702
C35   C     C_R   0.535454 0.625525 0.284498 -0.347030
C36   C     C_R   0.528616 0.572977 0.206845 0.010116
C37   C     C_R   0.455560 0.498806 0.145230 0.556050
C38   C     C_R   0.393714 0.476278 0.165032 -0.142412
C39   C     C_R   0.399523 0.530491 0.241399 0.096869
C40   C     C_1   0.168376 0.666964 0.997310 -0.173272
C41   C     C_1   0.219742 0.716664 0.996189 0.005392
C42   C     C_1   0.280503 0.776216 0.996651 0.038450
C43   C     C_1   0.332473 0.828276 0.998590 -0.125666
C44   C     C_R   0.500544 0.381392 0.380454 0.828861
C45   C     C_R   0.972117 0.788844 0.991224 0.480320
C46   C     C_R   0.618023 0.497682 0.618247 0.856739
C47   C     C_R   0.497987 0.618785 0.616995 0.885868
C48   C     C_R   0.381530 0.500603 0.380245 0.909739
C49   C     C_R   0.496286 0.879687 0.879007 0.812059
C50   C     C_R   0.607291 0.108215 0.999326 0.819213
C51   C     C_R   0.500847 0.117086 0.120938 0.801168
C52   C     C_R   0.392593 0.891087 0.999815 0.813383
C53   C     C_R   0.701504 0.526703 0.338566 -0.334283
C54   C     C_R   0.635111 0.452112 0.305554 0.490324
C55   C     C_R   0.642888 0.404475 0.346209 -0.110800
C56   C     C_R   0.907429 0.708209 0.945688 -0.037048
C57   C     C_R   0.719903 0.429022 0.416107 0.398525
C58   C     C_R   0.788928 0.502238 0.446287 -0.076103
C59   C     C_R   0.778742 0.552026 0.407389 -0.131567
C60   C     C_R   0.572120 0.255182 0.247657 -0.176244
C61   C     C_R   0.500238 0.182007 0.188847 -0.049869
C62   C     C_R   0.426929 0.174462 0.189603 0.055469
C63   C     C_R   0.425547 0.241498 0.249356 -0.004197
C64   C     C_R   0.499418 0.315472 0.310581 -0.063517
C65   C     C_R   0.572101 0.323425 0.306077 0.104632
C66   C     C_R   0.296530 0.072326 0.044013 -0.047475
C67   C     C_R   0.894667 0.649139 0.866354 -0.095024
C68   C     C_R   0.230937 0.991842 0.989390 0.489106
C69   C     C_R   0.221764 0.936637 0.020701 -0.289820
C70   C     C_R   0.272530 0.961561 0.107321 -0.041416
C71   C     C_R   0.338701 0.040129 0.160967 -0.202464
C72   C     C_R   0.352181 0.094790 0.129842 -0.069808
C73   C     C_R   0.552911 0.804328 0.524433 -0.214996
C74   C     C_R   0.557851 0.793002 0.595187 0.584768
C75   C     C_R   0.485445 0.758035 0.596206 -0.044315
C76   C     C_R   0.409465 0.737363 0.529143 -0.363636
C77   C     C_R   0.404162 0.754999 0.463145 0.552819
C78   C     C_R   0.944296 0.671056 0.833081 -0.253313
C79   C     C_R   0.475811 0.789096 0.460122 -0.197704
C80   C     C_R   0.482397 0.811869 0.733831 -0.074946
C81   C     C_R   0.493177 0.810735 0.810659 -0.150037
C82   C     C_R   0.507729 0.747216 0.824786 -0.002551
C83   C     C_R   0.509234 0.683770 0.760632 -0.066530
C84   C     C_R   0.498985 0.685697 0.684559 -0.100130
C85   C     C_R   0.489414 0.751467 0.672771 0.003471
C86   C     C_R   0.606766 0.760556 0.961472 -0.278385
C87   C     C_R   0.624575 0.750547 0.033816 0.378502
C88   C     C_R   0.565571 0.736671 0.059684 0.355355
C89   C     C_R   0.003141 0.752591 0.874145 0.477433
C90   C     C_R   0.485831 0.726459 0.007671 0.413387
C91   C     C_R   0.467815 0.731489 0.931933 -0.276700
C92   C     C_R   0.527992 0.749030 0.908810 -0.035313
Cu1   Cu    Cu3+1 0.999510 0.561800 0.061330 0.988949
Cu2   Cu    Cu3+1 0.000490 0.438200 0.938670 1.017757
Cu3   Cu    Cu3+1 0.555790 0.555750 0.499960 1.002528
Cu4   Cu    Cu3+1 0.444210 0.444200 0.499990 1.031756
Cu5   Cu    Cu3+1 0.438200 0.001560 0.939770 0.981679
Cu6   Cu    Cu3+1 0.561800 0.998350 0.060150 0.978462
H1    H     H_    0.061481 0.874079 0.984670 0.153341
H2    H     H_    0.365681 0.174562 0.490921 0.170003
H3    H     H_    0.878112 0.397864 0.223015 0.163135
H4    H     H_    0.050423 0.335882 0.159487 0.167704
H5    H     H_    0.915635 0.294131 0.149965 0.182608
H6    H     H_    0.475029 0.650034 0.357438 0.161555
H7    H     H_    0.590055 0.683575 0.331807 0.139252
H8    H     H_    0.338165 0.419029 0.117569 0.174441
H9    H     H_    0.693625 0.563140 0.307175 0.146304
H10   H     H_    0.626950 0.261366 0.242935 0.138514
H11   H     H_    0.175232 0.873749 0.977204 0.205698
H12   H     H_    0.380539 0.059038 0.227284 0.213142
H13   H     H_    0.933618 0.625547 0.772100 0.168411
H14   H     H_    0.354096 0.711014 0.530421 0.164965
H15   H     H_    0.653082 0.772004 0.943051 0.199051
H16   H     H_    0.406104 0.720076 0.890039 0.170576
H17   H     H_    0.763628 0.620897 0.735702 0.186746
O1    O     O_R   0.918180 0.470790 0.051800 -0.600752
O2    O     O_R   0.453580 0.362680 0.410500 -0.579616
O3    O     O_R   0.637300 0.547080 0.590140 -0.604995
O4    O     O_R   0.543070 0.452880 0.590170 -0.571894
O5    O     O_R   0.546420 0.637270 0.589450 -0.558338
O6    O     O_R   0.452190 0.543070 0.589480 -0.570777
O7    O     O_R   0.456930 0.547080 0.409790 -0.612460
O8    O     O_R   0.362710 0.452870 0.409810 -0.544085
O9    O     O_R   0.446190 0.911170 0.857320 -0.609988
O10   O     O_R   0.550560 0.908460 0.958980 -0.567451
O11   O     O_R   0.529210 0.082710 0.949130 -0.575567
O12   O     O_R   0.919010 0.366410 0.948200 -0.569183
O13   O     O_R   0.633590 0.080000 0.050790 -0.576878
O14   O     O_R   0.449440 0.091450 0.040930 -0.580427
O15   O     O_R   0.553810 0.088740 0.142590 -0.575346
O16   O     O_R   0.366410 0.919910 0.949130 -0.566311
O17   O     O_R   0.470790 0.917200 0.050790 -0.589925
O18   O     O_R   0.909400 0.552190 0.961620 -0.615029
O19   O     O_R   0.910240 0.447810 0.858030 -0.549561
O20   O     O_R   0.080990 0.633590 0.051800 -0.585503
O21   O     O_R   0.081820 0.529210 0.948200 -0.563108
O22   O     O_R   0.089760 0.552190 0.141970 -0.565761
O23   O     O_R   0.090600 0.447810 0.038380 -0.558589
O24   O     O_R   0.547810 0.456880 0.410470 -0.594406
C93   C     C_2   0.461649 0.157302 0.422813 0.362768
H18   H     H_    0.401636 0.104443 0.384466 0.083869
O25   O     O_2   0.504822 0.164260 0.390486 -0.521248
O26   O     O_3   0.632152 0.278484 0.552524 -0.576839
C94   C     C_3   0.653801 0.218974 0.568532 -0.190426
H19   H     H_    0.608990 0.155413 0.514073 0.176757
H20   H     H_    0.659180 0.223225 0.629980 0.177923
H21   H     H_    0.714569 0.229472 0.573870 0.189287
O27   O     O_3   0.975095 0.564550 0.318637 -0.550209
C95   C     C_3   0.896319 0.552399 0.262799 -0.222553
H22   H     H_    0.848103 0.508074 0.263914 0.156195
H23   H     H_    0.883756 0.531922 0.195246 0.149339
H24   H     H_    0.893043 0.612229 0.287006 0.192480
O28   O     O_3   0.131444 0.608404 0.340081 -0.545599
C96   C     C_3   0.164280 0.632775 0.428695 -0.225901
H25   H     H_    0.116223 0.625084 0.447248 0.196967
H26   H     H_    0.207710 0.699370 0.467730 0.169711
H27   H     H_    0.199067 0.598535 0.446342 0.185053
O29   O     O_3   0.234802 0.482248 0.382270 -0.595226
C97   C     C_3   0.189674 0.398548 0.355496 -0.240396
H28   H     H_    0.219860 0.387068 0.408936 0.194751
H29   H     H_    0.185919 0.352863 0.296745 0.155863
H30   H     H_    0.126983 0.387140 0.344538 0.173964
O30   O     O_3   0.262744 0.524025 0.117807 -0.598903
C98   C     C_3   0.294105 0.608390 0.142203 -0.245418
H31   H     H_    0.258960 0.638464 0.165155 0.189088
H32   H     H_    0.288770 0.613182 0.084599 0.181931
H33   H     H_    0.360279 0.641966 0.192219 0.195354
O31   O     O_3   0.983623 0.848725 0.066936 -0.525604
C99   C     C_3   0.063682 0.879284 0.135596 -0.227141
H34   H     H_    0.109422 0.923967 0.132219 0.134625
H35   H     H_    0.080531 0.828667 0.137321 0.154887
H36   H     H_    0.066049 0.913247 0.197625 0.197117
C100  C     C_2   0.597935 0.598370 0.191810 0.427265
H37   H     H_    0.653127 0.655510 0.241524 0.047547
O32   O     O_2   0.595007 0.556411 0.124701 -0.535459
O33   O     O_3   0.444321 0.447643 0.065831 -0.569662
C101  C     C_3   0.396501 0.464264 0.004037 -0.222552
H38   H     H_    0.426457 0.530303 0.022302 0.196044
H39   H     H_    0.333501 0.447408 0.994544 0.164297
H40   H     H_    0.390443 0.425962 0.941012 0.199364
C102  C     C_2   0.846674 0.628710 0.432250 0.347187
H41   H     H_    0.832271 0.673332 0.415488 0.074283
O34   O     O_2   0.918420 0.641453 0.467234 -0.532802
O35   O     O_3   0.562003 0.424583 0.232068 -0.571098
C103  C     C_3   0.569463 0.386095 0.158909 -0.196176
H42   H     H_    0.593059 0.339607 0.160562 0.112762
H43   H     H_    0.609841 0.432843 0.152593 0.181445
H44   H     H_    0.507744 0.352397 0.100076 0.248165
O36   O     O_3   0.728459 0.379645 0.452883 -0.534241
C104  C     C_3   0.721091 0.411344 0.527079 -0.105769
H45   H     H_    0.655203 0.391079 0.507558 0.150722
H46   H     H_    0.755049 0.480035 0.567961 0.096833
H47   H     H_    0.748323 0.386711 0.568490 0.225758
C105  C     C_2   0.869893 0.527018 0.519751 0.460558
H48   H     H_    0.912229 0.591729 0.565118 0.086859
O37   O     O_2   0.890265 0.475250 0.530621 -0.496284
C106  C     C_2   0.851924 0.685981 0.978963 0.452153
H49   H     H_    0.797579 0.627027 0.939773 0.039080
O38   O     O_2   0.866405 0.732575 0.050966 -0.501229
C107  C     C_2   0.344769 0.234972 0.241125 0.407297
H50   H     H_    0.299223 0.177699 0.225934 0.054187
O39   O     O_2   0.326872 0.292159 0.246772 -0.547454
C108  C     C_2   0.306172 0.129524 0.008837 0.397668
H51   H     H_    0.270529 0.106102 0.939788 0.100078
O40   O     O_2   0.352820 0.203223 0.055775 -0.538018
O41   O     O_3   0.178519 0.964489 0.903353 -0.571581
C109  C     C_3   0.113036 0.985225 0.897348 -0.333006
H52   H     H_    0.072044 0.965149 0.828614 0.194751
H53   H     H_    0.135008 0.053126 0.935704 0.144804
H54   H     H_    0.075884 0.952725 0.918109 0.180188
C110  C     C_2   0.255876 0.904849 0.140763 0.345252
H55   H     H_    0.200732 0.846498 0.099844 0.070313
O42   O     O_2   0.302835 0.922686 0.214328 -0.541952
C111  C     C_2   0.470470 0.811388 0.391879 0.352735
H56   H     H_    0.524453 0.855460 0.400593 0.054879
O43   O     O_2   0.405454 0.781934 0.325355 -0.525667
C112  C     C_2   0.627018 0.827929 0.515277 0.389437
H57   H     H_    0.620729 0.818633 0.453597 0.024680
O44   O     O_2   0.696270 0.856742 0.575782 -0.513139
O45   O     O_3   0.632351 0.807970 0.658799 -0.546909
C113  C     C_3   0.669824 0.889517 0.728325 -0.152859
H58   H     H_    0.665969 0.935462 0.706488 0.175930
H59   H     H_    0.735956 0.907328 0.767992 0.175635
H60   H     H_    0.643133 0.892879 0.770945 0.169262
O46   O     O_3   0.327729 0.736787 0.400472 -0.528131
C114  C     C_3   0.310911 0.805045 0.430314 -0.172025
H61   H     H_    0.248214 0.789287 0.381710 0.203302
H62   H     H_    0.354683 0.860485 0.437413 0.166216
H63   H     H_    0.312347 0.819935 0.492797 0.111820
C115  C     C_2   0.466411 0.877737 0.717761 0.354272
H64   H     H_    0.410806 0.883450 0.711280 0.099545
O47   O     O_2   0.514782 0.925296 0.710736 -0.580531
C116  C     C_2   0.525673 0.617802 0.776214 0.377368
H65   H     H_    0.498402 0.592263 0.807072 0.111990
O48   O     O_2   0.573267 0.594953 0.759155 -0.570475
O49   O     O_3   0.699073 0.751231 0.077529 -0.554047
C117  C     C_3   0.689836 0.669567 0.038854 -0.182352
H66   H     H_    0.680519 0.648848 0.972471 0.149248
H67   H     H_    0.638347 0.625468 0.036547 0.197769
H68   H     H_    0.746761 0.667953 0.078540 0.204543
O50   O     O_3   0.581676 0.722188 0.128446 -0.579917
C118  C     C_3   0.642184 0.795869 0.207011 -0.313600
H69   H     H_    0.635644 0.852074 0.208697 0.141566
H70   H     H_    0.704703 0.803260 0.220223 0.227229
H71   H     H_    0.635663 0.791250 0.260608 0.156295
O51   O     O_3   0.421019 0.701577 0.021936 -0.579179
C119  C     C_3   0.442715 0.750620 0.108827 -0.223298
H72   H     H_    0.486073 0.816506 0.138441 0.155707
H73   H     H_    0.466799 0.722995 0.148226 0.200018
H74   H     H_    0.386530 0.750076 0.110657 0.175202
O52   O     O_3   0.048582 0.776088 0.838513 -0.567425
C120  C     C_3   0.996455 0.771723 0.761387 -0.231890
H75   H     H_    0.960439 0.806835 0.771840 0.143534
H76   H     H_    0.954607 0.706594 0.708851 0.135383
H77   H     H_    0.034987 0.800170 0.739342 0.216012
O53   O     O_3   0.729533 0.357042 0.770011 -0.581641
C121  C     C_3   0.707116 0.361653 0.833149 -0.352160
H78   H     H_    0.750512 0.419764 0.896368 0.150548
H79   H     H_    0.708101 0.309069 0.843793 0.203461
H80   H     H_    0.643571 0.354966 0.810507 0.151218
C122  C     C_2   0.546947 0.423626 0.750646 0.444630
H81   H     H_    0.608876 0.473205 0.794532 0.063198
O54   O     O_2   0.494577 0.428493 0.770044 -0.511285
O55   O     O_3   0.386574 0.283906 0.634756 -0.531083
C123  C     C_3   0.376030 0.228622 0.666383 -0.246414
H82   H     H_    0.329678 0.230810 0.686570 0.195211
H83   H     H_    0.434164 0.246703 0.724354 0.155998
H84   H     H_    0.352578 0.163867 0.615240 0.139159

loop_
_geom_bond_atom_site_label_1
_geom_bond_atom_site_label_2
_ccdc_geom_bond_type
C66   C68   A    
C87   C88   A    
C77   O46   S    
Cu1   Cu2   S    
C33   H6    S    
C41   C42   S    
C54   C55   A    
Cu4   O4    S    
C105  O37   D    
C35   C36   A    
C51   C61   S    
C108  H51   S    
C48   O8    A    
Cu5   Cu6   S    
C53   C59   A    
O52   C120  S    
C4    C46   S    
C102  H41   S    
C44   C64   S    
C27   O29   S    
C108  O40   D    
C29   C30   A    
C22   C32   S    
Cu4   O6    S    
C86   H15   S    
C5    C6    A    
C22   C24   A    
C28   C29   A    
C93   O25   D    
C18   C19   T    
Cu5   O9    S    
Cu1   O18   S    
C95   H23   S    
C26   H3    S    
C48   O7    A    
C122  H81   S    
C111  O43   D    
C43   C52   S    
C47   O6    A    
O26   C94   S    
C71   H12   S    
C90   O51   S    
C117  H66   S    
C82   C92   S    
C63   C107  S    
C46   O3    A    
Cu1   O22   S    
C106  O38   D    
O50   C118  S    
C99   H34   S    
C49   C81   S    
C59   C102  S    
C104  H47   S    
C33   C35   A    
C14   O26   S    
C69   H11   S    
C75   C85   S    
Cu6   O10   S    
C66   C72   A    
C83   C84   A    
C45   C56   A    
C10   O55   S    
C107  H50   S    
C101  H39   S    
C9    C122  S    
C109  H54   S    
Cu2   O21   S    
C20   O27   S    
O33   C101  S    
C70   C71   A    
C50   O11   A    
C1    O1    A    
C123  H82   S    
C112  O44   D    
C96   H26   S    
C61   C62   A    
C60   H10   S    
Cu6   O13   S    
C105  H48   S    
O35   C103  S    
C36   C100  S    
Cu3   O3    S    
C90   C91   A    
C12   O19   A    
C13   C14   A    
C70   C110  S    
C99   H35   S    
C97   H28   S    
Cu6   O15   S    
C80   C85   A    
C106  H49   S    
C67   C78   A    
C30   O30   S    
C94   H21   S    
O45   C113  S    
C55   C65   S    
C51   O15   A    
C118  H69   S    
C57   C58   A    
C76   C77   A    
C119  H73   S    
C78   C89   A    
C51   O14   A    
C7    C12   S    
C97   H30   S    
C118  H71   S    
C9    C15   A    
C74   C75   A    
C73   C112  S    
C109  H52   S    
C52   O17   A    
C13   C93   S    
C83   C116  S    
Cu4   O2    S    
C7    C8    A    
C77   C79   A    
C24   C25   A    
Cu5   O16   S    
C96   H27   S    
C94   H20   S    
C3    C8    A    
C10   C11   A    
C102  O34   D    
C91   C92   A    
C122  O54   D    
O41   C109  S    
C16   C17   T    
C103  H44   S    
C25   C26   A    
C100  H37   S    
C49   O9    A    
C58   C105  S    
C81   C82   A    
C87   O49   S    
C63   C64   A    
C11   H2    S    
C121  H79   S    
Cu1   O1    S    
C38   H8    S    
C2    C89   A    
C75   C76   A    
C104  H45   S    
C57   O36   S    
C37   C38   A    
C35   H7    S    
C113  H58   S    
C116  O48   D    
C53   H9    S    
C118  H70   S    
C31   C32   A    
C30   C31   A    
C76   H14   S    
C101  H40   S    
O53   C121  S    
C29   C39   S    
C62   C63   A    
C97   H29   S    
C17   C18   S    
C73   C79   A    
C31   C34   S    
C62   C72   S    
C1    C16   S    
C33   C39   A    
C47   C84   S    
C84   C85   A    
C47   O5    A    
C115  O47   D    
C123  H83   S    
C96   H25   S    
C78   H13   S    
C100  O32   D    
C120  H77   S    
C66   C108  S    
C23   O21   A    
Cu3   O7    S    
C107  O39   D    
O31   C99   S    
C110  O42   D    
C88   C90   A    
C2    H1    S    
C101  H38   S    
C44   O24   A    
C114  H62   S    
C12   O18   A    
C117  H67   S    
C68   O41   S    
O29   C97   S    
Cu2   O23   S    
C99   H36   S    
C54   O35   S    
C95   H24   S    
C50   O13   A    
C42   C43   T    
Cu5   O11   S    
Cu6   O17   S    
C3    C4    A    
C114  H63   S    
C73   C74   A    
C121  H78   S    
C120  H76   S    
C56   C106  S    
C9    C10   A    
C119  H74   S    
O36   C104  S    
O51   C119  S    
C98   H31   S    
C104  H46   S    
C89   O52   S    
Cu4   O8    S    
O46   C114  S    
C27   C32   A    
C86   C87   A    
C52   O16   A    
C68   C69   A    
C98   H33   S    
C25   H5    S    
C1    O12   A    
C80   C115  S    
C80   C81   A    
Cu1   O20   S    
C60   C65   A    
C119  H72   S    
C53   C54   A    
C6    C7    A    
Cu3   O5    S    
C113  H60   S    
C56   C67   A    
C49   O10   A    
C79   C111  S    
C34   O22   A    
Cu3   O24   S    
C91   H16   S    
C23   O20   A    
C94   H19   S    
C121  H80   S    
C64   C65   A    
C98   H32   S    
O55   C123  S    
Cu5   O14   S    
C115  H64   S    
C113  H59   S    
C3    H17   S    
C95   H22   S    
C37   O33   S    
C11   C13   A    
C19   C50   S    
C103  H42   S    
C38   C39   A    
C20   C26   A    
C44   O2    A    
C93   H18   S    
C4    C5    A    
C111  H56   S    
C112  H57   S    
Cu2   O19   S    
C28   C48   S    
C34   O23   A    
C46   O4    A    
C55   C57   A    
C24   H4    S    
O27   C95   S    
C88   O50   S    
Cu2   O12   S    
C69   C70   A    
C6    O53   S    
C123  H84   S    
C58   C59   A    
C5    C15   S    
O30   C98   S    
C103  H43   S    
C2    C45   A    
C86   C92   A    
C110  H55   S    
O49   C117  S    
C71   C72   A    
C20   C21   A    
C8    C67   S    
C36   C37   A    
C114  H61   S    
C45   O31   S    
C117  H68   S    
C74   O45   S    
C27   C28   A    
C109  H53   S    
C21   O28   S    
C14   C15   A    
C60   C61   A    
C40   C41   T    
C82   C83   A    
O28   C96   S    
C21   C22   A    
Cu3   Cu4   S    
C23   C40   S    
C116  H65   S    
C120  H75   S    
