data_mof_unit_4951.cif
_audit_creation_date              2013-03-05T16:12:31-0500
_audit_creation_method            fapswitch 2.2
_symmetry_space_group_name_H-M    P1
_symmetry_Int_Tables_number       1
_space_group_crystal_system       triclinic
_cell_length_a                    23.783404
_cell_length_b                    7.22439
_cell_length_c                    20.644866
_cell_angle_alpha                 89.998988
_cell_angle_beta                  105.400658
_cell_angle_gamma                 89.998383
_cell_volume                      3419.8409058

loop_
_atom_site_label
_atom_site_type_symbol
_atom_site_description
_atom_site_fract_x
_atom_site_fract_y
_atom_site_fract_z
_atom_type_partial_charge
O1    O     O_R   0.449110 0.494310 0.552140 -0.591127
O2    O     O_R   0.550890 0.994310 0.447860 -0.591130
O3    O     O_R   0.440010 0.824420 0.415850 -0.583059
O4    O     O_R   0.559990 0.324420 0.584150 -0.583057
C1    C     C_R   0.425318 0.655737 0.391007 0.900304
C2    C     C_R   0.574681 0.155729 0.608992 0.900300
O5    O     O_R   0.442260 0.824040 0.549660 -0.592222
O6    O     O_R   0.557740 0.324040 0.450340 -0.592221
O7    O     O_R   0.553160 0.993960 0.582620 -0.579963
O8    O     O_R   0.446840 0.493960 0.417380 -0.579967
C3    C     C_R   0.428724 0.655542 0.567682 0.933481
C4    C     C_R   0.571275 0.155540 0.432318 0.933472
O9    O     O_3   0.536380 0.660670 0.510660 -0.279995
O10   O     O_3   0.463620 0.160670 0.489340 -0.279996
V1    V     V_3+5 0.493250 0.935680 0.498020 1.163116
V2    V     V_3+5 0.506750 0.435680 0.501980 1.163111
C5    C     C_R   0.823257 0.909413 0.170396 -0.139779
C6    C     C_R   0.176690 0.409394 0.829535 -0.139796
H1    H     H_    0.806193 0.783304 0.186332 0.138197
H2    H     H_    0.193714 0.283273 0.813549 0.138216
C7    C     C_R   0.862592 0.897904 0.130423 -0.161123
C8    C     C_R   0.137358 0.397884 0.869513 -0.161088
H3    H     H_    0.874960 0.762308 0.116593 0.132019
H4    H     H_    0.124952 0.262275 0.883295 0.131995
C9    C     C_R   0.885803 0.059429 0.109068 -0.118479
C10   C     C_R   0.114197 0.559424 0.890930 -0.118456
C11   C     C_R   0.868163 0.232394 0.128680 -0.175764
C12   C     C_R   0.131882 0.732405 0.871378 -0.175798
H5    H     H_    0.884775 0.360124 0.113463 0.137363
H6    H     H_    0.115311 0.860148 0.886646 0.137357
C13   C     C_R   0.828895 0.243395 0.168540 -0.126357
C14   C     C_R   0.171147 0.743407 0.831514 -0.126345
H7    H     H_    0.816255 0.378153 0.182960 0.138661
H8    H     H_    0.183823 0.878177 0.817141 0.138649
C15   C     C_R   0.806311 0.082239 0.189764 0.146884
C16   C     C_R   0.193681 0.582236 0.810226 0.146894
C17   C     C_1   0.765991 0.095403 0.231428 -0.014890
C18   C     C_1   0.233998 0.595403 0.768558 -0.014870
C19   C     C_1   0.732325 0.109569 0.266199 0.099868
C20   C     C_1   0.267662 0.609576 0.733786 0.099895
C21   C     C_R   0.658895 0.973098 0.315856 -0.117492
C22   C     C_R   0.341102 0.473118 0.684142 -0.117459
H9    H     H_    0.663027 0.844400 0.290562 0.175256
H10   H     H_    0.336973 0.344426 0.709441 0.175207
C23   C     C_R   0.620414 0.981477 0.356606 -0.131882
C24   C     C_R   0.379586 0.481491 0.643396 -0.131827
H11   H     H_    0.595658 0.858720 0.361294 0.140608
H12   H     H_    0.404346 0.358736 0.638715 0.140602
C25   C     C_R   0.613440 0.146085 0.390049 -0.175688
C26   C     C_R   0.386558 0.646092 0.609948 -0.175725
C27   C     C_R   0.646511 0.301848 0.381889 -0.284684
C28   C     C_R   0.353483 0.801855 0.618101 -0.284666
H13   H     H_    0.641670 0.429989 0.407085 0.181341
H14   H     H_    0.358324 0.929988 0.592899 0.181379
C29   C     C_R   0.685666 0.295347 0.341076 0.374597
C30   C     C_R   0.314322 0.795363 0.658907 0.374532
C31   C     C_R   0.691817 0.127996 0.307663 -0.038983
C32   C     C_R   0.308172 0.628012 0.692325 -0.038990
C33   C     C_R   0.642212 0.191318 0.795340 -0.170450
C34   C     C_R   0.357763 0.691730 0.204677 -0.170470
H15   H     H_    0.556104 0.219613 0.729826 0.108049
H16   H     H_    0.443869 0.720039 0.270192 0.108063
H17   H     H_    0.726559 0.189384 0.908811 0.137394
H18   H     H_    0.273406 0.689978 0.091216 0.137397
H19   H     H_    0.627510 0.222036 0.839574 0.118992
H20   H     H_    0.372454 0.722647 0.160452 0.118999
C35   C     C_R   0.618552 0.149532 0.674797 -0.086757
C36   C     C_R   0.381446 0.649577 0.325202 -0.086791
C37   C     C_R   0.902025 0.015821 0.768150 -0.156847
C38   C     C_R   0.097992 0.515551 0.231841 -0.156833
C39   C     C_R   0.863681 0.012468 0.704285 -0.076657
C40   C     C_R   0.136342 0.512089 0.295701 -0.076671
C41   C     C_R   0.804362 0.045541 0.695225 -0.171333
C42   C     C_R   0.195655 0.545260 0.304764 -0.171349
C43   C     C_R   0.781538 0.083702 0.750490 0.085450
C44   C     C_R   0.218466 0.583641 0.249507 0.085456
C45   C     C_R   0.821467 0.088961 0.816179 0.103916
C46   C     C_R   0.178530 0.589028 0.183825 0.103942
C47   C     C_R   0.720528 0.116489 0.742745 0.087063
C48   C     C_R   0.279471 0.616526 0.257255 0.087061
C49   C     C_R   0.701348 0.155680 0.800912 0.180156
C50   C     C_R   0.298635 0.655963 0.199099 0.180165
C51   C     C_R   0.741180 0.159956 0.864414 -0.228354
C52   C     C_R   0.258796 0.660362 0.135604 -0.228371
C53   C     C_R   0.800150 0.126759 0.872045 -0.206513
C54   C     C_R   0.199833 0.627056 0.127969 -0.206559
C55   C     C_R   0.677658 0.112679 0.679561 -0.234390
C56   C     C_R   0.322348 0.612588 0.320432 -0.234405
C57   C     C_R   0.601375 0.189524 0.732889 -0.160741
C58   C     C_R   0.398607 0.689826 0.267123 -0.160714
C59   C     C_R   0.881948 0.054275 0.824506 -0.168015
C60   C     C_R   0.118055 0.554231 0.175494 -0.168039
H21   H     H_    0.688685 0.084084 0.633189 0.107758
H22   H     H_    0.311333 0.583807 0.366795 0.107784
H23   H     H_    0.947840 0.987849 0.773716 0.113458
H24   H     H_    0.052183 0.487483 0.226272 0.113464
H25   H     H_    0.777548 0.040049 0.644245 0.123930
H26   H     H_    0.222474 0.539669 0.355739 0.123936
H27   H     H_    0.880081 0.982980 0.661212 0.130635
H28   H     H_    0.119952 0.482429 0.338767 0.130641
H29   H     H_    0.829049 0.131357 0.922343 0.115504
H30   H     H_    0.170928 0.631756 0.077676 0.115555
O11   O     O_R   0.053190 0.709680 0.082610 -0.578964
O12   O     O_R   0.946810 0.209680 0.917390 -0.578958
O13   O     O_R   0.057740 0.380240 0.950340 -0.592170
O14   O     O_R   0.942260 0.880240 0.049660 -0.592171
C61   C     C_R   0.071455 0.548918 0.932515 0.898644
C62   C     C_R   0.928545 0.048919 0.067485 0.898641
O15   O     O_R   0.060000 0.379940 0.084150 -0.579370
O16   O     O_R   0.940000 0.879940 0.915850 -0.579368
O17   O     O_R   0.949110 0.210100 0.052140 -0.590813
O18   O     O_R   0.050890 0.710100 0.947860 -0.590817
C63   C     C_R   0.074742 0.548261 0.109000 0.902245
C64   C     C_R   0.925259 0.048269 0.891000 0.902258
O19   O     O_3   0.963630 0.543720 0.989330 -0.280850
O20   O     O_3   0.036370 0.043720 0.010670 -0.280861
V3    V     V_3+5 0.006750 0.268680 0.001980 1.157231
V4    V     V_3+5 0.993250 0.768680 0.998020 1.157224
N1    N     N_R   0.718639 0.458769 0.334861 0.224454
O21   O     O_R   0.734075 0.492248 0.280065 -0.446287
O22   O     O_R   0.729623 0.582760 0.382315 -0.416573
N2    N     N_R   0.281342 0.958792 0.665107 0.224451
O23   O     O_R   0.265837 0.992180 0.719881 -0.446260
O24   O     O_R   0.270418 0.082874 0.617674 -0.416621

loop_
_geom_bond_atom_site_label_1
_geom_bond_atom_site_label_2
_geom_bond_distance
_ccdc_geom_bond_type
C18   C20   1.213324 T    
C11   H5    1.082691 S    
C21   H9    1.083540 S    
C61   O18   1.333341 A    
C38   H24   1.083900 S    
O1    C3    1.333187 A    
O2    C4    1.333191 A    
C22   C32   1.401549 A    
C2    O7    1.332775 A    
C47   C55   1.426700 A    
C4    C25   1.495530 S    
O15   V3    1.996684 S    
C42   H26   1.076786 S    
C29   N1    1.441811 S    
C41   H25   1.076794 S    
O13   C61   1.338117 A    
C42   C44   1.414650 A    
C14   C16   1.400422 A    
O11   C63   1.330817 A    
C44   C46   1.434692 A    
C33   C57   1.393095 A    
C19   C31   1.454879 S    
C55   H21   1.077643 S    
C35   C57   1.396028 A    
O20   V3    1.761399 S    
C22   C24   1.399270 A    
C23   H11   1.082961 S    
C37   C39   1.389963 A    
H18   C52   1.084158 S    
C34   C50   1.404145 A    
C28   H14   1.082887 S    
C12   H6    1.082750 S    
C25   C27   1.408450 A    
C36   C58   1.395967 A    
C13   H7    1.083643 S    
C60   C63   1.482035 S    
O16   C64   1.330174 A    
C27   C29   1.412826 A    
O15   C63   1.330163 A    
C46   C54   1.404354 A    
O5    V1    1.986063 S    
C34   H20   1.083970 S    
O6    V2    1.986054 S    
O14   V4    1.985819 S    
C41   C43   1.414695 A    
O16   V4    1.996629 S    
C22   H10   1.083528 S    
C1    C36   1.477646 S    
C49   C51   1.399090 A    
H15   C57   1.083671 S    
C56   H22   1.077596 S    
N1    O22   1.301730 A    
C24   H12   1.082951 S    
C20   C32   1.454882 S    
C11   C13   1.401407 A    
C44   C48   1.436632 A    
C12   C14   1.401406 A    
C40   C42   1.393635 A    
C39   C41   1.393649 A    
O13   V3    1.985832 S    
C37   H23   1.083913 S    
C39   H27   1.082820 S    
C5    C7    1.404717 A    
H17   C51   1.084194 S    
C27   H13   1.082895 S    
C14   H8    1.083701 S    
O4    V2    1.996534 S    
O5    C3    1.336971 A    
C26   C28   1.408432 A    
C23   C25   1.406846 A    
O6    C4    1.336975 A    
O19   V4    1.761440 S    
O1    V2    1.971055 S    
O2    V1    1.971063 S    
C43   C45   1.434699 A    
O12   C64   1.330806 A    
C48   C50   1.421636 A    
C2    C35   1.477633 S    
C51   C53   1.389968 A    
C50   C52   1.399079 A    
C29   C31   1.418655 A    
C36   C56   1.408259 A    
C8    H4    1.082775 S    
O4    C2    1.332326 A    
N2    O24   1.301855 A    
C54   H30   1.082908 S    
C53   H29   1.082919 S    
C47   C49   1.421694 A    
O12   V3    1.985312 S    
C40   H28   1.082787 S    
C7    C9    1.410693 A    
C45   C59   1.424829 A    
C15   C17   1.451401 S    
C6    C8    1.404718 A    
C10   C12   1.411294 A    
C38   C60   1.397777 A    
C33   C49   1.404168 A    
C52   C54   1.389953 A    
O3    C1    1.332315 A    
C10   C61   1.496553 S    
N1    O21   1.301383 A    
C62   O17   1.333346 A    
C34   C58   1.393084 A    
C9    C11   1.411222 A    
C24   C26   1.406830 A    
C35   C55   1.408275 A    
C59   C64   1.482019 S    
O17   V3    1.970980 S    
C46   C60   1.424820 A    
C7    H3    1.082715 S    
O7    V1    1.983997 S    
C21   C31   1.401554 A    
C1    O8    1.332786 A    
C17   C19   1.213324 T    
C3    C26   1.495527 S    
O8    V2    1.983969 S    
C33   H19   1.084016 S    
O18   V4    1.970975 S    
C6    C16   1.402495 A    
O14   C62   1.338119 A    
H16   C58   1.083649 S    
C13   C15   1.400353 A    
C16   C18   1.451403 S    
C5    H1    1.083453 S    
C30   C32   1.418673 A    
C6    H2    1.083510 S    
C45   C53   1.404399 A    
O11   V4    1.985281 S    
C48   C56   1.426694 A    
C8    C10   1.410761 A    
O9    V2    1.761731 S    
C21   C23   1.399278 A    
O10   V1    1.761689 S    
O3    V1    1.996588 S    
C38   C40   1.389955 A    
C5    C15   1.402424 A    
N2    O23   1.301665 A    
C37   C59   1.397819 A    
C43   C47   1.436638 A    
C28   C30   1.412840 A    
C9    C62   1.496552 S    
C30   N2    1.441834 S    
