data_mof_unit_2380.cif
_audit_creation_date              2012-12-10T17:26:23-0500
_audit_creation_method            fapswitch 2.2
_symmetry_space_group_name_H-M    P1
_symmetry_Int_Tables_number       1
_space_group_crystal_system       triclinic
_cell_length_a                    10.080078
_cell_length_b                    10.88229
_cell_length_c                    27.73223
_cell_angle_alpha                 89.819472
_cell_angle_beta                  81.162196
_cell_angle_gamma                 96.570617
_cell_volume                      2985.54028215

loop_
_atom_site_label
_atom_site_type_symbol
_atom_type_description
_atom_site_fract_x
_atom_site_fract_y
_atom_site_fract_z
_atom_type_partial_charge
C1    C     C_R   0.558414 0.733030 0.497475 0.900694
C2    C     C_R   0.549627 0.603515 0.124330 0.010785
C3    C     C_R   0.501223 0.500435 0.646619 -0.044857
C4    C     C_R   0.498022 0.499521 0.353434 -0.045043
C5    C     C_R   0.541314 0.609896 0.023127 0.101715
C6    C     C_R   0.444664 0.392387 0.977338 0.099562
C7    C     C_R   0.434952 0.394044 0.028757 -0.024395
C8    C     C_R   0.530322 0.613990 0.972867 -0.023715
C9    C     C_R   0.488948 0.500913 0.051213 0.073527
C10   C     C_R   0.488192 0.503705 0.949769 0.069274
C11   C     C_R   0.604621 0.710803 0.046240 -0.233588
C12   C     C_R   0.441586 0.266975 0.502525 0.901018
C13   C     C_R   0.415014 0.282152 0.952357 -0.223273
C14   C     C_R   0.608388 0.707517 0.095940 -0.160044
C15   C     C_R   0.421715 0.282763 0.902130 -0.154445
C16   C     C_R   0.500462 0.500071 0.593965 0.870589
C17   C     C_R   0.499472 0.499912 0.406042 0.871239
C18   C     C_R   0.558017 0.725334 0.945046 -0.331190
C19   C     C_R   0.371619 0.292256 0.058501 -0.334412
C20   C     C_2   0.594757 0.866434 0.498488 0.037491
C21   C     C_2   0.405224 0.133583 0.501518 0.037428
C22   C     C_2   0.495013 0.935206 0.494330 -0.210687
C23   C     C_R   0.491177 0.504210 0.898579 -0.123945
C24   C     C_2   0.504903 0.064789 0.505740 -0.210356
C25   C     C_2   0.927217 0.509234 0.504150 -0.137587
C26   C     C_2   0.072795 0.490806 0.495834 -0.137223
C27   C     C_R   0.533988 0.611127 0.819940 0.519229
C28   C     C_R   0.435595 0.395885 0.181577 0.533209
C29   C     C_R   0.463639 0.393851 0.824384 0.506045
C30   C     C_R   0.549918 0.601279 0.174632 0.497904
C31   C     C_R   0.619560 0.482977 0.715514 -0.095229
C32   C     C_R   0.375651 0.508868 0.285228 -0.101327
C33   C     C_R   0.619576 0.482625 0.665382 -0.217570
C34   C     C_R   0.490125 0.499156 0.102191 -0.118570
C35   C     C_R   0.376981 0.509287 0.335235 -0.216843
C36   C     C_R   0.383236 0.518784 0.678627 -0.201845
C37   C     C_R   0.617501 0.489273 0.320949 -0.207958
C38   C     C_R   0.383666 0.519167 0.728653 -0.120038
C39   C     C_R   0.615837 0.489088 0.270952 -0.101101
C40   C     C_R   0.501608 0.501170 0.746989 0.323070
C41   C     C_R   0.495001 0.498877 0.253149 0.313156
C42   C     C_3   0.185039 0.148719 0.471856 -0.747150
C43   C     C_3   0.815231 0.851338 0.527949 -0.747088
C44   C     C_3   0.466055 0.910143 0.881542 0.099393
C45   C     C_R   0.526966 0.615647 0.870960 -0.141647
C46   C     C_3   0.345370 0.861386 0.856384 -0.345102
C47   C     C_3   0.231817 0.943801 0.865819 -0.925389
C48   C     C_3   0.363799 0.078856 0.124080 0.116349
C49   C     C_3   0.254912 0.979475 0.111636 -0.356128
C50   C     C_3   0.312714 0.858303 0.098299 -0.933639
C51   C     C_R   0.432124 0.393462 0.131055 -0.129774
C52   C     C_R   0.551240 0.727779 0.895131 0.545893
C53   C     C_R   0.372936 0.289242 0.108777 0.527015
C54   C     C_R   0.458398 0.392804 0.874971 0.016153
H1    H     H_    0.290747 0.532860 0.665106 0.164110
H2    H     H_    0.711836 0.468454 0.641443 0.161680
H3    H     H_    0.282214 0.516548 0.271301 0.139712
H4    H     H_    0.710771 0.469216 0.729966 0.135969
H5    H     H_    0.657200 0.787608 0.112077 0.187891
H6    H     H_    0.398261 0.196123 0.884627 0.170348
H7    H     H_    0.655279 0.792914 0.026642 0.145323
H8    H     H_    0.390759 0.192767 0.970463 0.133659
H9    H     H_    0.581082 0.813403 0.961358 0.148246
H10   H     H_    0.315940 0.214342 0.043906 0.153882
H11   H     H_    0.599537 0.106789 0.515835 0.186315
H12   H     H_    0.712074 0.481669 0.334082 0.164772
H13   H     H_    0.400331 0.893193 0.484278 0.186262
H14   H     H_    0.228129 0.010253 0.518326 0.230390
H15   H     H_    0.107040 0.084573 0.457628 0.230521
H16   H     H_    0.241453 0.207560 0.440867 0.244888
H17   H     H_    0.132720 0.206120 0.500074 0.246117
H18   H     H_    0.771720 0.989908 0.481621 0.230542
H19   H     H_    0.893358 0.915483 0.542109 0.230427
H20   H     H_    0.867374 0.793982 0.499670 0.246064
H21   H     H_    0.759050 0.792458 0.558966 0.245012
H22   H     H_    0.501498 0.006388 0.868241 0.182831
H23   H     H_    0.109214 0.425372 0.468931 0.161027
H24   H     H_    0.433812 0.915458 0.921669 0.101700
H25   H     H_    0.378717 0.857694 0.816385 0.271944
H26   H     H_    0.305053 0.766452 0.870290 0.202735
H27   H     H_    0.200226 0.953772 0.905655 0.257149
H28   H     H_    0.143368 0.901701 0.849759 0.277826
H29   H     H_    0.265425 0.036487 0.848497 0.285767
H30   H     H_    0.404255 0.046634 0.156387 0.191470
H31   H     H_    0.450219 0.089870 0.093291 0.102870
H32   H     H_    0.173131 0.962615 0.143526 0.248484
H33   H     H_    0.210370 0.012166 0.080364 0.214932
H34   H     H_    0.890807 0.574700 0.531041 0.161446
H35   H     H_    0.391867 0.872524 0.065555 0.261770
H36   H     H_    0.231049 0.787960 0.089949 0.271603
H37   H     H_    0.356755 0.823050 0.129226 0.279095
H38   H     H_    0.119829 0.612612 0.545306 0.164087
H39   H     H_    0.880163 0.387356 0.454706 0.164537
H40   H     H_    0.292610 0.533430 0.753261 0.131551
H41   H     H_    0.708102 0.481150 0.245982 0.140824
H42   H     H_    0.283464 0.517020 0.359534 0.161206
N1    N     N_R   0.501108 0.501806 0.798294 -0.363239
N2    N     N_R   0.493436 0.498696 0.201876 -0.362786
N3    N     N_2   0.842700 0.448890 0.480020 -0.193742
N4    N     N_2   0.157300 0.551110 0.519980 -0.193704
N5    N     N_2   0.275003 0.077461 0.493087 -0.307893
N6    N     N_2   0.725033 0.922595 0.506847 -0.307727
O1    O     O_R   0.431060 0.692470 0.504020 -0.625994
O2    O     O_2   0.383205 0.296522 0.210395 -0.508104
O3    O     O_2   0.605343 0.701030 0.196386 -0.563828
O4    O     O_2   0.431640 0.288062 0.801270 -0.564595
O5    O     O_3   0.576134 0.839770 0.869487 -0.587761
O6    O     O_3   0.304707 0.188863 0.136714 -0.591828
O7    O     O_R   0.568940 0.307530 0.495980 -0.625833
O8    O     O_R   0.651120 0.659650 0.491200 -0.601497
O9    O     O_R   0.348880 0.340350 0.508800 -0.601385
O10   O     O_R   0.389980 0.516390 0.577660 -0.612433
O11   O     O_R   0.610020 0.483610 0.422340 -0.611911
O12   O     O_R   0.610040 0.483570 0.564830 -0.619785
O13   O     O_R   0.389960 0.516430 0.435170 -0.620024
O14   O     O_2   0.574206 0.714118 0.791865 -0.508918
Zn1   Zn    Zn3+2 0.353060 0.521910 0.508560 0.943039
Zn2   Zn    Zn3+2 0.646940 0.478090 0.491440 0.943386

loop_
_geom_bond_atom_site_label_1
_geom_bond_atom_site_label_2
_ccdc_geom_bond_type
C43   H19   S    
C38   C40   A    
C23   C45   A    
C15   H6    S    
C49   H33   S    
O8    Zn2   S    
C17   O11   A    
C39   C41   A    
C48   O6    S    
C35   H42   S    
C14   H5    S    
C17   O13   A    
C34   C51   A    
C31   H4    S    
C5    C11   A    
C46   H25   S    
C28   C51   A    
C18   H9    S    
C20   N6    S    
C29   C54   A    
C3    C33   A    
C42   H16   S    
C31   C40   A    
C47   H28   S    
C44   H22   S    
C50   H36   S    
C13   H8    S    
C52   O5    S    
C44   C46   S    
O13   Zn1   S    
C32   C41   A    
C31   C33   A    
C47   H29   S    
H39   N3    S    
C21   N5    S    
C27   O14   S    
C27   C45   A    
C43   H20   S    
C47   H27   S    
C19   C53   A    
C4    C35   A    
O1    Zn1   S    
C32   H3    S    
C12   O7    A    
C25   N3    D    
O7    Zn2   S    
C43   H21   S    
C26   H23   S    
C18   C52   A    
C32   C35   A    
H14   N5    S    
C40   N1    S    
H38   N4    S    
C45   C52   A    
C25   C26   S    
C12   C21   S    
C42   H15   S    
C8    C18   A    
C48   H30   S    
C51   C53   A    
C15   C54   A    
C5    C9    A    
C1    O8    A    
C28   O2    S    
C50   H35   S    
C19   H10   S    
C37   H12   S    
C38   H40   S    
C39   H41   S    
O12   Zn2   S    
C24   H11   S    
C4    C17   S    
C48   C49   S    
C20   C22   D    
C7    C19   A    
C13   C15   A    
C30   O3    S    
C9    C34   A    
C22   C24   S    
C29   O4    S    
C42   N5    S    
C16   O10   A    
C23   C54   A    
C44   O5    S    
C28   N2    A    
C7    C9    A    
C1    O1    A    
C46   C47   S    
C27   N1    A    
C1    C20   S    
C41   N2    S    
C49   H32   S    
C11   H7    S    
C16   O12   A    
C6    C10   A    
C5    C8    A    
C6    C7    A    
C10   C23   A    
C30   N2    A    
C29   N1    A    
C2    C30   A    
C44   H24   S    
C43   N6    S    
C37   C39   A    
C36   H1    S    
C6    C13   A    
C46   H26   S    
C53   O6    S    
C2    C34   A    
O10   Zn1   S    
H18   N6    S    
C3    C36   A    
C33   H2    S    
C36   C38   A    
C42   H17   S    
C11   C14   A    
C25   H34   S    
C2    C14   A    
C22   H13   S    
O9    Zn1   S    
O11   Zn2   S    
C50   H37   S    
C4    C37   A    
C8    C10   A    
C49   C50   S    
C21   C24   D    
C48   H31   S    
N4    Zn1   S    
C12   O9    A    
C3    C16   S    
C26   N4    D    
N3    Zn2   S    
