data_mof_unit_665.cif
_audit_creation_date              2012-12-10T19:44:58-0500
_audit_creation_method            fapswitch 2.2
_symmetry_space_group_name_H-M    P1
_symmetry_Int_Tables_number       1
_space_group_crystal_system       triclinic
_cell_length_a                    15.092725
_cell_length_b                    10.824283
_cell_length_c                    13.92551
_cell_angle_alpha                 88.842119
_cell_angle_beta                  90.96575
_cell_angle_gamma                 87.938812
_cell_volume                      2272.69358529

loop_
_atom_site_label
_atom_site_type_symbol
_atom_type_description
_atom_site_fract_x
_atom_site_fract_y
_atom_site_fract_z
_atom_type_partial_charge
C1    C     C_R   0.498743 0.262860 0.500479 0.845052
C2    C     C_R   0.502146 0.737039 0.499379 0.845271
C3    C     C_R   0.053601 0.380595 0.649649 -0.203189
C4    C     C_R   0.946931 0.621735 0.351919 -0.232526
C5    C     C_R   0.212976 0.212586 0.362597 0.063286
C6    C     C_R   0.797594 0.800888 0.624009 0.052421
C7    C     C_R   0.279375 0.153147 0.420911 0.071756
C8    C     C_R   0.726822 0.853987 0.567493 0.021225
C9    C     C_R   0.366089 0.137673 0.386572 -0.093790
C10   C     C_R   0.640941 0.862394 0.605405 -0.076653
C11   C     C_R   0.385947 0.180528 0.293805 0.529139
C12   C     C_R   0.625860 0.816312 0.698493 0.522729
C13   C     C_R   0.320887 0.244347 0.236565 0.094648
C14   C     C_R   0.695014 0.756613 0.752622 0.092845
C15   C     C_R   0.234455 0.261052 0.271158 0.076248
C16   C     C_R   0.780907 0.749635 0.715353 0.149882
C17   C     C_R   0.437758 0.938323 0.444335 0.101469
C18   C     C_R   0.565899 0.061592 0.552215 0.094671
C19   C     C_R   0.503279 0.871086 0.498276 -0.080226
C20   C     C_R   0.498806 0.128695 0.500552 -0.079640
C21   C     C_R   0.568283 0.931966 0.551753 0.084155
C22   C     C_R   0.435448 0.067774 0.444793 0.075949
C23   C     C_R   0.328929 0.502176 0.499685 0.918784
C24   C     C_R   0.671100 0.499601 0.500587 0.902811
C25   C     C_R   0.556075 0.420283 0.797427 0.260091
C26   C     C_R   0.438077 0.570793 0.202429 0.224324
C27   C     C_R   0.442369 0.578063 0.792813 0.352546
C28   C     C_R   0.564435 0.433233 0.206865 0.355308
C29   C     C_R   0.445504 0.584155 0.894548 -0.037203
C30   C     C_R   0.565063 0.432827 0.104860 -0.002731
C31   C     C_R   0.505740 0.508385 0.948343 -0.053336
C32   C     C_R   0.504769 0.508905 0.051190 -0.015787
C33   C     C_R   0.564205 0.428333 0.899492 0.014755
C34   C     C_R   0.442443 0.583325 0.100091 0.007721
C35   C     C_R   0.387628 0.664349 0.943536 -0.113479
C36   C     C_R   0.627013 0.358732 0.055449 -0.212632
C37   C     C_R   0.385135 0.665461 0.043767 0.158525
C38   C     C_R   0.627367 0.355630 0.954801 0.164795
C39   C     C_R   0.811552 0.556717 0.425152 0.449089
C40   C     C_R   0.188940 0.441388 0.573998 0.462563
C41   C     C_R   0.768051 0.499452 0.501232 -0.311313
C42   C     C_R   0.232042 0.504736 0.500605 -0.309372
C43   C     C_R   0.817094 0.441171 0.576876 0.495599
C44   C     C_R   0.182637 0.574365 0.431357 0.479950
C45   C     C_R   0.910185 0.439717 0.577424 0.001499
C46   C     C_R   0.089807 0.570363 0.428078 -0.004500
C47   C     C_R   0.953531 0.500805 0.501475 -0.069860
C48   C     C_R   0.046603 0.504656 0.501739 -0.089680
C49   C     C_R   0.903868 0.558898 0.425403 -0.027468
C50   C     C_R   0.096547 0.442466 0.575696 0.000514
C51   C     C_R   0.961222 0.379511 0.651830 0.159079
C52   C     C_R   0.039060 0.629151 0.352977 0.166439
Cu1   Cu    Cu3+1 0.500010 0.499980 0.597420 0.987222
Cu2   Cu    Cu3+1 0.499990 0.500020 0.402580 0.986078
H1    H     H_    0.342615 0.727807 0.904092 0.193921
H2    H     H_    0.676002 0.300936 0.094472 0.178399
H3    H     H_    0.091572 0.332898 0.706795 0.196326
H4    H     H_    0.909173 0.666878 0.293442 0.201841
N1    N     N_R   0.499960 0.499900 0.743810 -0.229850
N2    N     N_R   0.500040 0.500100 0.256190 -0.213898
O1    O     O_R   0.500000 0.319630 0.582270 -0.582207
O2    O     O_R   0.500000 0.680370 0.417730 -0.565606
O3    O     O_R   0.499990 0.319660 0.417730 -0.590424
O4    O     O_R   0.500010 0.680340 0.582270 -0.588985
O5    O     O_R   0.370260 0.499960 0.582280 -0.556127
O6    O     O_R   0.629740 0.500040 0.417720 -0.558977
O7    O     O_R   0.370250 0.499990 0.417740 -0.596832
O8    O     O_R   0.629750 0.500010 0.582260 -0.574405
F1    F     F_    0.763921 0.614795 0.352546 -0.676069
F2    F     F_    0.237002 0.378144 0.643750 -0.675750
N3    N     N_3   0.372887 0.873691 0.390217 -0.569559
H5    H     H_    0.309947 0.894826 0.416653 0.257469
H6    H     H_    0.374842 0.902981 0.318298 0.237084
N4    N     N_3   0.633470 0.126569 0.601989 -0.583634
H7    H     H_    0.693931 0.110632 0.568300 0.246093
H8    H     H_    0.639182 0.092264 0.672613 0.248346
N5    N     N_3   0.595324 0.313922 0.754390 -0.507319
H9    H     H_    0.627020 0.338439 0.692047 0.332954
H10   H     H_    0.544966 0.252797 0.740440 0.245858
N6    N     N_3   0.361729 0.621492 0.246978 -0.558814
H11   H     H_    0.379931 0.669134 0.307505 0.319392
H12   H     H_    0.320004 0.548885 0.261568 0.298096
N7    N     N_3   0.370060 0.644609 0.744804 -0.587922
H13   H     H_    0.321276 0.583945 0.724748 0.266088
H14   H     H_    0.389822 0.701183 0.688854 0.288689
N8    N     N_3   0.634751 0.363759 0.255820 -0.586517
H15   H     H_    0.685128 0.422044 0.275641 0.270161
H16   H     H_    0.612935 0.309170 0.311995 0.289258
N9    N     N_3   0.325630 0.755746 0.084325 -0.583376
H17   H     H_    0.272522 0.711771 0.115745 0.268296
H18   H     H_    0.359841 0.807788 0.134312 0.251363
N10   N     N_3   0.694748 0.281237 0.909929 -0.522867
H19   H     H_    0.689254 0.189750 0.934023 0.230878
H20   H     H_    0.756636 0.311405 0.932438 0.227251
F3    F     F_    0.773739 0.383814 0.648546 -0.649270
F4    F     F_    0.224865 0.652726 0.372276 -0.669387
N11   N     N_3   0.920180 0.316446 0.729912 -0.483934
H21   H     H_    0.943109 0.224100 0.730985 0.216055
H22   H     H_    0.940720 0.356161 0.794014 0.215674
N12   N     N_3   0.080421 0.693817 0.275909 -0.496714
H23   H     H_    0.054940 0.784968 0.273658 0.219668
H24   H     H_    0.062803 0.652486 0.211444 0.210990
N13   N     N_3   0.169071 0.326886 0.212103 -0.557685
H25   H     H_    0.116033 0.269447 0.199851 0.217277
H26   H     H_    0.145987 0.404394 0.249044 0.232123
N14   N     N_3   0.851675 0.693113 0.772585 -0.534766
H27   H     H_    0.899648 0.758841 0.783907 0.240405
H28   H     H_    0.880516 0.621018 0.733704 0.247506
N15   N     N_3   0.123603 0.219031 0.395849 -0.593508
H29   H     H_    0.100607 0.310970 0.392702 0.220740
H30   H     H_    0.084308 0.168954 0.349191 0.223344
N16   N     N_3   0.887317 0.804049 0.592083 -0.596598
H31   H     H_    0.904407 0.896511 0.585524 0.227396
H32   H     H_    0.891056 0.765409 0.524336 0.233523
N17   N     N_3   0.258603 0.104279 0.514015 -0.554162
H33   H     H_    0.232629 0.176407 0.554786 0.290394
H34   H     H_    0.209207 0.039887 0.505613 0.238818
N18   N     N_3   0.741571 0.902604 0.472691 -0.563002
H35   H     H_    0.766215 0.831010 0.430471 0.275343
H36   H     H_    0.789342 0.969904 0.476758 0.214854
F5    F     F_    0.468695 0.159019 0.259400 -0.673738
F6    F     F_    0.544079 0.832019 0.736734 -0.674298
N19   N     N_3   0.341015 0.292071 0.142643 -0.546695
H37   H     H_    0.306316 0.240985 0.092445 0.239702
H38   H     H_    0.408253 0.278376 0.128052 0.262328
N20   N     N_3   0.680285 0.706897 0.847280 -0.531638
H39   H     H_    0.691204 0.611126 0.844823 0.242166
H40   H     H_    0.614440 0.721985 0.867203 0.263408

loop_
_geom_bond_atom_site_label_1
_geom_bond_atom_site_label_2
_ccdc_geom_bond_type
C51   N11   S    
N20   H39   S    
C46   C52   A    
C27   C29   A    
C34   C37   A    
N16   H32   S    
N11   H21   S    
Cu1   N1    S    
C8    N18   S    
N19   H37   S    
C39   C41   A    
Cu2   N2    S    
Cu1   Cu2   S    
C23   C42   S    
N4    H8    S    
C4    C52   A    
C25   N5    S    
C35   C37   A    
N15   H30   S    
C13   N19   S    
Cu1   O4    S    
N8    H16   S    
C9    C22   S    
N19   H38   S    
Cu2   O3    S    
C45   C51   A    
C23   O7    A    
N17   H33   S    
C18   C21   A    
C38   N10   S    
C45   C47   A    
C7    N17   S    
Cu1   O8    S    
N18   H35   S    
N10   H19   S    
Cu1   O1    S    
C26   C34   A    
N7    H13   S    
C44   C46   A    
C28   C30   A    
N17   H34   S    
C43   F3    S    
C31   C33   A    
N9    H18   S    
Cu1   O5    S    
C24   O6    A    
C40   C42   A    
C18   N4    S    
C24   C41   S    
C41   C43   A    
C11   F5    S    
C42   C44   A    
C1    O3    A    
N12   H24   S    
N16   H31   S    
N11   H22   S    
C3    C50   A    
C2    O4    A    
C28   N2    A    
C10   C21   S    
C46   C48   A    
N4    H7    S    
C35   H1    S    
N6    H12   S    
C5    C7    A    
C3    C51   A    
N8    H15   S    
C6    C8    A    
Cu2   O7    S    
Cu2   O2    S    
N5    H9    S    
C52   N12   S    
C26   N6    S    
C32   C34   A    
C30   C36   A    
C36   H2    S    
C43   C45   A    
C47   C48   A    
N10   H20   S    
C39   F1    S    
N5    H10   S    
N13   H26   S    
C9    C11   A    
C10   C12   A    
C3    H3    S    
C39   C49   A    
C12   C14   A    
C17   N3    S    
C13   C15   A    
C28   N8    S    
C14   C16   A    
N3    H6    S    
C7    C9    A    
C29   C35   A    
C1    C20   S    
N20   H40   S    
C44   F4    S    
N7    H14   S    
C2    C19   S    
C6    N16   S    
C31   C32   A    
C33   C38   A    
C20   C22   A    
N6    H11   S    
C1    O1    A    
Cu2   O6    S    
C16   N14   S    
C47   C49   A    
C25   N1    A    
C40   F2    S    
C17   C22   A    
C14   N20   S    
C37   N9    S    
C4    C49   A    
C23   O5    A    
C36   C38   A    
N3    H5    S    
C29   C31   A    
C27   N1    A    
N15   H29   S    
C30   C32   A    
C11   C13   A    
N14   H28   S    
C40   C50   A    
C48   C50   A    
N12   H23   S    
C17   C19   A    
C18   C20   A    
N18   H36   S    
C5    C15   A    
C24   O8    A    
C6    C16   A    
C27   N7    S    
C12   F6    S    
C8    C10   A    
N14   H27   S    
C4    H4    S    
N13   H25   S    
C5    N15   S    
C15   N13   S    
N9    H17   S    
C26   N2    A    
C2    O2    A    
C25   C33   A    
C19   C21   A    
