data_mof_unit_4447.cif
_audit_creation_date              2013-03-05T16:31:37-0500
_audit_creation_method            fapswitch 2.2
_symmetry_space_group_name_H-M    P1
_symmetry_Int_Tables_number       1
_space_group_crystal_system       triclinic
_cell_length_a                    9.640883
_cell_length_b                    10.762801
_cell_length_c                    15.433518
_cell_angle_alpha                 89.408039
_cell_angle_beta                  73.665603
_cell_angle_gamma                 90.376783
_cell_volume                      1536.630637

loop_
_atom_site_label
_atom_site_type_symbol
_atom_site_description
_atom_site_fract_x
_atom_site_fract_y
_atom_site_fract_z
_atom_type_partial_charge
O1    O     O_R   0.118810 0.319640 0.500000 -0.537787
O2    O     O_R   0.881230 0.319680 0.499990 -0.542241
C1    C     C_R   0.999520 0.262733 0.500954 0.812137
O3    O     O_R   0.055580 0.499970 0.629840 -0.560347
O4    O     O_R   0.818000 0.500010 0.629830 -0.556445
C2    C     C_R   0.917464 0.500798 0.672323 0.817519
Cu1   Cu    Cu3+1 0.140670 0.499980 0.500000 0.992766
Cu2   Cu    Cu3+1 0.859330 0.500020 0.500000 1.029226
O5    O     O_R   0.118770 0.680320 0.500010 -0.584565
O6    O     O_R   0.881190 0.680360 0.500000 -0.591170
O7    O     O_R   0.182000 0.499990 0.370170 -0.591820
O8    O     O_R   0.944420 0.500030 0.370160 -0.515997
C3    C     C_R   0.000565 0.737193 0.499702 0.779866
C4    C     C_R   0.081895 0.505984 0.327601 0.796834
C5    C     C_R   0.871067 0.503348 0.771699 -0.080674
C6    C     C_R   0.127379 0.533302 0.229318 -0.160299
C7    C     C_R   0.919591 0.465341 0.915609 0.138245
C8    C     C_R   0.965977 0.470087 0.821439 -0.208428
C9    C     C_R   0.729461 0.537004 0.817021 -0.194311
C10   C     C_R   0.681004 0.539451 0.912080 0.036427
C11   C     C_R   0.777366 0.500604 0.961394 0.083070
C12   C     C_R   0.537732 0.574561 0.959311 0.058463
C13   C     C_R   0.487214 0.554478 0.054372 0.017135
C14   C     C_R   0.590548 0.530629 0.102531 0.115462
C15   C     C_R   0.731701 0.500822 0.055601 -0.131113
C16   C     C_R   0.444390 0.632576 0.915335 -0.169167
C17   C     C_R   0.302882 0.660843 0.962072 -0.209798
C18   C     C_R   0.246508 0.623340 0.051896 0.095836
C19   C     C_R   0.336356 0.563916 0.097378 0.097757
C20   C     C_R   0.100158 0.641726 0.096002 -0.247894
C21   C     C_R   0.039873 0.599111 0.184775 0.340864
C22   C     C_R   0.271120 0.509977 0.182457 -0.311034
H1    H     H_    0.807319 0.480333 0.093810 0.223942
H2    H     H_    0.330928 0.448178 0.213514 0.169370
H3    H     H_    0.235273 0.707170 0.926468 0.152668
H4    H     H_    0.075752 0.444963 0.787591 0.212609
H5    H     H_    0.657697 0.558070 0.776619 0.169194
H6    H     H_    0.479579 0.662082 0.845535 0.141943
H7    H     H_    0.031795 0.688282 0.061003 0.176838
C23   C     C_R   0.118145 0.065782 0.450342 0.203684
C24   C     C_R   0.000351 0.129176 0.504490 -0.087016
C25   C     C_R   0.890703 0.062489 0.567018 -0.124289
H8    H     H_    0.805891 0.110190 0.615905 0.212038
C26   C     C_R   0.889932 0.932807 0.565591 -0.208402
H9    H     H_    0.802416 0.881542 0.611927 0.155759
C27   C     C_R   0.001263 0.870444 0.503321 -0.090465
C28   C     C_R   0.118863 0.937660 0.449735 0.123253
C29   C     C_3   0.181974 0.934902 0.349457 -0.482077
C30   C     C_3   0.182433 0.075789 0.350567 -0.473191
H10   H     H_    0.292370 0.895674 0.328936 0.202664
H11   H     H_    0.106203 0.894892 0.314254 0.212753
H12   H     H_    0.292943 0.117256 0.332373 0.217820
H13   H     H_    0.107640 0.118028 0.315537 0.198600
C31   C     C_R   0.596959 0.584100 0.448786 0.279807
N1    N     N_R   0.648210 0.500930 0.499430 -0.277081
C32   C     C_R   0.553282 0.410276 0.544617 0.317531
C33   C     C_R   0.405400 0.409794 0.544218 0.314791
N2    N     N_R   0.352300 0.500890 0.499430 -0.272693
C34   C     C_R   0.450605 0.583801 0.448465 0.158253
C35   C     C_3   0.443359 0.721832 0.454735 -0.452751
C36   C     C_3   0.600076 0.722059 0.455831 -0.419366
H14   H     H_    0.428075 0.764985 0.392548 0.201211
H15   H     H_    0.368472 0.754290 0.519065 0.223130
H16   H     H_    0.674159 0.766771 0.394906 0.247393
H17   H     H_    0.614422 0.753473 0.521212 0.201502
N3    N     N_R   0.600789 0.314783 0.594064 0.165667
O9    O     O_R   0.605684 0.201378 0.565165 -0.343553
O10   O     O_R   0.595559 0.333220 0.678048 -0.351884
N4    N     N_R   0.312050 0.314124 0.593754 0.176509
O11   O     O_R   0.259466 0.325234 0.680507 -0.368461
O12   O     O_R   0.319030 0.203688 0.559362 -0.326564
N5    N     N_R   0.890238 0.622468 0.227381 0.111573
O13   O     O_R   0.802649 0.529392 0.257200 -0.373326
O14   O     O_R   0.836465 0.730560 0.217610 -0.387491
N6    N     N_3   0.016413 0.421345 0.964337 -0.602862
H18   H     H_    0.042510 0.329522 0.945433 0.249691
H19   H     H_    0.111700 0.473815 0.943471 0.235263
N7    N     N_3   0.564475 0.557351 0.196681 -0.499005
H20   H     H_    0.485098 0.624736 0.218365 0.233534
H21   H     H_    0.539742 0.475394 0.234976 0.232967

loop_
_geom_bond_atom_site_label_1
_geom_bond_atom_site_label_2
_geom_bond_distance
_ccdc_geom_bond_type
C5    C8    1.395869 A    
N3    O10   1.300252 A    
N1    C32   1.375163 A    
C23   C24   1.393468 A    
C23   C28   1.379129 A    
C24   C25   1.402059 A    
C9    C10   1.409520 A    
Cu1   Cu2   2.712368 S    
C6    C21   1.417757 A    
C5    C9    1.399598 A    
C16   C17   1.389436 A    
C35   H15   1.111895 S    
C13   C19   1.423550 A    
C18   C19   1.411434 A    
C19   C22   1.404161 A    
C3    C27   1.435861 S    
O7    C4    1.312930 A    
C30   H13   1.112393 S    
C23   C30   1.491917 S    
C32   C33   1.427434 A    
C35   H14   1.108971 S    
N4    O12   1.301170 A    
O5    C3    1.298290 A    
C9    H5    1.077368 S    
C2    C5    1.472500 S    
C27   C28   1.393614 A    
C29   H11   1.112734 S    
C1    C24   1.438077 S    
C13   C14   1.423643 A    
Cu1   N2    2.037803 S    
C29   H10   1.109233 S    
N3    O9    1.300411 A    
C34   C35   1.490571 S    
C25   C26   1.396143 A    
O3    Cu1   1.940069 S    
Cu2   N1    2.037964 S    
C26   C27   1.403121 A    
C31   C34   1.412370 A    
C14   C15   1.391230 A    
N5    O14   1.301234 A    
N7    H20   1.044924 S    
C16   H6    1.078145 S    
C17   H3    1.084197 S    
N2    C34   1.366846 A    
C7    C11   1.410984 A    
C35   C36   1.515719 S    
O1    C1    1.295768 A    
C22   H2    1.076357 S    
C36   H16   1.110953 S    
Cu1   O7    1.929929 S    
N6    H18   1.045486 S    
C28   C29   1.495927 S    
C20   C21   1.400313 A    
Cu2   O8    1.940069 S    
C30   H12   1.111767 S    
C7    C8    1.395514 A    
N6    H19   1.043813 S    
O3    C2    1.308520 A    
C21   N5    1.432241 S    
C10   C12   1.424175 A    
C4    C6    1.481397 S    
C25   H8    1.080711 S    
C26   H9    1.083549 S    
C14   N7    1.435770 S    
Cu1   O5    1.953790 S    
C11   C15   1.395658 A    
C31   N1    1.365616 A    
C29   C30   1.516605 S    
O1    Cu1   1.950993 S    
O2    Cu2   1.953789 S    
O8    C4    1.304039 A    
N5    O13   1.299669 A    
O6    C3    1.298622 A    
O4    Cu2   1.929926 S    
C31   C36   1.490640 S    
C6    C22   1.396805 A    
C18   C20   1.399820 A    
O2    C1    1.301915 A    
C33   N2    1.375791 A    
O4    C2    1.305165 A    
C32   N3    1.426565 S    
C20   H7    1.084542 S    
N7    H21   1.044713 S    
N4    O11   1.298571 A    
C36   H17   1.112023 S    
C10   C11   1.418925 A    
Cu2   O6    1.950993 S    
C12   C16   1.415099 A    
C17   C18   1.393515 A    
C7    N6    1.433323 S    
C12   C13   1.423549 A    
C33   N4    1.428003 S    
C8    H4    1.077863 S    
C15   H1    1.081244 S    
