data_mof_unit_1837.cif
_audit_creation_date              2013-03-05T15:54:33-0500
_audit_creation_method            fapswitch 2.2
_symmetry_space_group_name_H-M    P1
_symmetry_Int_Tables_number       1
_space_group_crystal_system       triclinic
_cell_length_a                    19.055839
_cell_length_b                    18.462746
_cell_length_c                    12.351407
_cell_angle_alpha                 90.002092
_cell_angle_beta                  129.155273
_cell_angle_gamma                 89.996838
_cell_volume                      3369.67237428

loop_
_atom_site_label
_atom_site_type_symbol
_atom_site_description
_atom_site_fract_x
_atom_site_fract_y
_atom_site_fract_z
_atom_type_partial_charge
O1    O     O_R   0.608610 0.924520 0.551740 -0.579584
O2    O     O_R   0.608610 0.075480 0.551740 -0.579643
O3    O     O_R   0.108610 0.424520 0.551740 -0.579599
O4    O     O_R   0.108610 0.575480 0.551740 -0.579716
O5    O     O_R   0.564110 0.924510 0.685150 -0.601495
O6    O     O_R   0.564110 0.075490 0.685150 -0.601595
O7    O     O_R   0.064110 0.424510 0.685150 -0.601607
O8    O     O_R   0.064110 0.575490 0.685150 -0.601804
C1    C     C_R   0.612209 0.898209 0.652916 0.780525
C2    C     C_R   0.612157 0.101827 0.652853 0.780539
C3    C     C_R   0.112100 0.398124 0.652775 0.780803
C4    C     C_R   0.112021 0.601937 0.652677 0.780859
Cu1   Cu    Cu3+1 0.526340 1.000000 0.421010 0.930764
Cu2   Cu    Cu3+1 0.026340 0.500000 0.421010 0.930713
Cu3   Cu    Cu3+1 0.473640 0.000000 0.578990 0.916775
Cu4   Cu    Cu3+1 0.973640 0.500000 0.578990 0.916602
O9    O     O_R   0.435880 0.075470 0.314850 -0.582202
O10   O     O_R   0.435880 0.924530 0.314850 -0.582275
O11   O     O_R   0.935880 0.575470 0.314850 -0.582150
O12   O     O_R   0.935880 0.424530 0.314850 -0.582155
O13   O     O_R   0.391380 0.075460 0.448260 -0.593594
O14   O     O_R   0.391380 0.924540 0.448260 -0.593654
O15   O     O_R   0.891380 0.575460 0.448260 -0.593652
O16   O     O_R   0.891380 0.424540 0.448260 -0.593651
C5    C     C_R   0.384286 0.098736 0.342503 0.793902
C6    C     C_R   0.384293 0.901255 0.342510 0.793978
C7    C     C_R   0.884283 0.598723 0.342499 0.793742
C8    C     C_R   0.884289 0.401271 0.342504 0.793780
C9    C     C_R   0.656345 0.312119 0.113047 -0.193707
C10   C     C_R   0.656184 0.687585 0.112506 -0.193650
C11   C     C_R   0.156921 0.811011 0.114824 -0.193706
C12   C     C_R   0.156572 0.188354 0.113761 -0.193691
H1    H     H_    0.226342 0.877012 0.298308 0.146878
H2    H     H_    0.225819 0.122197 0.297023 0.146730
H3    H     H_    0.725464 0.378410 0.296121 0.146555
H4    H     H_    0.725202 0.621224 0.295474 0.146484
H5    H     H_    0.520193 0.246155 0.880992 0.136623
H6    H     H_    0.520067 0.753411 0.880235 0.136488
H7    H     H_    0.020646 0.744688 0.883353 0.136859
H8    H     H_    0.020360 0.254465 0.881927 0.136747
H9    H     H_    0.594436 0.311502 0.099840 0.131302
H10   H     H_    0.594160 0.688026 0.098976 0.131450
H11   H     H_    0.095391 0.809737 0.102690 0.131106
H12   H     H_    0.094819 0.189258 0.101002 0.131197
C13   C     C_R   0.310985 0.851952 0.242612 -0.048395
C14   C     C_R   0.310942 0.147995 0.242552 -0.048277
C15   C     C_R   0.810928 0.352043 0.242535 -0.048081
C16   C     C_R   0.810911 0.647933 0.242506 -0.047991
C17   C     C_R   0.754122 0.165716 0.748158 -0.186116
C18   C     C_R   0.754520 0.834726 0.748874 -0.185942
C19   C     C_R   0.252985 0.667054 0.746043 -0.186426
C20   C     C_R   0.253643 0.333696 0.747248 -0.186237
C21   C     C_R   0.322469 0.714088 0.840730 -0.149232
C22   C     C_R   0.323382 0.286979 0.842470 -0.149310
C23   C     C_R   0.824049 0.212188 0.843777 -0.149394
C24   C     C_R   0.824607 0.788450 0.844824 -0.149453
C25   C     C_R   0.319530 0.752207 0.934753 -0.184196
C26   C     C_R   0.320313 0.248680 0.936202 -0.184223
C27   C     C_R   0.820890 0.250622 0.937306 -0.184282
C28   C     C_R   0.821376 0.749914 0.938186 -0.184316
C29   C     C_R   0.745160 0.245151 0.933648 0.081263
C30   C     C_R   0.745430 0.755082 0.934040 0.081349
C31   C     C_R   0.244408 0.745861 0.932484 0.081135
C32   C     C_R   0.244836 0.254530 0.933128 0.081205
C33   C     C_R   0.669384 0.204180 0.825178 0.079702
C34   C     C_R   0.669576 0.795904 0.825332 0.079710
C35   C     C_R   0.168875 0.704427 0.824747 0.079675
C36   C     C_R   0.169164 0.295702 0.824969 0.079675
C37   C     C_R   0.241373 0.779786 0.032731 0.073341
C38   C     C_R   0.241574 0.220352 0.032958 0.073404
C39   C     C_R   0.741741 0.279525 0.033181 0.073454
C40   C     C_R   0.741875 0.720560 0.033321 0.073453
C41   C     C_R   0.660489 0.278299 0.015474 0.167375
C42   C     C_R   0.660470 0.721550 0.015194 0.167368
C43   C     C_R   0.160610 0.777735 0.016373 0.167489
C44   C     C_R   0.160524 0.221934 0.015812 0.167398
C45   C     C_R   0.583660 0.244913 0.898930 -0.241499
C46   C     C_R   0.583632 0.754838 0.898485 -0.241397
C47   C     C_R   0.083815 0.744050 0.900323 -0.241770
C48   C     C_R   0.083707 0.255446 0.899466 -0.241591
C49   C     C_R   0.587483 0.209440 0.803915 -0.199227
C50   C     C_R   0.587568 0.790431 0.803698 -0.199305
C51   C     C_R   0.087306 0.709002 0.804626 -0.199179
C52   C     C_R   0.087397 0.290735 0.804175 -0.199186
C53   C     C_R   0.316668 0.815155 0.149897 -0.254198
C54   C     C_R   0.316881 0.185122 0.150401 -0.254045
C55   C     C_R   0.817053 0.314657 0.150807 -0.253942
C56   C     C_R   0.817174 0.685474 0.151065 -0.253862
C57   C     C_R   0.231704 0.848475 0.227150 -0.194930
C58   C     C_R   0.231377 0.151018 0.226326 -0.194813
C59   C     C_R   0.731163 0.349366 0.225766 -0.194834
C60   C     C_R   0.731006 0.650402 0.225353 -0.194801
C61   C     C_R   0.677486 0.159712 0.739987 -0.104964
C62   C     C_R   0.677699 0.840455 0.740265 -0.104914
C63   C     C_R   0.176897 0.660217 0.739174 -0.105291
C64   C     C_R   0.177236 0.340062 0.739627 -0.105181
H13   H     H_    0.380886 0.815739 0.171342 0.147870
H14   H     H_    0.381308 0.184854 0.172480 0.147580
H15   H     H_    0.881626 0.314689 0.173337 0.147342
H16   H     H_    0.881838 0.685559 0.173888 0.147207
H17   H     H_    0.761176 0.133059 0.682636 0.150973
H18   H     H_    0.761601 0.867476 0.683481 0.150841
H19   H     H_    0.259942 0.634685 0.680127 0.151288
H20   H     H_    0.260658 0.366228 0.681562 0.151117
H21   H     H_    0.376282 0.787334 0.005537 0.128605
H22   H     H_    0.377270 0.213819 0.007416 0.128564
H23   H     H_    0.877997 0.285274 0.008845 0.128497
H24   H     H_    0.878629 0.715439 0.010006 0.128375
H25   H     H_    0.380440 0.719387 0.844194 0.130488
H26   H     H_    0.381634 0.282081 0.846586 0.130419
H27   H     H_    0.882499 0.216782 0.848363 0.130418
H28   H     H_    0.883229 0.784100 0.849808 0.130421
H29   H     H_    0.524535 0.187900 0.711987 0.176199
H30   H     H_    0.524634 0.811905 0.711645 0.175998
H31   H     H_    0.024330 0.687269 0.713088 0.176796
H32   H     H_    0.024443 0.312355 0.712402 0.176447
C65   C     C_R   0.686354 0.999939 0.289822 0.093109
C66   C     C_R   0.186353 0.500014 0.289824 0.093099
H33   H     H_    0.703451 0.999921 0.480067 0.122882
H34   H     H_    0.203447 0.500015 0.480066 0.123117
H35   H     H_    0.721395 0.000015 0.109348 0.166966
H36   H     H_    0.221398 0.500019 0.109360 0.166939
N1    N     N_R   0.566260 1.000000 0.302220 -0.199107
N2    N     N_R   0.066260 0.500000 0.302220 -0.199182
C67   C     C_R   0.343820 0.999988 0.627874 0.068341
C68   C     C_R   0.843821 0.499977 0.627873 0.068610
C69   C     C_R   0.309957 0.999980 0.700153 -0.253088
C70   C     C_R   0.809957 0.499946 0.700152 -0.253067
C71   C     C_R   0.368966 0.999988 0.845815 -0.188087
C72   C     C_R   0.868967 0.499947 0.845815 -0.187682
C73   C     C_R   0.463482 0.000004 0.922063 0.006457
C74   C     C_R   0.963483 0.499981 0.922064 0.006518
C75   C     C_R   0.494930 0.000007 0.842926 0.286229
C76   C     C_R   0.994931 0.499999 0.842928 0.285947
C77   C     C_R   0.527691 0.000005 0.073089 -0.076761
C78   C     C_R   0.027692 0.499991 0.073090 -0.076840
C79   C     C_R   0.621968 0.999989 0.141707 0.154724
C80   C     C_R   0.121969 0.500006 0.141710 0.154695
C81   C     C_R   0.650348 0.000007 0.061318 -0.266079
C82   C     C_R   0.150351 0.500011 0.061325 -0.265957
C83   C     C_R   0.588756 0.000013 0.916792 -0.178488
C84   C     C_R   0.088758 0.500008 0.916798 -0.178562
C85   C     C_R   0.502537 0.000016 0.159752 -0.006939
C86   C     C_R   0.002537 0.499992 0.159752 -0.006610
C87   C     C_R   0.655798 0.999949 0.367077 0.061073
C88   C     C_R   0.155796 0.500009 0.367077 0.060595
N3    N     N_R   0.434410 1.000000 0.697680 -0.206501
N4    N     N_R   0.934410 0.500000 0.697680 -0.206615
H37   H     H_    0.432653 0.000039 0.116347 0.136051
H38   H     H_    0.932654 0.499990 0.116349 0.136208
H39   H     H_    0.297368 0.999982 0.514937 0.119836
H40   H     H_    0.797369 0.499975 0.514937 0.119733
H41   H     H_    0.338724 0.999976 0.895764 0.138407
H42   H     H_    0.838724 0.499914 0.895762 0.138472
H43   H     H_    0.237548 0.999966 0.642955 0.145985
H44   H     H_    0.737548 0.499917 0.642954 0.145943
H45   H     H_    0.618449 0.000009 0.867211 0.209226
H46   H     H_    0.118454 0.500010 0.867219 0.209323
C89   C     C_3   0.787094 0.999866 0.367580 -0.918697
H47   H     H_    0.806494 0.049127 0.340411 0.243502
H48   H     H_    0.826398 0.999646 0.482558 0.227361
H49   H     H_    0.806328 0.950756 0.339785 0.243497
C90   C     C_3   0.287093 0.500027 0.367584 -0.918916
H50   H     H_    0.326388 0.500033 0.482555 0.227384
H51   H     H_    0.306426 0.450845 0.340126 0.243529
H52   H     H_    0.306400 0.549215 0.340105 0.243510

loop_
_geom_bond_atom_site_label_1
_geom_bond_atom_site_label_2
_geom_bond_distance
_ccdc_geom_bond_type
C7    C16   1.457718 S    
C3    C64   1.469346 S    
C25   H21   1.077278 S    
C8    C15   1.457803 S    
H34   C88   1.082515 S    
C23   C27   1.389045 A    
C65   C89   1.509737 S    
C13   C53   1.393271 A    
C90   H50   1.111044 S    
O10   C6    1.300738 A    
C48   C52   1.385393 A    
H2    C58   1.083368 S    
C20   C64   1.403389 A    
H3    C59   1.083320 S    
C11   C43   1.403193 A    
C35   C51   1.413185 A    
C79   C81   1.398734 A    
C17   C61   1.403217 A    
C36   C64   1.417889 A    
C11   H11   1.084395 S    
Cu1   O10   1.943716 S    
C32   C36   1.417409 A    
C65   C87   1.396855 A    
C90   H51   1.110410 S    
C82   C84   1.385020 A    
C73   C77   1.447212 A    
C17   H17   1.083459 S    
C10   C42   1.403067 A    
C9    C41   1.403078 A    
C19   H19   1.083422 S    
C22   H26   1.082434 S    
C28   C30   1.418644 A    
O2    Cu1   1.952010 S    
Cu3   N3    2.022854 S    
C86   H38   1.076662 S    
C67   H39   1.081689 S    
C6    C13   1.458022 S    
O6    Cu3   1.944068 S    
C68   H40   1.081688 S    
Cu3   O14   1.951694 S    
C12   C58   1.391882 A    
C31   C37   1.420968 A    
C11   C57   1.391868 A    
C68   N4    1.357846 A    
C85   H37   1.076669 S    
C16   C60   1.399317 A    
C44   C48   1.390734 A    
H8    C48   1.083594 S    
C4    C63   1.469583 S    
C25   C31   1.418835 A    
C75   N3    1.391279 A    
C32   C38   1.421024 A    
O4    C4    1.301821 A    
O11   C7    1.300626 A    
C28   H24   1.077074 S    
C53   H13   1.076324 S    
O8    C4    1.302050 A    
C34   C62   1.417726 A    
C9    H9    1.084197 S    
H4    C60   1.083313 S    
C33   C61   1.417802 A    
Cu4   O16   1.951694 S    
C35   C63   1.417998 A    
C84   H46   1.064342 S    
N1    C87   1.351602 A    
C40   C56   1.399367 A    
C20   C22   1.385431 A    
O7    C3    1.302024 A    
C55   H15   1.076618 S    
C19   C63   1.403593 A    
C26   C32   1.418711 A    
C31   C35   1.417373 A    
C66   C90   1.509719 S    
C27   C29   1.418610 A    
Cu2   N2    2.034927 S    
C30   C34   1.417477 A    
C36   C52   1.413079 A    
C51   H31   1.079826 S    
C66   C88   1.396857 A    
C90   H52   1.110413 S    
O1    C1    1.301594 A    
C50   H30   1.079896 S    
C40   C42   1.420627 A    
C67   N3    1.357852 A    
C69   H43   1.082563 S    
C39   C41   1.420580 A    
C21   C25   1.388949 A    
H1    C57   1.083458 S    
C18   C62   1.403158 A    
O12   C8    1.300662 A    
C2    C61   1.469104 S    
C17   C23   1.385364 A    
N2    C88   1.351575 A    
C18   C24   1.385397 A    
C24   C28   1.389046 A    
C26   H22   1.077177 S    
H7    C47   1.083717 S    
C72   C74   1.410250 A    
C69   C71   1.395165 A    
O5    C1    1.301979 A    
Cu2   O12   1.943716 S    
C76   C84   1.403265 A    
C46   C50   1.385327 A    
C33   C49   1.412991 A    
C89   H47   1.110472 S    
C45   C49   1.385427 A    
C74   C78   1.447216 A    
C16   C56   1.393027 A    
C12   H12   1.084279 S    
C89   H49   1.110483 S    
C30   C40   1.421104 A    
C72   H42   1.077818 S    
C56   H16   1.076652 S    
O3    Cu2   1.951972 S    
C80   C82   1.398719 A    
C74   C76   1.433251 A    
C39   C55   1.399315 A    
C78   C80   1.422323 A    
O7    Cu4   1.944001 S    
C18   H18   1.083449 S    
Cu4   O15   1.951654 S    
O15   C7    1.298503 A    
Cu1   Cu3   2.700110 S    
C38   C44   1.420585 A    
Cu2   Cu4   2.700110 S    
C52   H32   1.079866 S    
O1    Cu1   1.951972 S    
C49   H29   1.079943 S    
C38   C54   1.399198 A    
C14   C54   1.393160 A    
C9    C59   1.391850 A    
C37   C53   1.399013 A    
C22   C26   1.388997 A    
C83   H45   1.064343 S    
C77   C79   1.422326 A    
O13   C5    1.298567 A    
C20   H20   1.083445 S    
C68   C70   1.393176 A    
C13   C57   1.399516 A    
C23   H27   1.082277 S    
C15   C59   1.399333 A    
Cu2   O11   1.943647 S    
C65   C79   1.420426 A    
O16   C8    1.298507 A    
C73   C75   1.433258 A    
C70   C72   1.395167 A    
C12   C44   1.403133 A    
C14   C58   1.399406 A    
H33   C87   1.082530 S    
H6    C46   1.083473 S    
C75   C83   1.403248 A    
Cu1   O9    1.943647 S    
Cu4   N4    2.022854 S    
O9    C5    1.300688 A    
H35   C81   1.081933 S    
C89   H48   1.111107 S    
C76   N4    1.391296 A    
H36   C82   1.081932 S    
C78   C86   1.422484 A    
C71   H41   1.077814 S    
C81   C83   1.385013 A    
C29   C39   1.421071 A    
H5    C45   1.083468 S    
Cu1   N1    2.034927 S    
C5    C14   1.457932 S    
C77   C85   1.422490 A    
C37   C43   1.420591 A    
C10   H10   1.084211 S    
O4    Cu2   1.952010 S    
C54   H14   1.076502 S    
C27   H23   1.077056 S    
O5    Cu3   1.944001 S    
O3    C3    1.301722 A    
O6    C2    1.301981 A    
C70   H44   1.082569 S    
O14   C6    1.298583 A    
C47   C51   1.385452 A    
C29   C33   1.417452 A    
Cu3   O13   1.951654 S    
O8    Cu4   1.944068 S    
C42   C46   1.390717 A    
N1    C85   1.368422 A    
C67   C69   1.393174 A    
C41   C45   1.390719 A    
N2    C86   1.368415 A    
C21   H25   1.082612 S    
C19   C21   1.385470 A    
C66   C80   1.420410 A    
C43   C47   1.390679 A    
C1    C62   1.469030 S    
C24   H28   1.082270 S    
C34   C50   1.412948 A    
C15   C55   1.393062 A    
C71   C73   1.410242 A    
C10   C60   1.391830 A    
O2    C2    1.301647 A    
