data_mof_unit_4078.cif
_audit_creation_date              2012-12-10T18:46:19-0500
_audit_creation_method            fapswitch 2.2
_symmetry_space_group_name_H-M    P1
_symmetry_Int_Tables_number       1
_space_group_crystal_system       triclinic
_cell_length_a                    9.843077
_cell_length_b                    10.711054
_cell_length_c                    13.219288
_cell_angle_alpha                 90.064753
_cell_angle_beta                  70.115987
_cell_angle_gamma                 89.951706
_cell_volume                      1310.61552467

loop_
_atom_site_label
_atom_site_type_symbol
_atom_type_description
_atom_site_fract_x
_atom_site_fract_y
_atom_site_fract_z
_atom_type_partial_charge
C1    C     C_R   0.499923 0.740111 0.500179 0.859136
C2    C     C_R   0.371138 0.495168 0.821168 -0.125324
C3    C     C_R   0.607278 0.935991 0.526567 -0.200170
C4    C     C_R   0.420132 0.504377 0.704111 0.870459
C5    C     C_R   0.607421 0.063922 0.526374 -0.192218
C6    C     C_R   0.499966 0.127452 0.500114 -0.014554
C7    C     C_R   0.392339 0.063993 0.474085 -0.195825
C8    C     C_R   0.392208 0.936078 0.474262 -0.193764
C9    C     C_R   0.499756 0.872542 0.500395 -0.011510
C10   C     C_R   0.956140 0.416389 0.438681 -0.082643
C11   C     C_R   0.100039 0.416466 0.438648 -0.068040
C12   C     C_R   0.456416 0.462036 0.971809 0.058458
C13   C     C_R   0.043876 0.583631 0.561285 -0.082767
C14   C     C_R   0.900148 0.583799 0.561036 -0.054895
C15   C     C_R   0.499994 0.259890 0.500000 0.872011
C16   C     C_R   0.579945 0.499309 0.296142 0.877027
C17   C     C_R   0.790692 0.585527 0.012548 -0.202747
C18   C     C_R   0.629643 0.503563 0.179737 -0.062887
C19   C     C_R   0.246332 0.426555 0.873253 -0.252178
C20   C     C_R   0.232433 0.365586 0.968676 -0.150303
C21   C     C_R   0.343203 0.371635 0.012652 0.213681
C22   C     C_3   0.346430 0.266326 0.087927 -0.972506
C23   C     C_R   0.468265 0.524605 0.875073 0.058427
C24   C     C_R   0.559344 0.492593 0.021474 0.083338
C25   C     C_R   0.684725 0.562961 0.965668 0.179543
C26   C     C_R   0.694635 0.621301 0.869755 -0.253685
C27   C     C_R   0.581935 0.610504 0.830099 -0.185137
C28   C     C_R   0.530799 0.471081 0.130086 -0.270005
C29   C     C_R   0.763973 0.553800 0.119671 -0.197257
H1    H     H_    0.841861 0.578916 0.157607 0.159705
H2    H     H_    0.889003 0.635323 0.969008 0.139318
H3    H     H_    0.424798 0.440535 0.179544 0.182778
H4    H     H_    0.168681 0.406606 0.833754 0.172506
H5    H     H_    0.142793 0.301786 0.001458 0.153272
H6    H     H_    0.586188 0.668103 0.761853 0.148499
H7    H     H_    0.690193 0.887118 0.547823 0.148272
H8    H     H_    0.456725 0.249250 0.089724 0.253462
H9    H     H_    0.269384 0.285505 0.169960 0.232097
H10   H     H_    0.313628 0.177385 0.059486 0.248528
H11   H     H_    0.690456 0.112732 0.547463 0.157199
H12   H     H_    0.309395 0.112838 0.452846 0.151402
H13   H     H_    0.309168 0.887288 0.453165 0.156795
H14   H     H_    0.924144 0.349618 0.389585 0.125659
H15   H     H_    0.177034 0.349726 0.389508 0.119308
H16   H     H_    0.075886 0.650486 0.610311 0.121362
H17   H     H_    0.823621 0.651204 0.609456 0.115222
H18   H     H_    0.784463 0.682424 0.829486 0.135469
N1    N     N_R   0.142790 0.500030 0.500030 -0.076051
N2    N     N_R   0.857180 0.499940 0.500010 -0.076450
O1    O     O_R   0.385370 0.683250 0.500010 -0.624880
O2    O     O_R   0.614700 0.683220 0.500010 -0.631624
O3    O     O_R   0.328400 0.499990 0.653620 -0.613827
O4    O     O_R   0.557730 0.499960 0.653620 -0.606252
O5    O     O_R   0.385300 0.316780 0.499990 -0.625665
O6    O     O_R   0.614630 0.316750 0.499990 -0.623227
O7    O     O_R   0.442270 0.500040 0.346380 -0.618183
O8    O     O_R   0.671600 0.500010 0.346380 -0.616021
Zn1   Zn    Zn3+2 0.346870 0.500020 0.500000 0.942342
Zn2   Zn    Zn3+2 0.653130 0.499980 0.500000 0.945319

loop_
_geom_bond_atom_site_label_1
_geom_bond_atom_site_label_2
_ccdc_geom_bond_type
C13   N1    A    
C2    C4    S    
C15   O6    A    
C16   O7    A    
N1    Zn1   S    
C6    C7    A    
C3    C9    A    
O6    Zn2   S    
C4    O4    A    
C10   N2    A    
C17   C29   A    
C1    O1    A    
C12   C24   A    
C19   C20   A    
N2    Zn2   S    
C8    H13   S    
C17   C25   A    
C11   N1    A    
C20   H5    S    
C11   H15   S    
C14   H17   S    
C18   C29   A    
C21   C22   S    
C24   C25   A    
C13   H16   S    
C1    O2    A    
C12   C23   A    
C26   C27   A    
C29   H1    S    
O3    Zn1   S    
C3    H7    S    
C4    O3    A    
C22   H10   S    
C26   H18   S    
C25   C26   A    
O7    Zn1   S    
C23   C27   A    
C16   O8    A    
C7    H12   S    
C19   H4    S    
C5    C6    A    
C17   H2    S    
O8    Zn2   S    
C14   N2    A    
O2    Zn2   S    
C10   C11   A    
O4    Zn2   S    
O1    Zn1   S    
C15   O5    A    
C28   H3    S    
C18   C28   A    
C20   C21   A    
C16   C18   S    
C7    C8    A    
O5    Zn1   S    
C5    H11   S    
C2    C23   A    
C27   H6    S    
C6    C15   S    
C13   C14   A    
C22   H8    S    
C12   C21   A    
C1    C9    S    
C24   C28   A    
C2    C19   A    
C10   H14   S    
C8    C9    A    
C3    C5    A    
C22   H9    S    
