data_mof_unit_3994.cif
_audit_creation_date              2013-03-05T16:10:56-0500
_audit_creation_method            fapswitch 2.2
_symmetry_space_group_name_H-M    P1
_symmetry_Int_Tables_number       1
_space_group_crystal_system       triclinic
_cell_length_a                    16.378993
_cell_length_b                    14.324553
_cell_length_c                    9.955487
_cell_angle_alpha                 89.967288
_cell_angle_beta                  89.999439
_cell_angle_gamma                 89.999893
_cell_volume                      2335.77343424

loop_
_atom_site_label
_atom_site_type_symbol
_atom_site_description
_atom_site_fract_x
_atom_site_fract_y
_atom_site_fract_z
_atom_type_partial_charge
O1    O     O_R   0.091610 0.408380 0.614620 -0.571487
O2    O     O_R   0.908390 0.591620 0.385380 -0.561032
O3    O     O_R   0.908390 0.591620 0.614620 -0.571756
O4    O     O_R   0.091610 0.408380 0.385380 -0.561199
O5    O     O_R   0.908390 0.408380 0.385380 -0.571755
O6    O     O_R   0.091610 0.591620 0.614620 -0.561199
O7    O     O_R   0.091610 0.591620 0.385380 -0.571487
O8    O     O_R   0.908390 0.408380 0.614620 -0.561031
O9    O     O_R   0.591610 0.908380 0.614620 -0.561025
O10   O     O_R   0.408390 0.091620 0.385380 -0.571490
O11   O     O_R   0.408390 0.091620 0.614620 -0.561198
O12   O     O_R   0.591610 0.908380 0.385380 -0.571763
O13   O     O_R   0.408390 0.908380 0.385380 -0.561195
O14   O     O_R   0.591610 0.091620 0.614620 -0.571758
O15   O     O_R   0.591610 0.091620 0.385380 -0.561026
O16   O     O_R   0.408390 0.908380 0.614620 -0.571488
C1    C     C_R   0.120613 0.380899 0.498644 0.980238
C2    C     C_R   0.879439 0.619167 0.498621 0.980811
C3    C     C_R   0.879439 0.380833 0.501379 0.980813
C4    C     C_R   0.120613 0.619100 0.501355 0.980245
C5    C     C_R   0.620561 0.880833 0.501379 0.980823
C6    C     C_R   0.379385 0.119098 0.501357 0.980189
C7    C     C_R   0.379385 0.880902 0.498645 0.980194
C8    C     C_R   0.620561 0.119167 0.498621 0.980820
N1    N     N_R   1.000000 0.500000 0.857200 -0.205332
N2    N     N_R   1.000000 0.500000 0.142800 -0.205329
N3    N     N_R   0.500000 1.000000 0.857200 -0.205324
N4    N     N_R   0.500000 1.000000 0.142800 -0.205331
Zn1   Zn    Zn3+2 1.000000 0.500000 0.653120 1.166845
Zn2   Zn    Zn3+2 1.000000 0.500000 0.346880 1.166844
Zn3   Zn    Zn3+2 0.500000 0.000000 0.653120 1.166843
Zn4   Zn    Zn3+2 0.500000 0.000000 0.346880 1.166843
C9    C     C_R   0.006753 0.581619 0.070412 0.246736
C10   C     C_R   0.006756 0.418381 0.929587 0.246740
C11   C     C_R   0.993181 0.418396 0.070611 0.246823
C12   C     C_R   0.993178 0.581604 0.929388 0.246825
C13   C     C_R   0.493242 0.081619 0.070411 0.246731
C14   C     C_R   0.493253 0.918379 0.929590 0.246728
C15   C     C_R   0.506827 0.918397 0.070614 0.246832
C16   C     C_R   0.506816 0.081604 0.929387 0.246833
C17   C     C_R   0.758099 0.315387 0.394615 0.211562
C18   C     C_R   0.200440 0.744690 0.614932 0.210925
C19   C     C_R   0.241718 0.684980 0.394271 0.210804
C20   C     C_R   0.799861 0.254806 0.614571 0.210441
C21   C     C_R   0.241724 0.315029 0.605718 0.210807
C22   C     C_R   0.799863 0.745195 0.385430 0.210441
C23   C     C_R   0.758098 0.684613 0.605385 0.211559
C24   C     C_R   0.200433 0.255297 0.385078 0.210908
C25   C     C_R   0.299553 0.755317 0.385058 0.210911
C26   C     C_R   0.741901 0.184613 0.605385 0.211563
C27   C     C_R   0.700138 0.245195 0.385431 0.210445
C28   C     C_R   0.258285 0.815015 0.605733 0.210778
C29   C     C_R   0.700138 0.754807 0.614571 0.210444
C30   C     C_R   0.258277 0.184971 0.394282 0.210789
C31   C     C_R   0.299556 0.244690 0.614938 0.210892
C32   C     C_R   0.741904 0.815389 0.394617 0.211561
C33   C     C_R   0.189587 0.682218 0.505706 -0.313787
C34   C     C_R   0.810488 0.317690 0.505721 -0.313490
C35   C     C_R   0.810488 0.682311 0.494280 -0.313489
C36   C     C_R   0.189587 0.317781 0.494291 -0.313785
C37   C     C_R   0.689512 0.182310 0.494280 -0.313491
C38   C     C_R   0.310411 0.817784 0.494290 -0.313813
C39   C     C_R   0.310409 0.182214 0.505715 -0.313813
C40   C     C_R   0.689513 0.817691 0.505721 -0.313490
N5    N     N_R   0.033690 0.667164 0.131633 0.267462
O17   O     O_R   0.006300 0.693984 0.247097 -0.304277
O18   O     O_R   0.080861 0.723861 0.065175 -0.206390
N6    N     N_R   0.033697 0.332838 0.868363 0.267460
O19   O     O_R   0.006299 0.306013 0.752907 -0.304271
O20   O     O_R   0.080877 0.276148 0.934812 -0.206401
N7    N     N_R   0.966135 0.332930 0.132066 0.267215
O21   O     O_R   0.993823 0.305870 0.247278 -0.304480
O22   O     O_R   0.918575 0.276509 0.065990 -0.206967
N8    N     N_R   0.966130 0.667069 0.867932 0.267213
O23   O     O_R   0.993825 0.694132 0.752724 -0.304486
O24   O     O_R   0.918564 0.723486 0.934004 -0.206967
N9    N     N_R   0.466304 0.167164 0.131634 0.267458
O25   O     O_R   0.493700 0.193985 0.247094 -0.304266
O26   O     O_R   0.419135 0.223862 0.065177 -0.206396
N10   N     N_R   0.466325 0.832828 0.868372 0.267468
O27   O     O_R   0.493703 0.806022 0.752892 -0.304282
O28   O     O_R   0.419181 0.776111 0.934847 -0.206367
N11   N     N_R   0.533879 0.832936 0.132077 0.267208
O29   O     O_R   0.506169 0.805864 0.247272 -0.304489
O30   O     O_R   0.581457 0.776527 0.066017 -0.206979
N12   N     N_R   0.533860 0.167071 0.867928 0.267211
O31   O     O_R   0.506163 0.194133 0.752720 -0.304498
O32   O     O_R   0.581425 0.223489 0.933996 -0.206974
N13   N     N_R   0.761097 0.387049 0.293299 0.260825
O33   O     O_R   0.748406 0.473770 0.326084 -0.310684
O34   O     O_R   0.774592 0.365812 0.168218 -0.213378
N14   N     N_R   0.154642 0.737207 0.736996 0.268969
O35   O     O_R   0.171950 0.669882 0.820121 -0.239822
O36   O     O_R   0.114994 0.809693 0.781567 -0.205890
N15   N     N_R   0.238578 0.613643 0.292598 0.260877
O37   O     O_R   0.251562 0.526838 0.324828 -0.310005
O38   O     O_R   0.224651 0.635260 0.167734 -0.213304
N16   N     N_R   0.846057 0.261693 0.736227 0.268878
O39   O     O_R   0.828863 0.328449 0.820214 -0.239646
O40   O     O_R   0.885951 0.189034 0.779660 -0.206453
N17   N     N_R   0.238590 0.386379 0.707373 0.260881
O41   O     O_R   0.251569 0.473179 0.675116 -0.310038
O42   O     O_R   0.224663 0.364779 0.832243 -0.213309
N18   N     N_R   0.846061 0.738310 0.263773 0.268879
O43   O     O_R   0.828868 0.671555 0.179783 -0.239648
O44   O     O_R   0.885957 0.810970 0.220344 -0.206452
N19   N     N_R   0.761095 0.612950 0.706700 0.260825
O45   O     O_R   0.748407 0.526229 0.673912 -0.310690
O46   O     O_R   0.774588 0.634186 0.831781 -0.213372
N20   N     N_R   0.154627 0.262768 0.263023 0.268969
O47   O     O_R   0.171933 0.330081 0.179877 -0.239822
O48   O     O_R   0.114973 0.190279 0.218479 -0.205900
N21   N     N_R   0.345330 0.762823 0.262971 0.268976
O49   O     O_R   0.328017 0.830175 0.179890 -0.239829
O50   O     O_R   0.384971 0.690347 0.218345 -0.205862
N22   N     N_R   0.738903 0.112950 0.706699 0.260826
O51   O     O_R   0.751593 0.026229 0.673910 -0.310683
O52   O     O_R   0.725406 0.134184 0.831780 -0.213380
N23   N     N_R   0.653940 0.238310 0.263778 0.268877
O53   O     O_R   0.671133 0.171558 0.179787 -0.239644
O54   O     O_R   0.614043 0.310969 0.220355 -0.206464
N24   N     N_R   0.261448 0.886324 0.707449 0.260867
O55   O     O_R   0.248428 0.973137 0.675288 -0.309910
O56   O     O_R   0.275379 0.864664 0.832299 -0.213297
N25   N     N_R   0.653940 0.761692 0.736228 0.268877
O57   O     O_R   0.671134 0.828446 0.820218 -0.239649
O58   O     O_R   0.614044 0.689033 0.779657 -0.206462
N26   N     N_R   0.261428 0.113643 0.292594 0.260871
O59   O     O_R   0.248431 0.026834 0.324800 -0.309986
O60   O     O_R   0.275338 0.135277 0.167730 -0.213279
N27   N     N_R   0.345330 0.237185 0.737027 0.268976
O61   O     O_R   0.328016 0.169832 0.820106 -0.239836
O62   O     O_R   0.384971 0.309660 0.781654 -0.205862
N28   N     N_R   0.738910 0.887056 0.293309 0.260824
O63   O     O_R   0.751593 0.973776 0.326106 -0.310700
O64   O     O_R   0.725422 0.865826 0.168224 -0.213365

loop_
_geom_bond_atom_site_label_1
_geom_bond_atom_site_label_2
_geom_bond_distance
_ccdc_geom_bond_type
C25   N21   1.432076 S    
C21   C36   1.400471 A    
C8    C37   1.447547 S    
C22   C35   1.419475 A    
O2    C2    1.285308 A    
O13   Zn4   2.029829 S    
C24   N20   1.432032 S    
N15   O37   1.301484 A    
C27   C37   1.419466 A    
O14   Zn3   2.029827 S    
N26   O59   1.301510 A    
N18   O44   1.302584 A    
C9    N5    1.438259 S    
O15   Zn4   2.030116 S    
N9    O25   1.292565 A    
O10   C6    1.309291 A    
O16   Zn3   2.030118 S    
C24   C30   1.385909 A    
N17   O41   1.301482 A    
N8    O24   1.301283 A    
O8    Zn1   2.030118 S    
C17   C34   1.400330 A    
N21   O49   1.301703 A    
C13   C16   1.421459 A    
C14   C15   1.421460 A    
C29   C40   1.419473 A    
N12   O32   1.301281 A    
C30   C39   1.400473 A    
N3    C14   1.377541 A    
C16   N12   1.438244 S    
C9    C12   1.421457 A    
N22   O51   1.301292 A    
O13   C7    1.285145 A    
O3    C2    1.309070 A    
C10   C11   1.421456 A    
O14   C8    1.309065 A    
O3    Zn1   2.029830 S    
N20   O47   1.301677 A    
C5    C40   1.447547 S    
C6    C39   1.447646 S    
C20   N16   1.431531 S    
C7    C38   1.447646 S    
C20   C34   1.419471 A    
N6    O19   1.292561 A    
N5    O18   1.301390 A    
C31   C39   1.419861 A    
C19   N15   1.439654 S    
N19   O45   1.301293 A    
C32   C40   1.400325 A    
N13   O34   1.300947 A    
C18   N14   1.432043 S    
N1    C10   1.377510 A    
C23   C29   1.385885 A    
N23   O54   1.302559 A    
O11   Zn3   2.029830 S    
N17   O42   1.301047 A    
O7    Zn2   2.030116 S    
O12   Zn4   2.029830 S    
N19   O46   1.300946 A    
C28   N24   1.439686 S    
C18   C33   1.419834 A    
O1    Zn1   2.030107 S    
N18   O43   1.301449 A    
C24   C36   1.419830 A    
N9    O26   1.301401 A    
C3    C34   1.447549 S    
N1    Zn1   2.031716 S    
O8    C3    1.285315 A    
N8    O23   1.292689 A    
N3    Zn3   2.031716 S    
N4    Zn4   2.031716 S    
N10   O28   1.301408 A    
C10   N6    1.438259 S    
N7    O22   1.301281 A    
C19   C33   1.400476 A    
N12   O31   1.292692 A    
C21   N17   1.439650 S    
N28   O64   1.300940 A    
N1    C12   1.377075 A    
N4    C15   1.377058 A    
C30   N26   1.439676 S    
O12   C5    1.309069 A    
O7    C4    1.309280 A    
N2    C11   1.377082 A    
N2    C9    1.377517 A    
C27   N23   1.431516 S    
N11   O29   1.292695 A    
N3    C16   1.377068 A    
N14   O36   1.302785 A    
C21   C31   1.385928 A    
C29   N25   1.431537 S    
O4    C1    1.285148 A    
O15   C8    1.285315 A    
N11   O30   1.301280 A    
N2    Zn2   2.031716 S    
O16   C7    1.309288 A    
C23   N19   1.439567 S    
N25   O57   1.301445 A    
N24   O56   1.301077 A    
N27   O61   1.301706 A    
O5    Zn2   2.029829 S    
C20   C26   1.385888 A    
C13   N9    1.438262 S    
C12   N8    1.438243 S    
C25   C38   1.419864 A    
C17   N13   1.439570 S    
O1    C1    1.309280 A    
C19   C25   1.385926 A    
N10   O27   1.292565 A    
N27   O62   1.302804 A    
N26   O60   1.301065 A    
C32   N28   1.439563 S    
N23   O53   1.301422 A    
N15   O38   1.301049 A    
N24   O55   1.301528 A    
N28   O63   1.301287 A    
O5    C3    1.309065 A    
O6    C4    1.285149 A    
O11   C6    1.285140 A    
C31   N27   1.432076 S    
O2    Zn2   2.030108 S    
C4    C33   1.447642 S    
C15   N11   1.438241 S    
N7    O21   1.292685 A    
C11   N7    1.438239 S    
C28   C38   1.400483 A    
O9    C5    1.285308 A    
C22   N18   1.431540 S    
N4    C13   1.377524 A    
N14   O35   1.301681 A    
N22   O52   1.300945 A    
C26   N22   1.439567 S    
N5    O17   1.292560 A    
N16   O40   1.302574 A    
N20   O48   1.302780 A    
O9    Zn3   2.030107 S    
C1    C36   1.447645 S    
C23   C35   1.400330 A    
O10   Zn4   2.030108 S    
C2    C35   1.447547 S    
O6    Zn1   2.029827 S    
C14   N10   1.438272 S    
N6    O20   1.301390 A    
N16   O39   1.301437 A    
C22   C32   1.385889 A    
N25   O58   1.302583 A    
C26   C37   1.400329 A    
N13   O33   1.301295 A    
C17   C27   1.385886 A    
O4    Zn2   2.029830 S    
C18   C28   1.385906 A    
N21   O50   1.302801 A    
