data_mof_unit_257.cif
_audit_creation_date              2012-12-10T19:13:33-0500
_audit_creation_method            fapswitch 2.2
_symmetry_space_group_name_H-M    P1
_symmetry_Int_Tables_number       1
_space_group_crystal_system       triclinic
_cell_length_a                    9.758349
_cell_length_b                    10.775294
_cell_length_c                    16.689901
_cell_angle_alpha                 87.22944
_cell_angle_beta                  83.891637
_cell_angle_gamma                 92.787588
_cell_volume                      1740.36737717

loop_
_atom_site_label
_atom_site_type_symbol
_atom_type_description
_atom_site_fract_x
_atom_site_fract_y
_atom_site_fract_z
_atom_type_partial_charge
C1    C     C_R   0.502941 0.742513 0.499450 1.011520
C2    C     C_R   0.530925 0.449140 0.265768 -0.064166
C3    C     C_3   0.410189 0.929814 0.435439 0.279196
C4    C     C_R   0.479621 0.502651 0.653482 0.925979
C5    C     C_3   0.398679 0.071723 0.440038 -0.419700
C6    C     C_3   0.440795 0.916208 0.582654 -0.511515
C7    C     C_3   0.657285 0.940724 0.484633 0.231948
C8    C     C_3   0.506357 0.878948 0.499554 -0.240481
C9    C     C_3   0.497443 0.120690 0.498956 -0.170786
C10   C     C_3   0.455782 0.058666 0.586300 0.254444
C11   C     C_3   0.647226 0.081601 0.467055 0.177110
C12   C     C_R   0.336613 0.455043 0.784114 -0.126480
C13   C     C_3   0.916626 0.605990 0.544616 -0.182413
C14   C     C_3   0.079750 0.616881 0.534935 -0.197518
C15   C     C_3   0.905419 0.385858 0.541653 -0.423721
C16   C     C_R   0.498095 0.257415 0.499531 0.959279
C17   C     C_3   0.937033 0.509761 0.417243 0.316551
C18   C     C_3   0.066003 0.395413 0.552789 0.463793
C19   C     C_3   0.096224 0.492199 0.418974 -0.416185
C20   C     C_R   0.519794 0.491607 0.347330 0.953044
C21   C     C_R   0.464152 0.493633 0.741267 -0.029574
C22   C     C_R   0.580422 0.511483 0.782451 -0.202180
C23   C     C_R   0.430350 0.331654 0.165080 -0.094032
C24   C     C_R   0.572907 0.478047 0.864009 -0.133205
C25   C     C_R   0.448192 0.427398 0.905213 0.202630
C26   C     C_R   0.328735 0.421584 0.865917 -0.156984
C27   C     C_3   0.817595 0.132989 0.358947 0.138440
C28   C     C_3   0.841691 0.152030 0.267615 -0.701155
C29   C     C_3   0.026041 0.310574 0.688560 0.185688
C30   C     C_3   0.927522 0.361357 0.754508 -0.941664
C31   C     C_R   0.420490 0.377272 0.241469 -0.205667
C32   C     C_R   0.654457 0.467868 0.214910 -0.167400
C33   C     C_R   0.663863 0.423413 0.137813 -0.178189
C34   C     C_R   0.549640 0.359994 0.111662 0.191254
C35   C     C_2   0.438386 0.389788 0.990807 -0.213656
C36   C     C_2   0.546694 0.348599 0.025262 -0.212491
H1    H     H_    0.677601 0.548894 0.751218 0.155265
H2    H     H_    0.488378 0.871375 0.633348 0.249778
H3    H     H_    0.539910 0.082396 0.623115 0.174099
H4    H     H_    0.877529 0.595892 0.609811 0.174087
H5    H     H_    0.877407 0.691724 0.520214 0.279602
H6    H     H_    0.119332 0.700294 0.496557 0.213888
H7    H     H_    0.117060 0.632836 0.594446 0.185012
H8    H     H_    0.837674 0.366556 0.598648 0.210685
H9    H     H_    0.894357 0.434436 0.382492 0.084545
H10   H     H_    0.741587 0.519643 0.233913 0.234408
H11   H     H_    0.159455 0.560607 0.376971 0.248097
H12   H     H_    0.756605 0.445700 0.096914 0.146536
H13   H     H_    0.121544 0.399367 0.396733 0.105683
H14   H     H_    0.885444 0.304898 0.505282 0.123040
H15   H     H_    0.112599 0.308394 0.533003 0.147726
H16   H     H_    0.642453 0.331814 0.988927 0.154993
H17   H     H_    0.230542 0.387844 0.897942 0.135289
H18   H     H_    0.342353 0.280114 0.146168 0.143739
H19   H     H_    0.244588 0.445721 0.753901 0.196758
H20   H     H_    0.343190 0.408072 0.027298 0.152107
H21   H     H_    0.664484 0.492258 0.894474 0.135974
H22   H     H_    0.401523 0.725500 0.266107 0.374462
H23   H     H_    0.303645 0.888628 0.452871 0.142359
H24   H     H_    0.130147 0.012114 0.604644 0.392157
H25   H     H_    0.776855 0.789124 0.669304 0.376103
H26   H     H_    0.876517 0.052685 0.377707 0.189170
H27   H     H_    0.857707 0.218078 0.385214 0.103974
H28   H     H_    0.784420 0.232112 0.247232 0.247526
H29   H     H_    0.953507 0.171221 0.248414 0.192028
H30   H     H_    0.805767 0.067231 0.239003 0.295980
H31   H     H_    0.106821 0.266882 0.719819 0.249281
H32   H     H_    0.972292 0.234911 0.658793 0.185402
H33   H     H_    0.983265 0.430785 0.787983 0.256294
H34   H     H_    0.423229 0.121666 0.380010 0.244550
H35   H     H_    0.842232 0.406542 0.728201 0.255223
H36   H     H_    0.883257 0.284249 0.797493 0.249209
H37   H     H_    0.068193 0.628891 0.253043 0.361770
H38   H     H_    0.290650 0.092681 0.459937 0.209676
H39   H     H_    0.330271 0.882525 0.591350 0.197397
H40   H     H_    0.711666 0.900174 0.431382 0.207147
H41   H     H_    0.326280 0.356528 0.281366 0.147417
H42   H     H_    0.724018 0.131871 0.499982 0.151860
N1    N     N_3   0.861190 0.500250 0.501720 -0.126364
N2    N     N_3   0.138550 0.503270 0.501080 -0.103212
O1    O     O_R   0.383960 0.685090 0.500020 -0.639401
O2    O     O_2   0.603130 0.889875 0.307697 -0.253157
O3    O     O_3   0.383793 0.741210 0.324187 -0.555198
O4    O     O_2   0.280104 0.036696 0.722316 -0.300198
O5    O     O_2   0.336894 0.244930 0.661497 -0.319544
O6    O     O_3   0.166587 0.099316 0.593609 -0.601985
O7    O     O_2   0.913542 0.909116 0.527788 -0.339695
O8    O     O_2   0.767201 0.022935 0.621092 -0.362596
O9    O     O_3   0.719791 0.786211 0.623701 -0.602459
O10   O     O_3   0.674531 0.112504 0.382747 -0.582585
O11   O     O_3   0.086951 0.409949 0.635289 -0.607331
O12   O     O_R   0.616040 0.685320 0.499960 -0.539261
O13   O     O_2   0.777029 0.698339 0.363502 -0.226194
O14   O     O_2   0.014595 0.758076 0.378671 -0.306083
O15   O     O_3   0.966001 0.625896 0.259433 -0.573839
O16   O     O_R   0.370240 0.499890 0.615830 -0.569492
O17   O     O_R   0.602330 0.500120 0.615770 -0.628027
O18   O     O_R   0.383960 0.314680 0.500040 -0.585870
O19   O     O_R   0.616040 0.314910 0.499980 -0.658855
O20   O     O_R   0.397670 0.499880 0.384230 -0.623102
O21   O     O_R   0.629760 0.500110 0.384170 -0.583417
O22   O     O_2   0.384843 0.971923 0.276028 -0.286954
S1    S     S_3+6 0.450540 0.885849 0.332507 0.048260
S2    S     S_3+6 0.306892 0.112154 0.643526 -0.029452
S3    S     S_3+6 0.767863 0.916553 0.566021 -0.063917
S4    S     S_3+6 0.920237 0.653738 0.356688 0.019392
Zn1   Zn    Zn3+2 0.345040 0.499850 0.500040 1.007052
Zn2   Zn    Zn3+2 0.654960 0.500150 0.499960 1.011474

loop_
_geom_bond_atom_site_label_1
_geom_bond_atom_site_label_2
_ccdc_geom_bond_type
C15   C18   S    
H22   O3    S    
O1    Zn1   S    
O8    S3    D    
C1    C8    S    
C35   C36   D    
O6    S2    S    
C13   H5    S    
C30   H35   S    
C6    H39   S    
C7    C11   S    
O19   Zn2   S    
N2    Zn1   S    
C29   C30   S    
O3    S1    S    
C18   O11   S    
O15   S4    S    
C9    C16   S    
C17   H9    S    
C15   H8    S    
C19   H11   S    
C1    O1    A    
C17   N1    S    
C13   N1    S    
C27   O10   S    
C2    C32   A    
C15   H14   S    
C5    H38   S    
C13   H4    S    
C13   C14   S    
C29   H31   S    
O17   Zn2   S    
O12   Zn2   S    
C15   N1    S    
C24   H21   S    
O7    S3    D    
O2    S1    D    
C7    S3    S    
C14   N2    S    
C9    C10   S    
C36   H16   S    
C14   H6    S    
O21   Zn2   S    
C4    O16   A    
C21   C22   A    
C19   N2    S    
H25   O9    S    
C18   H15   S    
C31   H41   S    
C2    C20   S    
C7    C8    S    
C24   C25   A    
C3    C8    S    
H24   O6    S    
C6    C8    S    
C20   O21   A    
C25   C26   A    
C22   H1    S    
C12   C21   A    
O18   Zn1   S    
C12   C26   A    
C10   H3    S    
C23   C31   A    
C28   H30   S    
C5    C9    S    
C5    H34   S    
C11   H42   S    
O13   S4    D    
C29   H32   S    
C19   H13   S    
C20   O20   A    
C23   C34   A    
C6    H2    S    
C33   C34   A    
C9    C11   S    
O5    S2    D    
C27   H27   S    
C25   C35   S    
C28   H28   S    
O16   Zn1   S    
C1    O12   A    
O4    S2    D    
C22   C24   A    
H37   O15   S    
C26   H17   S    
C29   O11   S    
C30   H33   S    
C23   H18   S    
C3    S1    S    
O14   S4    D    
O20   Zn1   S    
C35   H20   S    
C32   H10   S    
C3    C5    S    
C6    C10   S    
C30   H36   S    
C16   O19   A    
C7    H40   S    
C27   H26   S    
C32   C33   A    
C10   S2    S    
C28   H29   S    
C17   S4    S    
C4    C21   S    
C11   O10   S    
C16   O18   A    
C17   C19   S    
N1    Zn2   S    
C34   C36   S    
O22   S1    D    
C12   H19   S    
C18   N2    S    
O9    S3    S    
C27   C28   S    
C33   H12   S    
C2    C31   A    
C4    O17   A    
C14   H7    S    
C3    H23   S    
