data_mof_unit_4286.cif
_audit_creation_date              2013-03-05T16:04:00-0500
_audit_creation_method            fapswitch 2.2
_symmetry_space_group_name_H-M    P1
_symmetry_Int_Tables_number       1
_space_group_crystal_system       triclinic
_cell_length_a                    13.028532
_cell_length_b                    10.829403
_cell_length_c                    9.541856
_cell_angle_alpha                 89.930362
_cell_angle_beta                  96.318698
_cell_angle_gamma                 91.250955
_cell_volume                      1337.77378612

loop_
_atom_site_label
_atom_site_type_symbol
_atom_site_description
_atom_site_fract_x
_atom_site_fract_y
_atom_site_fract_z
_atom_type_partial_charge
O1    O     O_R   0.499990 0.319660 0.618740 -0.520370
O2    O     O_R   0.500010 0.680340 0.381260 -0.517074
O3    O     O_R   0.499990 0.319630 0.381170 -0.583899
O4    O     O_R   0.500010 0.680370 0.618830 -0.582599
C1    C     C_R   0.500303 0.262398 0.499923 0.904393
C2    C     C_R   0.499992 0.737555 0.500104 0.901695
O5    O     O_R   0.349000 0.499990 0.599490 -0.560060
O6    O     O_R   0.651000 0.500010 0.400510 -0.586815
O7    O     O_R   0.348990 0.499960 0.361920 -0.545854
O8    O     O_R   0.651010 0.500040 0.638080 -0.541916
C3    C     C_R   0.300884 0.499326 0.473188 0.867946
C4    C     C_R   0.699295 0.500234 0.526584 0.865526
Cu1   Cu    Cu3+1 0.500000 0.500020 0.640660 1.069550
Cu2   Cu    Cu3+1 0.500000 0.499980 0.359340 1.056563
C5    C     C_R   0.812219 0.504821 0.542679 -0.083872
C6    C     C_R   0.188248 0.494933 0.455928 -0.076169
C7    C     C_R   0.028723 0.399479 0.347330 0.150214
C8    C     C_R   0.973457 0.591750 0.656587 0.131875
C9    C     C_R   0.136381 0.414264 0.355732 0.045894
C10   C     C_R   0.865650 0.578676 0.648686 0.061043
C11   C     C_R   0.133056 0.566437 0.543932 0.142518
C12   C     C_R   0.866252 0.436707 0.450013 0.124203
C13   C     C_R   0.027093 0.539000 0.550578 0.014540
C14   C     C_R   0.973634 0.457139 0.448886 0.053791
C15   C     C_R   0.440985 0.063121 0.391348 0.027766
C16   C     C_R   0.560298 0.936631 0.608059 0.030297
C17   C     C_R   0.439367 0.934056 0.392131 0.284063
C18   C     C_R   0.561434 0.065748 0.607809 0.285457
C19   C     C_R   0.499257 0.871442 0.500517 -0.187058
C20   C     C_R   0.501465 0.128424 0.499408 -0.188240
C21   C     C_R   0.433372 0.425100 0.065452 -0.116894
C22   C     C_R   0.566633 0.574894 0.934544 -0.115373
H1    H     H_    0.380265 0.365076 0.114417 0.186395
H2    H     H_    0.619647 0.635032 0.885559 0.187126
C23   C     C_R   0.432989 0.424592 0.916957 0.466211
C24   C     C_R   0.566906 0.575557 0.083021 0.452189
N1    N     N_R   0.500030 0.500030 0.852080 -0.245056
N2    N     N_R   0.499970 0.499970 0.147920 -0.247248
N3    N     N_3   0.813118 0.341958 0.362601 -0.517188
H3    H     H_    0.768124 0.286382 0.422760 0.239149
H4    H     H_    0.766557 0.382264 0.279643 0.278033
N4    N     N_3   0.181602 0.672103 0.618996 -0.484193
H5    H     H_    0.255035 0.692626 0.590429 0.228570
H6    H     H_    0.139015 0.749446 0.585062 0.235727
N5    N     N_3   0.809485 0.642410 0.746860 -0.562028
H7    H     H_    0.825244 0.737073 0.740109 0.224022
H8    H     H_    0.833842 0.612331 0.848982 0.244774
N6    N     N_3   0.194141 0.345949 0.263298 -0.562434
H9    H     H_    0.179125 0.251820 0.276482 0.224139
H10   H     H_    0.170283 0.370362 0.158988 0.245277
N7    N     N_3   0.975873 0.326728 0.234698 -0.526836
H11   H     H_    0.002460 0.236354 0.241619 0.238998
H12   H     H_    0.990785 0.364951 0.138152 0.232581
N8    N     N_3   0.028776 0.654471 0.775371 -0.521054
H13   H     H_    0.013885 0.608851 0.867845 0.239605
H14   H     H_    0.003509 0.745230 0.778798 0.228075
N9    N     N_3   0.376727 0.128715 0.285630 -0.543111
H15   H     H_    0.402566 0.112489 0.187578 0.285883
H16   H     H_    0.301004 0.094326 0.283529 0.244058
N10   N     N_3   0.625629 0.870808 0.712435 -0.544677
H17   H     H_    0.601442 0.887306 0.811418 0.286567
H18   H     H_    0.701487 0.904238 0.712217 0.244545
N11   N     N_R   0.372231 0.867189 0.287608 0.134654
O9    O     O_R   0.299917 0.793796 0.325634 -0.398737
O10   O     O_R   0.382731 0.880004 0.154329 -0.306101
N12   N     N_R   0.628004 0.132580 0.712975 0.134291
O11   O     O_R   0.699931 0.206964 0.675775 -0.392579
O12   O     O_R   0.617029 0.119205 0.846045 -0.310970
N13   N     N_R   0.361360 0.343912 0.836248 0.131842
O13   O     O_R   0.384877 0.228680 0.823492 -0.328192
O14   O     O_R   0.264587 0.373499 0.817552 -0.358000
N14   N     N_R   0.637883 0.657110 0.163584 0.132979
O15   O     O_R   0.613369 0.772051 0.175900 -0.321051
O16   O     O_R   0.734962 0.628901 0.181973 -0.387380

loop_
_geom_bond_atom_site_label_1
_geom_bond_atom_site_label_2
_geom_bond_distance
_ccdc_geom_bond_type
N5    H7    1.044411 S    
N12   O12   1.300869 A    
O7    Cu2   1.970295 S    
N11   O10   1.300880 A    
N8    H14   1.045006 S    
C6    C11   1.407337 A    
C17   C19   1.407820 A    
N14   O16   1.300671 A    
C3    C6    1.458303 S    
N8    H13   1.045340 S    
C16   C18   1.398018 A    
C10   N5    1.436619 S    
C21   N2    1.360143 A    
O6    C4    1.294759 A    
C13   C14   1.427906 A    
C7    N7    1.437117 S    
C18   C20   1.408752 A    
N12   O11   1.300999 A    
N3    H4    1.044084 S    
C22   N1    1.360123 A    
O5    C3    1.295745 A    
N6    H10   1.044993 S    
O7    C3    1.290870 A    
N9    H15   1.044921 S    
O2    C2    1.292906 A    
O3    Cu2   1.963906 S    
N4    H6    1.046097 S    
Cu1   N1    2.017296 S    
N10   H17   1.044825 S    
C6    C9    1.402827 A    
O1    C1    1.293348 A    
C12   N3    1.439345 S    
O8    C4    1.294162 A    
C21   C23   1.416401 A    
C24   N2    1.378594 A    
N6    H9    1.043828 S    
C23   N1    1.378463 A    
C4    C5    1.462079 S    
C8    C10   1.402340 A    
N13   O13   1.300467 A    
N5    H8    1.044989 S    
C11   C13   1.414050 A    
C5    C10   1.403591 A    
O2    Cu2   1.964607 S    
C12   C14   1.412846 A    
N9    H16   1.044996 S    
C7    C14   1.420635 A    
O1    Cu1   1.964605 S    
N4    H5    1.042596 S    
C8    N8    1.437403 S    
N11   O9    1.301096 A    
Cu2   N2    2.017296 S    
C8    C13   1.418539 A    
C15   N9    1.435746 S    
C22   C24   1.416387 A    
O5    Cu1   1.963285 S    
C2    C19   1.450181 S    
N7    H12   1.045326 S    
C23   N13   1.426600 S    
C16   C19   1.407630 A    
N10   H18   1.045312 S    
C1    C20   1.451283 S    
N3    H3    1.045557 S    
N13   O14   1.300808 A    
C15   C17   1.397424 A    
C18   N12   1.437282 S    
C15   C20   1.408115 A    
C21   H1    1.081827 S    
O6    Cu2   1.963284 S    
C11   N4    1.446766 S    
C17   N11   1.437431 S    
C7    C9    1.401743 A    
Cu1   Cu2   2.684315 S    
O4    C2    1.290403 A    
C16   N10   1.436195 S    
C5    C12   1.408111 A    
C24   N14   1.426728 S    
N7    H11   1.044890 S    
O4    Cu1   1.963907 S    
C9    N6    1.436497 S    
N14   O15   1.300449 A    
O3    C1    1.290547 A    
O8    Cu1   1.970295 S    
C22   H2    1.081830 S    
