data_mof_unit_3578.cif
_audit_creation_date              2012-12-10T19:28:33-0500
_audit_creation_method            fapswitch 2.2
_symmetry_space_group_name_H-M    P1
_symmetry_Int_Tables_number       1
_space_group_crystal_system       triclinic
_cell_length_a                    27.957001
_cell_length_b                    10.500516
_cell_length_c                    9.734836
_cell_angle_alpha                 89.26937
_cell_angle_beta                  90.084583
_cell_angle_gamma                 90.299359
_cell_volume                      2857.51284713

loop_
_atom_site_label
_atom_site_type_symbol
_atom_type_description
_atom_site_fract_x
_atom_site_fract_y
_atom_site_fract_z
_atom_type_partial_charge
C1    C     C_R   0.499925 0.257775 0.501118 0.910683
C2    C     C_R   0.500074 0.742225 0.498882 0.910654
C3    C     C_R   0.099955 0.493286 0.467124 -0.093753
C4    C     C_R   0.900044 0.507775 0.532735 -0.093748
C5    C     C_R   0.124396 0.375351 0.466877 -0.099277
C6    C     C_R   0.875594 0.625695 0.532934 -0.099292
C7    C     C_R   0.097457 0.260637 0.452965 0.176710
C8    C     C_R   0.902526 0.740430 0.546766 0.176671
C9    C     C_R   0.125799 0.608973 0.458912 -0.008419
C10   C     C_R   0.874209 0.392075 0.541024 -0.008413
C11   C     C_R   0.353902 0.498701 0.499504 -0.112924
C12   C     C_R   0.646098 0.501554 0.500487 -0.112944
C13   C     C_R   0.973872 0.385580 0.510040 0.084106
C14   C     C_R   0.026129 0.615508 0.489804 0.084110
C15   C     C_R   0.976669 0.619409 0.521029 -0.020481
C16   C     C_R   0.023326 0.381683 0.478773 -0.020484
C17   C     C_R   0.950311 0.504564 0.520454 0.041832
C18   C     C_R   0.049687 0.496518 0.479377 0.041839
C19   C     C_R   0.947762 0.274031 0.542109 -0.218384
C20   C     C_R   0.052252 0.727051 0.457790 -0.218377
C21   C     C_R   0.898466 0.276646 0.553365 -0.137389
C22   C     C_R   0.101550 0.724417 0.446594 -0.137399
C23   C     C_R   0.406241 0.499904 0.499867 0.891478
C24   C     C_R   0.593759 0.500127 0.500132 0.891480
C25   C     C_R   0.047164 0.268291 0.439601 0.178366
C26   C     C_R   0.952820 0.732806 0.560146 0.178403
C27   C     C_3   0.499270 0.036193 0.631147 0.220479
C28   C     C_3   0.500729 0.963806 0.368853 0.220480
C29   C     C_3   0.539242 0.955675 0.566723 -0.263398
C30   C     C_3   0.460757 0.044324 0.433277 -0.263396
C31   C     C_3   0.500013 0.876748 0.496328 -0.086871
C32   C     C_3   0.499986 0.123252 0.503672 -0.086886
C33   C     C_3   0.460537 0.955819 0.561277 0.165705
C34   C     C_3   0.539462 0.044180 0.438723 0.165681
C35   C     C_3   0.502024 0.385131 0.050120 -0.079252
C36   C     C_3   0.497976 0.614869 0.949880 -0.079258
C37   C     C_3   0.538350 0.447744 0.952110 -0.071149
C38   C     C_3   0.461649 0.552256 0.047890 -0.071176
C39   C     C_3   0.463632 0.437432 0.952080 -0.067798
C40   C     C_3   0.536368 0.562568 0.047920 -0.067769
C41   C     C_R   0.174969 0.379344 0.474937 0.608382
C42   C     C_R   0.825018 0.621667 0.524911 0.608317
C43   C     C_R   0.175476 0.606480 0.463081 0.585547
C44   C     C_R   0.824533 0.394535 0.536897 0.585606
C45   C     C_R   0.280071 0.501935 0.635467 -0.050467
C46   C     C_R   0.719924 0.499099 0.364503 -0.050498
C47   C     C_R   0.329488 0.503337 0.626281 -0.206226
C48   C     C_R   0.670509 0.497344 0.373706 -0.206223
C49   C     C_R   0.329665 0.492268 0.372513 -0.246763
C50   C     C_R   0.670335 0.507913 0.627466 -0.246762
C51   C     C_R   0.280212 0.490024 0.364404 0.367082
C52   C     C_R   0.719787 0.510479 0.635556 0.367083
C53   C     C_R   0.252561 0.494810 0.494879 0.005060
C54   C     C_R   0.747436 0.506102 0.505074 0.005069
H1    H     H_    0.349558 0.488661 0.277261 0.183966
H2    H     H_    0.650443 0.511210 0.722720 0.183971
H3    H     H_    0.570556 0.403638 0.906546 0.129972
H4    H     H_    0.429443 0.596362 0.093454 0.129984
H5    H     H_    0.503760 0.288365 0.097139 0.129679
H6    H     H_    0.496240 0.711635 0.902861 0.129679
H7    H     H_    0.433096 0.384726 0.906431 0.126890
H8    H     H_    0.566904 0.615274 0.093569 0.126849
H9    H     H_    0.650821 0.492449 0.278090 0.183998
H10   H     H_    0.349176 0.508314 0.721907 0.183998
H11   H     H_    0.739344 0.502601 0.429238 0.189803
H12   H     H_    0.260651 0.498415 0.570723 0.189801
H13   H     H_    0.879427 0.187688 0.570088 0.187507
H14   H     H_    0.120598 0.813370 0.429924 0.187509
H15   H     H_    0.965048 0.183590 0.559288 0.163167
H16   H     H_    0.034975 0.817504 0.440608 0.163164
H17   H     H_    0.571090 0.916132 0.620204 0.166630
H18   H     H_    0.428909 0.083867 0.379796 0.166626
N1    N     N_R   0.198454 0.493359 0.475220 -0.325999
N2    N     N_R   0.801543 0.507636 0.524715 -0.325990
N3    N     N_3   0.499960 0.500030 0.863290 -0.078017
N4    N     N_3   0.500040 0.499970 0.136710 -0.078014
O1    O     O_R   0.500000 0.313960 0.616610 -0.618739
O2    O     O_R   0.500000 0.686040 0.383390 -0.618749
O3    O     O_R   0.500020 0.313950 0.383350 -0.624539
O4    O     O_R   0.499980 0.686050 0.616650 -0.624549
O5    O     O_R   0.428750 0.500030 0.616610 -0.626464
O6    O     O_R   0.571250 0.499970 0.383390 -0.626471
O7    O     O_R   0.428770 0.500020 0.383360 -0.625533
O8    O     O_R   0.571230 0.499980 0.616640 -0.625532
O9    O     O_2   0.201071 0.272139 0.483236 -0.539717
O10   O     O_2   0.798905 0.728850 0.516570 -0.539741
O11   O     O_2   0.799092 0.285023 0.541949 -0.532334
O12   O     O_2   0.200928 0.715974 0.458101 -0.532357
Zn1   Zn    Zn3+2 0.499990 0.500010 0.655740 0.943069
Zn2   Zn    Zn3+2 0.500010 0.499990 0.344260 0.943069
C55   C     C_3   0.498430 0.075898 0.781119 -0.871770
H19   H     H_    0.498017 0.989761 0.848394 0.231455
H20   H     H_    0.530738 0.133548 0.804600 0.244980
H21   H     H_    0.465933 0.132922 0.801296 0.245827
C56   C     C_3   0.501569 0.924101 0.218881 -0.871770
H22   H     H_    0.501982 0.010238 0.151606 0.231455
H23   H     H_    0.534066 0.867077 0.198704 0.245824
H24   H     H_    0.469260 0.866451 0.195401 0.244982
C57   C     C_3   0.415695 0.902417 0.629849 -0.853795
H25   H     H_    0.392975 0.981971 0.664901 0.251587
H26   H     H_    0.395307 0.843989 0.555467 0.241105
H27   H     H_    0.425772 0.842143 0.719688 0.245027
C58   C     C_3   0.584304 0.097579 0.370150 -0.853751
H28   H     H_    0.607023 0.018024 0.335098 0.251579
H29   H     H_    0.574227 0.157854 0.280311 0.245037
H30   H     H_    0.604692 0.156006 0.444532 0.241101
Br1   Br    Br    0.249560 0.481437 0.188531 -0.467749
Br2   Br    Br    0.750439 0.518988 0.811411 -0.467729
C59   C     C_3   0.121310 0.131191 0.446783 -0.745802
H31   H     H_    0.145100 0.126817 0.355772 0.271947
H32   H     H_    0.141762 0.113049 0.542760 0.269955
H33   H     H_    0.095697 0.050792 0.440213 0.205627
C60   C     C_3   0.878665 0.869871 0.552856 -0.745742
H34   H     H_    0.854876 0.874291 0.643873 0.271924
H35   H     H_    0.904276 0.950292 0.559363 0.205635
H36   H     H_    0.858209 0.887940 0.456867 0.269949
C61   C     C_3   0.021564 0.168279 0.354694 -0.912416
H37   H     H_    0.015120 0.080169 0.416044 0.222119
H38   H     H_    0.987198 0.203757 0.312252 0.257442
H39   H     H_    0.043567 0.144042 0.263844 0.258323
C62   C     C_3   0.978406 0.832854 0.645040 -0.912460
H40   H     H_    0.012766 0.797398 0.687540 0.257441
H41   H     H_    0.984854 0.920946 0.583662 0.222115
H42   H     H_    0.956388 0.857121 0.735854 0.258320

loop_
_geom_bond_atom_site_label_1
_geom_bond_atom_site_label_2
_ccdc_geom_bond_type
C43   N1    A    
C27   C29   S    
C8    C26   A    
C14   C18   A    
C11   C47   A    
C56   H22   S    
C12   C48   A    
C56   H24   S    
C38   N4    S    
C27   C33   S    
O1    Zn1   S    
C23   O7    A    
C28   C56   S    
C11   C49   A    
C43   O12   S    
C35   C37   S    
C37   C40   S    
C59   H32   S    
C38   C39   S    
C9    C22   A    
C40   H8    S    
C3    C18   A    
C35   H5    S    
C11   C23   S    
O4    Zn1   S    
C24   O6    A    
O3    Zn2   S    
C58   H28   S    
C38   H4    S    
C49   C51   A    
C50   C52   A    
C31   C33   S    
C27   C55   S    
C42   O10   S    
C26   C62   S    
C39   N3    S    
C44   O11   S    
C60   H36   S    
O5    Zn1   S    
C37   N3    S    
C28   C34   S    
C54   N2    S    
C21   H13   S    
C20   H16   S    
C52   C54   A    
C45   C47   A    
C10   C21   A    
C39   H7    S    
C46   C48   A    
C35   N4    S    
C42   N2    A    
C9    C43   A    
C13   C19   A    
C10   C44   A    
C14   C20   A    
C36   C40   S    
C2    O4    A    
C46   H11   S    
C4    C6    A    
C61   H39   S    
C55   H19   S    
C5    C7    A    
C15   C26   A    
C6    C8    A    
C36   H6    S    
C49   H1    S    
C41   N1    A    
C29   C34   S    
C1    C32   S    
C50   H2    S    
C48   H9    S    
C60   H35   S    
C2    C31   S    
C51   C53   A    
C32   C34   S    
C35   C39   S    
C2    O2    A    
C36   N3    S    
C55   H20   S    
C30   H18   S    
C57   H25   S    
C46   C54   A    
C58   H29   S    
O6    Zn2   S    
C44   N2    A    
C3    C9    A    
C22   H14   S    
C62   H40   S    
C8    C60   S    
C4    C17   A    
C51   Br1   S    
C57   H26   S    
C20   C22   A    
C1    O3    A    
C59   H33   S    
O8    Zn1   S    
C4    C10   A    
C47   H10   S    
C60   H34   S    
C16   C25   A    
C15   C17   A    
O7    Zn2   S    
C5    C41   A    
C23   O5    A    
C30   C33   S    
C19   C21   A    
C27   C32   S    
C28   C31   S    
C53   N1    S    
C3    C5    A    
C25   C61   S    
C12   C50   A    
C56   H23   S    
C41   O9    S    
C12   C24   S    
C34   C58   S    
C7    C25   A    
C13   C17   A    
C61   H38   S    
C24   O8    A    
C28   C30   S    
C29   C31   S    
C61   H37   S    
C55   H21   S    
C30   C32   S    
O2    Zn2   S    
C36   C38   S    
C58   H30   S    
C62   H41   S    
C19   H15   S    
N3    Zn1   S    
C45   C53   A    
C40   N4    S    
C57   H27   S    
C52   Br2   S    
C16   C18   A    
C6    C42   A    
C13   C16   A    
C45   H12   S    
C62   H42   S    
C14   C15   A    
C7    C59   S    
C1    O1    A    
C33   C57   S    
C59   H31   S    
C37   H3    S    
N4    Zn2   S    
C29   H17   S    
