data_mof_unit_894.cif
_audit_creation_date              2012-12-10T17:15:51-0500
_audit_creation_method            fapswitch 2.2
_symmetry_space_group_name_H-M    P1
_symmetry_Int_Tables_number       1
_space_group_crystal_system       triclinic
_cell_length_a                    10.148424
_cell_length_b                    10.635775
_cell_length_c                    10.569852
_cell_angle_alpha                 89.771289
_cell_angle_beta                  94.837469
_cell_angle_gamma                 81.634411
_cell_volume                      1124.55865658

loop_
_atom_site_label
_atom_site_type_symbol
_atom_type_description
_atom_site_fract_x
_atom_site_fract_y
_atom_site_fract_z
_atom_type_partial_charge
C1    C     C_R   0.444794 0.500696 0.266092 0.948088
C2    C     C_R   0.585855 0.053202 0.602487 0.097986
C3    C     C_R   0.501184 0.128193 0.509920 -0.183048
C4    C     C_R   0.417773 0.077064 0.419416 -0.302703
C5    C     C_R   0.421151 0.947898 0.414326 0.484597
C6    C     C_R   0.503913 0.871251 0.506055 -0.231306
C7    C     C_2   0.415747 0.478751 0.131867 -0.479673
C8    C     C_2   0.505699 0.404093 0.068374 0.523758
C9    C     C_2   0.584876 0.453967 0.867791 -0.372788
C10   C     C_2   0.489106 0.414766 0.930966 -0.300624
C11   C     C_2   0.072774 0.489351 0.489461 -0.119966
C12   C     C_R   0.500121 0.260523 0.502717 0.887674
C13   C     C_2   0.927176 0.510756 0.510491 -0.131008
C14   C     C_R   0.555321 0.485719 0.734074 0.902564
C15   C     C_R   0.501103 0.739251 0.501756 0.898523
C16   C     C_R   0.667015 0.106265 0.697394 -0.163539
C17   C     C_R   0.748134 0.028672 0.788098 -0.146622
C18   C     C_R   0.746893 0.898151 0.788611 -0.148691
C19   C     C_R   0.666121 0.844540 0.696922 -0.156984
C20   C     C_R   0.586290 0.921507 0.601390 0.043559
H1    H     H_    0.352538 0.137580 0.350248 0.161243
H2    H     H_    0.323176 0.526989 0.083591 0.116220
H3    H     H_    0.891036 0.580262 0.579169 0.162661
H4    H     H_    0.108843 0.419955 0.420671 0.163247
H5    H     H_    0.880302 0.383279 0.384447 0.171627
H6    H     H_    0.119723 0.616575 0.615696 0.166171
H7    H     H_    0.668091 0.207534 0.703186 0.144885
H8    H     H_    0.811612 0.070112 0.858501 0.131674
H9    H     H_    0.808289 0.838315 0.860522 0.136679
H10   H     H_    0.666602 0.742976 0.702407 0.138803
H11   H     H_    0.390727 0.407548 0.884555 0.170525
H12   H     H_    0.682692 0.462531 0.914493 0.170929
N1    N     N_2   0.157290 0.551390 0.551110 -0.189456
N2    N     N_2   0.842740 0.448550 0.448960 -0.184665
O1    O     O_R   0.568950 0.489660 0.307530 -0.538821
O2    O     O_R   0.348880 0.522640 0.340350 -0.613432
O3    O     O_R   0.610060 0.300270 0.483590 -0.612268
O4    O     O_R   0.389990 0.333260 0.516410 -0.613620
O5    O     O_R   0.651120 0.477360 0.659650 -0.626708
O6    O     O_R   0.431050 0.510340 0.692470 -0.601342
O7    O     O_R   0.610010 0.666740 0.483590 -0.632997
O8    O     O_R   0.389940 0.699730 0.516410 -0.570893
Zn1   Zn    Zn3+2 0.646940 0.477980 0.478090 0.951912
Zn2   Zn    Zn3+2 0.353060 0.522020 0.521910 0.953347
O9    O     O_3   0.334624 0.898174 0.326087 -0.633037
C21   C     C_3   0.403412 0.849812 0.221394 0.099600
H13   H     H_    0.353113 0.770518 0.182502 0.167138
H14   H     H_    0.509985 0.809028 0.247481 0.116512
C22   C     C_3   0.394961 0.952160 0.117431 -0.387527
H15   H     H_    0.289813 0.999135 0.098830 0.237604
H16   H     H_    0.457395 0.025163 0.150102 0.208775
C23   C     C_3   0.443371 0.895408 0.994038 -0.938097
H17   H     H_    0.545548 0.841337 0.011026 0.261777
H18   H     H_    0.445399 0.972776 0.923643 0.270983
H19   H     H_    0.374836 0.830398 0.953921 0.267621
O10   O     O_3   0.623435 0.342082 0.131641 -0.612107
C24   C     C_3   0.661967 0.220447 0.082102 0.068528
H20   H     H_    0.730855 0.228864 0.007245 0.154201
H21   H     H_    0.575191 0.175844 0.041221 0.130404
C25   C     C_3   0.735026 0.134620 0.190241 -0.304823
H22   H     H_    0.816563 0.181258 0.237980 0.230547
H23   H     H_    0.663564 0.120627 0.261398 0.222006
C26   C     C_3   0.795036 0.005362 0.142865 -0.976548
H24   H     H_    0.717159 0.959331 0.088862 0.270726
H25   H     H_    0.838110 0.943080 0.225136 0.278916
H26   H     H_    0.876045 0.016296 0.081162 0.261288

loop_
_geom_bond_atom_site_label_1
_geom_bond_atom_site_label_2
_ccdc_geom_bond_type
O3    Zn1   S    
O5    Zn1   S    
C9    C14   S    
C26   H25   S    
O4    Zn2   S    
C7    H2    S    
C2    C16   A    
C9    C10   D    
H6    N1    S    
C19   C20   A    
C23   H19   S    
O6    Zn2   S    
H5    N2    S    
C22   C23   S    
C8    O10   S    
C16   H7    S    
C17   C18   A    
C14   O5    A    
C26   H26   S    
C7    C8    D    
C18   H9    S    
C5    O9    S    
O9    C21   S    
O10   C24   S    
C4    H1    S    
O7    Zn1   S    
C21   C22   S    
C1    O1    A    
C24   H20   S    
C19   H10   S    
O8    Zn2   S    
C6    C20   A    
C25   C26   S    
C4    C5    A    
C25   H23   S    
C23   H18   S    
C2    C3    A    
C12   O4    A    
C5    C6    A    
C21   H14   S    
C24   H21   S    
C11   C13   S    
O2    Zn2   S    
C15   O7    A    
C2    C20   A    
C3    C4    A    
C15   O8    A    
C16   C17   A    
C11   H4    S    
C11   N1    D    
O1    Zn1   S    
C23   H17   S    
C13   H3    S    
C8    C10   S    
C22   H15   S    
C12   O3    A    
C21   H13   S    
C18   C19   A    
C24   C25   S    
C13   N2    D    
C3    C12   S    
C9    H12   S    
C22   H16   S    
C6    C15   S    
C1    C7    S    
C17   H8    S    
C14   O6    A    
C10   H11   S    
N2    Zn1   S    
C26   H24   S    
C1    O2    A    
C25   H22   S    
N1    Zn2   S    
