data_mof_unit_863.cif
_audit_creation_date              2012-12-10T20:31:08-0500
_audit_creation_method            fapswitch 2.2
_symmetry_space_group_name_H-M    P1
_symmetry_Int_Tables_number       1
_space_group_crystal_system       triclinic
_cell_length_a                    14.969295
_cell_length_b                    10.681215
_cell_length_c                    9.854777
_cell_angle_alpha                 90.131103
_cell_angle_beta                  89.767351
_cell_angle_gamma                 89.989528
_cell_volume                      1575.66569639

loop_
_atom_site_label
_atom_site_type_symbol
_atom_type_description
_atom_site_fract_x
_atom_site_fract_y
_atom_site_fract_z
_atom_type_partial_charge
C1    C     C_R   0.497868 0.259962 0.500102 0.889477
C2    C     C_R   0.185863 0.433464 0.397059 -0.209315
C3    C     C_R   0.230974 0.489850 0.504066 -0.048438
C4    C     C_R   0.326657 0.498699 0.500550 0.888165
C5    C     C_R   0.185797 0.532788 0.618679 -0.194312
C6    C     C_R   0.497989 0.063986 0.623269 0.141675
C7    C     C_R   0.485935 0.128372 0.502087 -0.102102
C8    C     C_R   0.458342 0.064346 0.385271 -0.216801
C9    C     C_R   0.458328 0.934841 0.385223 -0.206670
C10   C     C_R   0.485703 0.871433 0.502258 -0.104585
C11   C     C_R   0.497822 0.936332 0.623319 0.144220
C12   C     C_R   0.907760 0.539811 0.618965 0.018105
C13   C     C_3   0.572806 0.929033 0.722716 -0.472663
C14   C     C_3   0.573144 0.070920 0.722587 -0.472493
C15   C     C_R   0.427112 0.458215 0.071504 0.154468
C16   C     C_R   0.497830 0.739977 0.500232 0.868178
C17   C     C_R   0.568367 0.551960 0.071724 -0.111985
C18   C     C_R   0.568388 0.551899 0.927721 -0.120286
C19   C     C_R   0.426806 0.459314 0.928715 0.120025
C20   C     C_3   0.386811 0.331254 0.922640 0.259437
C21   C     C_3   0.387789 0.329913 0.077149 -0.573612
C22   C     C_R   0.673350 0.503862 0.499850 0.872692
C23   C     C_R   0.953007 0.363993 0.295600 0.433867
C24   C     C_R   0.816111 0.559034 0.609926 0.419100
C25   C     C_R   0.769531 0.505422 0.500506 -0.173638
C26   C     C_R   0.814365 0.443101 0.396079 -0.263899
C27   C     C_R   0.906535 0.427098 0.400842 -0.080452
C28   C     C_R   0.953548 0.477421 0.512596 -0.066767
C29   C     C_R   0.046088 0.361569 0.295667 0.415785
C30   C     C_R   0.093369 0.420266 0.402349 -0.070403
C31   C     C_R   0.046736 0.471765 0.514853 -0.001613
C32   C     C_R   0.093521 0.523904 0.626512 0.032535
C33   C     C_R   0.046411 0.572973 0.739316 0.406650
C34   C     C_R   0.954488 0.584651 0.731849 -0.128161
H1    H     H_    0.552083 0.112009 0.821330 0.199969
H2    H     H_    0.624268 0.591968 0.873305 0.191013
H3    H     H_    0.265163 0.399612 0.908938 0.339716
H4    H     H_    0.320426 0.329183 0.124826 0.213447
H5    H     H_    0.776110 0.407219 0.311610 0.185570
H6    H     H_    0.856764 0.260858 0.227696 0.320420
H7    H     H_    0.141759 0.257122 0.225832 0.321724
H8    H     H_    0.223723 0.402176 0.309734 0.154142
H9    H     H_    0.223284 0.579023 0.697983 0.162689
H10   H     H_    0.139607 0.560337 0.874141 0.334037
H11   H     H_    0.919746 0.628105 0.816391 0.225755
H12   H     H_    0.431322 0.260516 0.874748 0.145765
H13   H     H_    0.441891 0.113249 0.292803 0.164947
H14   H     H_    0.435349 0.260269 0.118674 0.184175
H15   H     H_    0.725113 0.679236 0.662878 0.324873
H16   H     H_    0.442129 0.885303 0.292470 0.176800
H17   H     H_    0.551174 0.888282 0.821223 0.212599
H18   H     H_    0.634447 0.887306 0.678355 0.199857
H19   H     H_    0.634942 0.111885 0.678063 0.209424
H20   H     H_    0.624285 0.591978 0.125761 0.160711
N1    N     N_R   0.499390 0.499140 0.142800 -0.101137
N2    N     N_R   0.499390 0.499180 0.857150 -0.130014
O1    O     O_R   0.500010 0.316790 0.614690 -0.616006
O2    O     O_3   0.300239 0.330438 0.867237 -0.711463
O3    O     O_3   0.910068 0.303701 0.190381 -0.696637
O4    O     O_3   0.088110 0.299733 0.190003 -0.696279
O5    O     O_3   0.087339 0.614501 0.856253 -0.741935
O6    O     O_R   0.500000 0.316760 0.385350 -0.623193
O7    O     O_R   0.367850 0.499990 0.614680 -0.599049
O8    O     O_R   0.367840 0.499950 0.385340 -0.623279
O9    O     O_R   0.500000 0.683240 0.614650 -0.622225
O10   O     O_R   0.499990 0.683210 0.385310 -0.621004
O11   O     O_R   0.632160 0.500050 0.614660 -0.602791
O12   O     O_R   0.632150 0.500010 0.385320 -0.624661
O13   O     O_3   0.774381 0.632741 0.706844 -0.789360
Zn1   Zn    Zn3+2 0.500010 0.500020 0.653130 0.971434
Zn2   Zn    Zn3+2 0.499990 0.499980 0.346870 0.953787

loop_
_geom_bond_atom_site_label_1
_geom_bond_atom_site_label_2
_ccdc_geom_bond_type
C19   N2    A    
C24   O13   S    
C15   C19   A    
C24   C25   A    
C29   O4    S    
C29   C30   A    
C23   C27   A    
O1    Zn1   S    
C6    C14   S    
C13   H18   S    
C9    C10   A    
C17   N1    A    
H3    O2    S    
C31   C32   A    
O7    Zn1   S    
C18   N2    A    
C2    C30   A    
O11   Zn1   S    
C20   O2    S    
C1    O6    A    
C5    C32   A    
C2    C3    A    
C33   C34   A    
C5    H9    S    
C8    H13   S    
C7    C8    A    
H6    O3    S    
C10   C16   S    
C13   C14   S    
C32   C33   A    
C23   O3    S    
C11   C13   S    
C4    O7    A    
C22   O12   A    
C26   C27   A    
C6    C7    A    
C26   H5    S    
C12   C28   A    
O12   Zn2   S    
C23   C29   A    
C2    H8    S    
O6    Zn2   S    
C17   C18   A    
N2    Zn1   S    
C6    C11   A    
C30   C31   A    
H10   O5    S    
N1    Zn2   S    
C22   O11   A    
C16   O10   A    
C10   C11   A    
C9    H16   S    
C12   C34   A    
O9    Zn1   S    
C21   H14   S    
C15   C21   S    
C14   H19   S    
C20   C21   S    
C3    C4    S    
C4    O8    A    
C33   O5    S    
O8    Zn2   S    
C27   C28   A    
C34   H11   S    
C12   C24   A    
H15   O13   S    
C16   O9    A    
C19   C20   S    
C1    C7    S    
C25   C26   A    
C13   H17   S    
C18   H2    S    
C17   H20   S    
C14   H1    S    
C28   C31   A    
C20   H12   S    
C21   H4    S    
O10   Zn2   S    
H7    O4    S    
C15   N1    A    
C8    C9    A    
C3    C5    A    
C22   C25   S    
C1    O1    A    
