data_mof_unit_4777.cif
_audit_creation_date              2012-12-10T17:02:04-0500
_audit_creation_method            fapswitch 2.2
_symmetry_space_group_name_H-M    P1
_symmetry_Int_Tables_number       1
_space_group_crystal_system       triclinic
_cell_length_a                    10.776583
_cell_length_b                    10.990528
_cell_length_c                    9.935912
_cell_angle_alpha                 110.731629
_cell_angle_beta                  98.16563
_cell_angle_gamma                 91.924189
_cell_volume                      1084.97565629

loop_
_atom_site_label
_atom_site_type_symbol
_atom_type_description
_atom_site_fract_x
_atom_site_fract_y
_atom_site_fract_z
_atom_type_partial_charge
C1    C     C_R   0.494490 0.254520 0.441404 0.921492
C2    C     C_R   0.077108 0.630087 0.582282 -0.015492
C3    C     C_R   0.129510 0.512327 0.506238 -0.177424
C4    C     C_R   0.052867 0.396137 0.424152 0.275902
C5    C     C_R   0.922752 0.392193 0.425675 0.317833
C6    C     C_R   0.870399 0.507096 0.498067 -0.129429
C7    C     C_2   0.494717 0.114978 0.411233 -0.319437
C8    C     C_2   0.553680 0.069910 0.510020 0.463008
C9    C     C_2   0.532310 0.885370 0.590352 -0.340724
C10   C     C_2   0.533796 0.930088 0.481712 -0.260269
C11   C     C_2   0.516577 0.505004 0.077634 0.203435
C12   C     C_R   0.263437 0.506607 0.502718 0.980446
C13   C     C_2   0.501920 0.476572 0.916038 0.479812
C14   C     C_R   0.513826 0.745677 0.558628 0.897759
C15   C     C_R   0.736655 0.499604 0.498789 0.882784
C16   C     C_R   0.150291 0.751939 0.662896 0.430368
C17   C     C_R   0.090306 0.864641 0.729334 -0.191432
C18   C     C_R   0.960582 0.859698 0.717074 -0.163273
C19   C     C_R   0.888239 0.742432 0.640297 -0.112387
C20   C     C_R   0.944704 0.626429 0.573855 -0.043083
Cu1   Cu    Cu3+1 0.521920 0.521810 0.644910 1.018893
Cu2   Cu    Cu3+1 0.478080 0.478190 0.355090 1.062771
H1    H     H_    0.442015 0.048022 0.308393 0.112022
H2    H     H_    0.593141 0.645786 0.932033 0.191247
H3    H     H_    0.144595 0.957578 0.790232 0.155178
H4    H     H_    0.915662 0.947429 0.767347 0.159672
H5    H     H_    0.787324 0.744238 0.632704 0.129197
H6    H     H_    0.512446 0.863932 0.368673 0.190176
H7    H     H_    0.546930 0.951458 0.703503 0.170482
N1    N     N_2   0.445130 0.445430 0.137370 -0.089577
N2    N     N_2   0.554930 0.554500 0.862630 -0.321693
O1    O     O_R   0.511700 0.332330 0.577400 -0.507437
O2    O     O_R   0.474680 0.295500 0.332650 -0.557625
O3    O     O_R   0.338160 0.518420 0.622400 -0.592188
O4    O     O_R   0.301140 0.481590 0.377650 -0.536946
O5    O     O_R   0.525320 0.704500 0.667350 -0.573044
O6    O     O_R   0.488300 0.667670 0.422600 -0.576193
O7    O     O_R   0.698860 0.518410 0.622350 -0.579368
O8    O     O_R   0.661840 0.481580 0.377600 -0.546585
O9    O     O_3   0.108467 0.287862 0.344760 -0.729381
H8    H     H_    0.047222 0.234440 0.257657 0.346649
O10   O     O_3   0.441451 0.358432 0.823838 -0.654202
H9    H     H_    0.375689 0.377525 0.756000 0.354429
I1    I     I_    0.671398 0.646207 0.204554 -0.377437
I2    I     I_    0.278179 0.328528 0.027838 -0.204890
O11   O     O_3   0.279354 0.761040 0.676148 -0.748183
H10   H     H_    0.314571 0.851217 0.738836 0.321152
O12   O     O_3   0.844596 0.277395 0.361505 -0.725928
H11   H     H_    0.893970 0.202976 0.361342 0.339097
O13   O     O_3   0.630163 0.154111 0.634930 -0.655934
H12   H     H_    0.682593 0.101945 0.680082 0.325755

loop_
_geom_bond_atom_site_label_1
_geom_bond_atom_site_label_2
_ccdc_geom_bond_type
C9    C14   S    
C15   O7    A    
Cu1   O3    S    
C2    C16   A    
C11   C13   S    
C9    C10   D    
N1    I2    S    
C13   O10   S    
C19   C20   A    
C18   H4    S    
C9    H7    S    
C17   H3    S    
C2    C3    A    
H2    N2    S    
C1    O2    A    
C11   I1    S    
O13   H12   S    
Cu1   O5    S    
Cu1   Cu2   S    
C12   O4    A    
Cu2   O4    S    
Cu1   N2    S    
C15   O8    A    
C16   C17   A    
C7    H1    S    
Cu2   O8    S    
O9    H8    S    
Cu1   O1    S    
C17   C18   A    
C14   O5    A    
C5    C6    A    
C5    O12   S    
O10   H9    S    
C16   O11   S    
C3    C4    A    
C8    O13   S    
C7    C8    D    
C6    C20   A    
C8    C10   S    
C18   C19   A    
C10   H6    S    
Cu2   O2    S    
O11   H10   S    
O12   H11   S    
C3    C12   S    
Cu2   N1    S    
C12   O3    A    
C19   H5    S    
C6    C15   S    
C1    C7    S    
Cu2   O6    S    
C2    C20   A    
C13   N2    D    
C1    O1    A    
Cu1   O7    S    
C4    O9    S    
C11   N1    D    
C4    C5    A    
C14   O6    A    
