data_mof_unit_2418.cif
_audit_creation_date              2013-03-05T15:46:35-0500
_audit_creation_method            fapswitch 2.2
_symmetry_space_group_name_H-M    P1
_symmetry_Int_Tables_number       1
_space_group_crystal_system       triclinic
_cell_length_a                    17.448717
_cell_length_b                    24.653204
_cell_length_c                    14.96141
_cell_angle_alpha                 89.983762
_cell_angle_beta                  125.863676
_cell_angle_gamma                 90.016524
_cell_volume                      5215.73945155

loop_
_atom_site_label
_atom_site_type_symbol
_atom_site_description
_atom_site_fract_x
_atom_site_fract_y
_atom_site_fract_z
_atom_type_partial_charge
C1    C     C_R   0.344158 0.351219 0.907439 -0.149206
C2    C     C_R   0.684496 0.369644 0.095469 -0.167261
C3    C     C_R   0.849191 0.849576 0.907716 -0.163529
C4    C     C_R   0.189448 0.875772 0.094467 -0.176157
H1    H     H_    0.301006 0.337278 0.822879 0.139964
H2    H     H_    0.739621 0.361575 0.181388 0.139184
H3    H     H_    0.804627 0.836386 0.822689 0.134503
H4    H     H_    0.244873 0.867338 0.180089 0.142680
N1    N     N_R   0.394180 0.396910 0.943210 -0.074948
N2    N     N_R   0.605820 0.396910 0.056790 -0.072358
N3    N     N_R   0.894180 0.896910 0.943210 -0.073338
N4    N     N_R   0.105820 0.896910 0.056790 -0.070427
C5    C     C_R   0.433674 0.646759 0.093898 -0.109372
C6    C     C_R   0.590517 0.633117 0.908852 -0.138932
C7    C     C_R   0.941428 0.149807 0.092798 -0.129903
C8    C     C_R   0.095634 0.125602 0.907173 -0.134071
H5    H     H_    0.471946 0.658620 0.179518 0.124385
H6    H     H_    0.557448 0.649111 0.826979 0.127044
H7    H     H_    0.982192 0.162785 0.177950 0.123165
H8    H     H_    0.066006 0.134862 0.822115 0.137506
N5    N     N_R   0.450950 0.603070 0.056740 -0.076201
N6    N     N_R   0.549050 0.603070 0.943260 -0.079203
N7    N     N_R   0.950950 0.103070 0.056740 -0.070382
N8    N     N_R   0.049050 0.103070 0.943260 -0.084292
C9    C     C_R   0.550090 0.455014 0.304292 -0.062365
C10   C     C_R   0.506459 0.454957 0.736656 -0.137134
C11   C     C_R   0.981014 0.954665 0.249211 -0.090319
C12   C     C_R   0.948959 0.955265 0.694858 -0.046429
H9    H     H_    0.568613 0.413668 0.332601 0.160629
H10   H     H_    0.507641 0.413947 0.714445 0.172270
H11   H     H_    0.970272 0.912834 0.259611 0.152018
H12   H     H_    0.926862 0.914412 0.664683 0.149059
N9    N     N_R   0.525650 0.471570 0.206150 -0.046171
N10   N     N_R   0.474350 0.471570 0.793850 -0.047262
N11   N     N_R   0.025650 0.971570 0.206150 -0.039012
N12   N     N_R   0.974350 0.971570 0.793850 -0.051290
C13   C     C_R   0.232737 0.545207 0.754315 -0.010890
C14   C     C_R   0.750644 0.544940 0.306282 -0.071721
C15   C     C_R   0.733026 0.045260 0.755326 -0.005729
C16   C     C_R   0.250737 0.044957 0.306255 -0.064798
H13   H     H_    0.212386 0.586582 0.750746 0.160804
H14   H     H_    0.754084 0.585049 0.337322 0.196642
H15   H     H_    0.712985 0.086701 0.752437 0.160140
H16   H     H_    0.254588 0.085186 0.337102 0.199869
N13   N     N_R   0.319480 0.528420 0.793810 -0.054269
N14   N     N_R   0.680520 0.528420 0.206190 -0.051491
N15   N     N_R   0.819480 0.028420 0.793810 -0.055475
N16   N     N_R   0.180520 0.028420 0.206190 -0.055124
C17   C     C_R   0.549039 0.545569 0.303284 -0.087805
C18   C     C_R   0.504348 0.545480 0.734862 -0.033099
C19   C     C_R   0.981737 0.045674 0.249682 -0.063888
C20   C     C_R   0.951392 0.045496 0.696424 -0.064536
H17   H     H_    0.565718 0.587327 0.329680 0.092850
H18   H     H_    0.502011 0.586622 0.710057 0.086359
H19   H     H_    0.972446 0.087663 0.261018 0.106996
H20   H     H_    0.934256 0.087145 0.669331 0.102336
N17   N     N_R   0.525640 0.528390 0.206120 -0.046500
N18   N     N_R   0.474360 0.528390 0.793880 -0.045658
N19   N     N_R   0.025640 0.028390 0.206120 -0.055544
N20   N     N_R   0.974360 0.028390 0.793880 -0.047852
C21   C     C_R   0.230667 0.454508 0.746665 -0.088704
C22   C     C_R   0.755211 0.455044 0.305325 -0.091466
C23   C     C_R   0.730853 0.954496 0.747576 -0.103800
C24   C     C_R   0.255155 0.955076 0.305421 -0.075767
H21   H     H_    0.208475 0.412702 0.730482 0.154082
H22   H     H_    0.767629 0.413409 0.332873 0.165208
H23   H     H_    0.708863 0.912629 0.732118 0.155187
H24   H     H_    0.267583 0.913450 0.333044 0.169596
N21   N     N_R   0.319490 0.471590 0.793840 -0.064266
N22   N     N_R   0.680510 0.471590 0.206160 -0.061055
N23   N     N_R   0.819490 0.971590 0.793840 -0.068606
N24   N     N_R   0.180510 0.971590 0.206160 -0.060678
C25   C     C_R   0.345559 0.649225 0.909833 0.521813
C26   C     C_R   0.685781 0.628475 0.092616 0.506849
C27   C     C_R   0.850067 0.150545 0.909430 0.540968
C28   C     C_R   0.188631 0.124522 0.091512 0.494334
N25   N     N_R   0.394130 0.603080 0.943110 -0.080749
N26   N     N_R   0.605870 0.603080 0.056890 -0.087752
N27   N     N_R   0.894130 0.103080 0.943110 -0.076532
N28   N     N_R   0.105870 0.103080 0.056890 -0.087490
C29   C     C_R   0.434819 0.351941 0.091554 0.524731
C30   C     C_R   0.588217 0.363603 0.910900 0.503764
C31   C     C_R   0.943062 0.849249 0.091093 0.487874
C32   C     C_R   0.097209 0.873368 0.910177 0.540027
N29   N     N_R   0.450990 0.396900 0.056840 -0.075404
N30   N     N_R   0.549010 0.396900 0.943160 -0.073046
N31   N     N_R   0.950990 0.896900 0.056840 -0.073877
N32   N     N_R   0.049010 0.896900 0.943160 -0.080607
C33   C     C_R   0.367874 0.322939 0.999082 -0.099020
C34   C     C_R   0.676057 0.349819 0.004811 -0.091917
C35   C     C_R   0.879216 0.819293 0.999326 -0.083398
C36   C     C_R   0.186257 0.860337 0.004043 -0.103364
C37   C     C_R   0.367233 0.676051 0.002674 -0.061343
C38   C     C_R   0.678588 0.646548 0.000883 -0.020341
C39   C     C_R   0.877663 0.179664 0.001913 -0.077982
C40   C     C_R   0.184063 0.139398 0.999274 -0.008628
C41   C     C_R   0.567114 0.500459 0.367689 0.011896
C42   C     C_R   0.532252 0.500400 0.705865 0.024389
C43   C     C_R   0.951323 0.000292 0.275993 0.021837
C44   C     C_R   0.934388 0.000521 0.632007 0.001310
C45   C     C_R   0.174842 0.500226 0.722465 0.112205
C46   C     C_R   0.799897 0.500562 0.369886 0.063496
C47   C     C_R   0.675160 0.000270 0.723660 0.120713
C48   C     C_R   0.300083 0.000582 0.369831 0.059124
Ni1   Ni    Ni4+2 0.434860 0.434850 0.869700 0.252981
Ni2   Ni    Ni4+2 0.565140 0.434850 0.130300 0.251124
Ni3   Ni    Ni4+2 0.934860 0.934850 0.869700 0.232267
Ni4   Ni    Ni4+2 0.065140 0.934850 0.130300 0.268995
Ni5   Ni    Ni4+2 0.565130 0.565140 0.130240 0.235786
Ni6   Ni    Ni4+2 0.434870 0.565140 0.869760 0.277121
Ni7   Ni    Ni4+2 0.065130 0.065140 0.130240 0.241026
Ni8   Ni    Ni4+2 0.934870 0.065140 0.869760 0.265683
C49   C     C_R   0.026582 0.551639 0.608798 -0.163892
C50   C     C_R   0.932118 0.552339 0.523318 -0.135199
C51   C     C_R   0.527203 0.051631 0.608486 -0.162608
C52   C     C_R   0.432897 0.052275 0.522552 -0.128770
C53   C     C_R   0.072111 0.503256 0.662833 -0.007591
C54   C     C_R   0.880972 0.503950 0.485479 -0.035915
C55   C     C_R   0.572450 0.003381 0.663501 -0.009305
C56   C     C_R   0.381572 0.003945 0.485209 -0.033237
C57   C     C_R   0.015662 0.457629 0.645977 0.358401
C58   C     C_R   0.917133 0.458684 0.556873 0.358044
C59   C     C_R   0.515886 0.957835 0.646593 0.354602
C60   C     C_R   0.417530 0.958795 0.556975 0.359214
C61   C     C_3   0.944684 0.596463 0.463200 0.288716
C62   C     C_3   0.049318 0.594995 0.556228 0.269492
C63   C     C_3   0.446032 0.095816 0.461927 0.286344
C64   C     C_3   0.550539 0.094397 0.555483 0.266346
H25   H     H_    0.926907 0.584041 0.381599 0.134099
H26   H     H_    0.077110 0.633048 0.605244 0.138542
H27   H     H_    0.428550 0.082810 0.380752 0.131211
H28   H     H_    0.578311 0.132650 0.603802 0.138883
C65   C     C_R   0.341409 0.772732 0.975439 -0.208543
C66   C     C_R   0.744259 0.734552 0.058091 -0.197628
C67   C     C_R   0.836882 0.274077 0.971003 -0.209975
C68   C     C_R   0.234636 0.230912 0.049072 -0.185010
H29   H     H_    0.387932 0.774949 0.949758 0.156078
H30   H     H_    0.711221 0.738726 0.100593 0.164288
H31   H     H_    0.880364 0.279948 0.941817 0.152281
H32   H     H_    0.197368 0.233092 0.086869 0.165619
C69   C     C_R   0.787751 0.316985 0.972846 -0.156470
C70   C     C_R   0.279359 0.276207 0.049542 -0.143925
C71   C     C_R   0.298058 0.819125 0.976881 -0.156407
C72   C     C_R   0.793612 0.777155 0.058275 -0.136823
H33   H     H_    0.790916 0.356493 0.943335 0.143905
H34   H     H_    0.277951 0.312842 0.088700 0.145926
H35   H     H_    0.309153 0.857547 0.950882 0.149180
H36   H     H_    0.799513 0.813967 0.101633 0.134317
C73   C     C_R   0.733440 0.308141 0.011737 0.078384
C74   C     C_R   0.324021 0.274602 0.997766 0.081054
C75   C     C_R   0.238991 0.815071 0.010438 0.089553
C76   C     C_R   0.832680 0.772952 0.000117 0.078533
C77   C     C_R   0.726970 0.258156 0.049612 -0.252222
C78   C     C_R   0.323874 0.228465 0.943599 -0.255981
C79   C     C_R   0.222937 0.766073 0.043584 -0.255400
C80   C     C_R   0.822637 0.726858 0.940306 -0.254151
H37   H     H_    0.682047 0.252822 0.077066 0.177953
H38   H     H_    0.359192 0.229156 0.903453 0.180823
H39   H     H_    0.174721 0.764102 0.066966 0.175741
H40   H     H_    0.853679 0.725541 0.895319 0.178701
C81   C     C_R   0.263970 0.719265 0.040248 0.359015
C82   C     C_R   0.774381 0.682383 0.941550 0.367806
C83   C     C_R   0.772790 0.214445 0.044475 0.361681
C84   C     C_R   0.280520 0.181328 0.944771 0.360112
C85   C     C_R   0.323178 0.723337 0.005573 -0.048466
C86   C     C_R   0.735841 0.687305 0.001861 -0.056486
C87   C     C_R   0.827959 0.223335 0.005085 -0.039768
C88   C     C_R   0.236681 0.183411 0.999391 -0.062047
C89   C     C_R   0.592494 0.549950 0.615220 -0.051398
C90   C     C_R   0.604281 0.549996 0.531750 -0.136228
C91   C     C_R   0.895159 0.049761 0.465362 -0.133127
C92   C     C_R   0.897861 0.049681 0.374695 -0.094902
H41   H     H_    0.587065 0.588613 0.645109 0.133724
H42   H     H_    0.606018 0.588721 0.499171 0.122257
H43   H     H_    0.896159 0.088496 0.499784 0.125615
H44   H     H_    0.900628 0.088361 0.342732 0.146606
C93   C     C_R   0.599801 0.500784 0.482103 0.122982
C94   C     C_R   0.576740 0.500705 0.648719 0.131986
C95   C     C_R   0.909080 0.000520 0.336423 0.130580
C96   C     C_R   0.902671 0.000650 0.517248 0.126109
C97   C     C_R   0.607098 0.451748 0.533895 -0.129256
C98   C     C_R   0.595422 0.451710 0.617492 -0.163361
C99   C     C_R   0.896704 0.951516 0.374030 -0.146209
C100  C     C_R   0.894030 0.951553 0.464684 -0.146556
H45   H     H_    0.611162 0.413047 0.503042 0.129219
H46   H     H_    0.592457 0.413023 0.649313 0.123432
H47   H     H_    0.898547 0.912787 0.341546 0.120283
H48   H     H_    0.894254 0.912804 0.498551 0.124287
O1    O     O_3   0.901562 0.645784 0.458277 -0.714234
H49   H     H_    0.913300 0.652401 0.530869 0.328780
O2    O     O_3   0.104374 0.576690 0.521293 -0.719884
H50   H     H_    0.079552 0.541013 0.484207 0.316423
O3    O     O_3   0.402968 0.145392 0.455703 -0.710181
H51   H     H_    0.414410 0.152546 0.527984 0.331313
O4    O     O_3   0.605993 0.075437 0.521545 -0.726956
H52   H     H_    0.581154 0.039635 0.485077 0.314075
N33   N     N_R   0.242486 0.668320 0.068285 0.236134
O5    O     O_R   0.227320 0.624921 0.010534 -0.395114
O6    O     O_R   0.225428 0.666775 0.142075 -0.376096
N34   N     N_R   0.765878 0.633567 0.883212 0.229543
O7    O     O_R   0.757507 0.586382 0.915700 -0.403756
O8    O     O_R   0.775813 0.635499 0.803571 -0.407937
N35   N     N_R   0.760133 0.161637 0.075314 0.229613
O9    O     O_R   0.742927 0.119613 0.013513 -0.405832
O10   O     O_R   0.751526 0.156886 0.155685 -0.405260
N36   N     N_R   0.282287 0.132802 0.892185 0.238009
O11   O     O_R   0.275646 0.085045 0.924183 -0.388998
O12   O     O_R   0.298515 0.135929 0.817794 -0.379845
O13   O     O_3   0.299413 0.669436 0.804408 -0.775402
H53   H     H_    0.269763 0.704327 0.800993 0.320687
O14   O     O_3   0.756154 0.639066 0.201557 -0.762986
H54   H     H_    0.811490 0.653388 0.206344 0.336394
O15   O     O_3   0.802806 0.169234 0.802794 -0.781938
H55   H     H_    0.779644 0.206284 0.799907 0.317484
O16   O     O_3   0.258505 0.137037 0.199657 -0.758733
H56   H     H_    0.314813 0.149094 0.204071 0.335568
O17   O     O_3   0.490970 0.334377 0.199221 -0.781748
H57   H     H_    0.471063 0.297113 0.201701 0.327009
O18   O     O_3   0.537554 0.335985 0.812210 -0.780798
H58   H     H_    0.581309 0.311080 0.810700 0.320172
O19   O     O_3   0.006026 0.830531 0.197207 -0.768925
H59   H     H_    0.992601 0.791611 0.198657 0.330412
O20   O     O_3   0.057008 0.856324 0.803917 -0.784589
H60   H     H_    0.107234 0.839427 0.801478 0.321452
O21   O     O_3   0.058834 0.412245 0.710906 -0.762859
H61   H     H_    0.022534 0.379626 0.668527 0.323537
O22   O     O_3   0.856957 0.416367 0.535902 -0.773295
H62   H     H_    0.880047 0.398271 0.606575 0.332207
O23   O     O_3   0.558854 0.912572 0.712021 -0.761460
H63   H     H_    0.522953 0.879874 0.669583 0.322901
O24   O     O_3   0.357329 0.916481 0.535925 -0.759293
H64   H     H_    0.380237 0.898424 0.606577 0.336281

loop_
_geom_bond_atom_site_label_1
_geom_bond_atom_site_label_2
_geom_bond_distance
_ccdc_geom_bond_type
C31   N31   1.320765 A    
N35   O9    1.301368 A    
C17   H17   1.079749 S    
C65   H29   1.083965 S    
N23   Ni3   1.866637 S    
C89   C90   1.379441 A    
C70   H34   1.084783 S    
C83   C87   1.409443 A    
O20   H60   0.990243 S    
N8    Ni8   1.866909 S    
C64   O4    1.410192 S    
C25   C37   1.376482 A    
C60   O24   1.379395 S    
C72   H36   1.084915 S    
N21   Ni1   1.866637 S    
C48   C56   1.460306 S    
C38   C86   1.410714 S    
C27   C39   1.371670 A    
C59   C60   1.430874 A    
C21   N21   1.340004 A    
C97   C98   1.380003 A    
C79   C81   1.374440 A    
C7    H7    1.081514 S    
O3    H51   0.993753 S    
N35   O10   1.301415 A    
C83   N35   1.440635 S    
C18   H18   1.072496 S    
N27   Ni8   1.870710 S    
C77   C83   1.370736 A    
C81   C85   1.405155 A    
C1    H1    1.081460 S    
C24   H24   1.079751 S    
C78   C84   1.392138 A    
C78   H38   1.083763 S    
C3    H3    1.081538 S    
C63   O3    1.409086 S    
C77   H37   1.085167 S    
C7    C39   1.362321 A    
C35   C76   1.405484 S    
N36   O12   1.301575 A    
C62   H26   1.111977 S    
N1    Ni1   1.871374 S    
N15   Ni8   1.866367 S    
C82   N34   1.442546 S    
C57   O21   1.380372 S    
C22   N22   1.341865 A    
C3    C35   1.367004 A    
C54   C58   1.412251 A    
C4    H4    1.080683 S    
N33   O6    1.301487 A    
C93   C97   1.400715 A    
C73   C77   1.388126 A    
C68   C70   1.359784 A    
N11   Ni4   1.870639 S    
C20   N20   1.333978 A    
N1    N29   1.377763 A    
C82   C86   1.411475 A    
C20   H20   1.079782 S    
C68   H32   1.084638 S    
C10   N10   1.332638 A    
N17   Ni5   1.870862 S    
N31   Ni4   1.866798 S    
C76   C80   1.392673 A    
N3    N31   1.377763 A    
N34   O7    1.301368 A    
N6    Ni6   1.866909 S    
C52   C63   1.506777 S    
N19   Ni7   1.870862 S    
C66   C86   1.393453 A    
C63   C64   1.514903 S    
C75   C79   1.394935 A    
N36   O11   1.301300 A    
C4    N4    1.324781 A    
C16   H16   1.079368 S    
C26   N26   1.322226 A    
C46   C54   1.460322 S    
C69   H33   1.083970 S    
C14   C46   1.372141 A    
C29   C33   1.377053 A    
C12   C44   1.383154 A    
C71   C75   1.389412 A    
C80   C82   1.389001 A    
C81   N33   1.441387 S    
C8    N8    1.332130 A    
N12   Ni3   1.870134 S    
C19   C43   1.390148 A    
C2    H2    1.080918 S    
N16   N24   1.401039 A    
C34   C73   1.395706 S    
C67   C87   1.393447 A    
C64   H28   1.111960 S    
N8    N28   1.377764 A    
N24   Ni4   1.866388 S    
O21   H61   0.989589 S    
C95   C99   1.401633 A    
C9    H9    1.078146 S    
N11   N19   1.400795 A    
C23   H23   1.077961 S    
C18   C42   1.381474 A    
C65   C71   1.378565 A    
C22   H22   1.079657 S    
C90   C93   1.400793 A    
C79   H39   1.085045 S    
O2    H50   0.993762 S    
C18   N18   1.331170 A    
C28   N28   1.325269 A    
C84   C88   1.409974 A    
C1    N1    1.330234 A    
N6    N26   1.377764 A    
C23   C47   1.392416 A    
N22   Ni2   1.866388 S    
O18   H58   0.990379 S    
N4    Ni4   1.871891 S    
N32   Ni3   1.867062 S    
C97   H45   1.080317 S    
N13   Ni6   1.866367 S    
C4    C36   1.374837 A    
C15   H15   1.072546 S    
C49   C62   1.511067 S    
C68   C88   1.398846 A    
C11   N11   1.335262 A    
O17   H57   0.990405 S    
C30   N30   1.327493 A    
N13   N21   1.401039 A    
C27   O15   1.376929 S    
C51   C64   1.511246 S    
C52   C56   1.395470 A    
C5    C37   1.369020 A    
C26   C38   1.376855 A    
C43   C95   1.463435 S    
C21   C45   1.391918 A    
C99   C100  1.384165 A    
O14   H54   0.990382 S    
C98   H46   1.080550 S    
O23   H63   0.989617 S    
N20   Ni8   1.871364 S    
C65   C85   1.398155 A    
C16   C48   1.372307 A    
O19   H59   0.990851 S    
C41   C93   1.453141 S    
O22   H62   0.989987 S    
C59   O23   1.380378 S    
C12   H12   1.078386 S    
C8    H8    1.080692 S    
N4    N32   1.377763 A    
C11   C43   1.392146 A    
C36   C75   1.413703 S    
C40   C88   1.420504 S    
O13   H53   0.989658 S    
C100  H48   1.080149 S    
C8    C40   1.379828 A    
C5    N5    1.325491 A    
N9    N17   1.400795 A    
C50   C54   1.395658 A    
C30   O18   1.376977 S    
C91   C92   1.384652 A    
N15   N23   1.401039 A    
C57   C58   1.431121 A    
C94   C98   1.400897 A    
C47   C55   1.462119 S    
C10   C42   1.382834 A    
C49   C53   1.398183 A    
C92   C95   1.402467 A    
C9    C41   1.383262 A    
C33   C74   1.409895 S    
C23   N23   1.339444 A    
C71   H35   1.083487 S    
C51   C55   1.397980 A    
C11   H11   1.075563 S    
N3    Ni3   1.871374 S    
C61   C62   1.514705 S    
C91   C96   1.402162 A    
N2    Ni2   1.871891 S    
N30   Ni1   1.867062 S    
C42   C94   1.453025 S    
C13   N13   1.328003 A    
N29   Ni2   1.866798 S    
C2    N2    1.319375 A    
C89   C94   1.400552 A    
C96   C100  1.402775 A    
C31   C35   1.370931 A    
C66   C72   1.356974 A    
C15   N15   1.327408 A    
C49   C50   1.372123 A    
C90   H42   1.080261 S    
C25   O13   1.377017 S    
O1    H49   0.993755 S    
C50   C61   1.506912 S    
C16   N16   1.326460 A    
N2    N30   1.377763 A    
C1    C33   1.368236 A    
N18   Ni6   1.871364 S    
N10   Ni1   1.870134 S    
C6    H6    1.077288 S    
C24   C48   1.384459 A    
N9    Ni2   1.870639 S    
C32   N32   1.331960 A    
N12   N20   1.400795 A    
C32   O20   1.374624 S    
C39   C87   1.400828 S    
C66   H30   1.084847 S    
C17   N17   1.328216 A    
N5    Ni5   1.867172 S    
C15   C47   1.383224 A    
C29   O17   1.375808 S    
C80   H40   1.083810 S    
C55   C59   1.416291 A    
N7    Ni7   1.867172 S    
C67   H31   1.084128 S    
C30   C34   1.384016 A    
C5    H5    1.081740 S    
C26   O14   1.373879 S    
C45   C53   1.463178 S    
C6    N6    1.331609 A    
C72   C76   1.388401 A    
C84   N36   1.442254 S    
C28   C40   1.384241 A    
C14   N14   1.326147 A    
C13   C45   1.383062 A    
C28   O16   1.374128 S    
C70   C74   1.384296 A    
C51   C52   1.371881 A    
C69   C73   1.389255 A    
C91   H43   1.080359 S    
N33   O5    1.301468 A    
O15   H55   0.989565 S    
C58   O22   1.379412 S    
N28   Ni7   1.870192 S    
C7    N7    1.323523 A    
O16   H56   0.990880 S    
C20   C44   1.382622 A    
N26   Ni5   1.870192 S    
C19   H19   1.076566 S    
C24   N24   1.342081 A    
C21   H21   1.077416 S    
C13   H13   1.071155 S    
C62   O2    1.410120 S    
C63   H27   1.112190 S    
N14   N22   1.401039 A    
C17   C41   1.381398 A    
C3    N3    1.330923 A    
C37   C85   1.411155 S    
O4    H52   0.993753 S    
C31   O19   1.377175 S    
C14   H14   1.079161 S    
C92   H44   1.080330 S    
C67   C69   1.372194 A    
N16   Ni7   1.866619 S    
C19   N19   1.333612 A    
C12   N12   1.335210 A    
C25   N25   1.328960 A    
C2    C34   1.366247 A    
C61   H25   1.112180 S    
C74   C78   1.395918 A    
N14   Ni5   1.866619 S    
N5    N25   1.377761 A    
O24   H64   0.989980 S    
N10   N18   1.400795 A    
C89   H41   1.080449 S    
C61   O1    1.409107 S    
C53   C57   1.416867 A    
C32   C36   1.390295 A    
N7    N27   1.377761 A    
C27   N27   1.326850 A    
N25   Ni6   1.870710 S    
C6    C38   1.373948 A    
N34   O8    1.301580 A    
C29   N29   1.322519 A    
C99   H47   1.080485 S    
C56   C60   1.412743 A    
C9    N9    1.330619 A    
C22   C46   1.384869 A    
C10   H10   1.068305 S    
C44   C96   1.463163 S    
