data_mof_unit_3584.cif
_audit_creation_date              2012-12-10T16:44:39-0500
_audit_creation_method            fapswitch 2.2
_symmetry_space_group_name_H-M    P1
_symmetry_Int_Tables_number       1
_space_group_crystal_system       triclinic
_cell_length_a                    15.066717
_cell_length_b                    8.681366
_cell_length_c                    7.43322
_cell_angle_alpha                 102.985976
_cell_angle_beta                  93.907009
_cell_angle_gamma                 92.414411
_cell_volume                      943.544312563

loop_
_atom_site_label
_atom_site_type_symbol
_atom_type_description
_atom_site_fract_x
_atom_site_fract_y
_atom_site_fract_z
_atom_type_partial_charge
C1    C     C_R   0.497311 0.199662 0.453210 0.877153
C2    C     C_R   0.502688 0.800338 0.546790 0.877155
C3    C     C_R   0.047777 0.383440 0.772650 -0.219405
C4    C     C_R   0.952223 0.616548 0.227342 -0.219408
C5    C     C_2   0.496169 0.031773 0.426824 -0.375957
C6    C     C_2   0.503831 0.968227 0.573175 -0.375958
C7    C     C_R   0.328835 0.498052 0.502772 0.835587
C8    C     C_R   0.671165 0.501947 0.497228 0.835590
C9    C     C_R   0.811363 0.559708 0.355565 0.195469
C10   C     C_R   0.188637 0.440286 0.644432 0.195472
C11   C     C_R   0.767750 0.502871 0.492067 -0.097126
C12   C     C_R   0.232250 0.497127 0.507932 -0.097125
C13   C     C_R   0.816254 0.446262 0.628259 -0.320842
C14   C     C_R   0.183746 0.553736 0.371741 -0.320844
C15   C     C_R   0.908224 0.444138 0.631528 0.103750
C16   C     C_R   0.091775 0.555857 0.368469 0.103750
C17   C     C_R   0.953267 0.500586 0.497172 0.043645
C18   C     C_R   0.046732 0.499408 0.502825 0.043645
C19   C     C_R   0.905122 0.558657 0.357922 0.039502
C20   C     C_R   0.094878 0.441335 0.642073 0.039499
C21   C     C_R   0.955538 0.385607 0.767615 -0.200750
C22   C     C_R   0.044461 0.614384 0.232379 -0.200749
Cu1   Cu    Cu3+1 0.510010 0.517380 0.684380 0.955418
Cu2   Cu    Cu3+1 0.489990 0.482620 0.315620 0.955418
H1    H     H_    0.781950 0.401700 0.731612 0.166170
H2    H     H_    0.218050 0.598299 0.268388 0.166172
H3    H     H_    0.921065 0.341124 0.870638 0.149514
H4    H     H_    0.078935 0.658864 0.129355 0.149515
H5    H     H_    0.081049 0.335363 0.879429 0.160324
H6    H     H_    0.918950 0.664620 0.120559 0.160327
H7    H     H_    0.489072 0.960125 0.285797 0.179854
H8    H     H_    0.510928 0.039875 0.714202 0.179854
H9    H     H_    0.430659 0.377481 0.948233 0.238883
H10   H     H_    0.569341 0.622519 0.051767 0.238883
N1    N     N_2   0.474890 0.456420 0.038520 -0.216761
N2    N     N_2   0.525110 0.543580 0.961480 -0.216761
O1    O     O_R   0.506510 0.286130 0.619770 -0.583492
O2    O     O_R   0.493490 0.713870 0.380230 -0.583492
O3    O     O_R   0.489600 0.256770 0.308360 -0.590940
O4    O     O_R   0.510400 0.743230 0.691640 -0.590940
O5    O     O_R   0.378710 0.514640 0.655720 -0.556538
O6    O     O_R   0.621290 0.485360 0.344280 -0.556538
O7    O     O_R   0.361800 0.485290 0.344300 -0.596110
O8    O     O_R   0.638200 0.514710 0.655700 -0.596110
N3    N     N_2   0.760445 0.619806 0.220365 -0.422284
H11   H     H_    0.777268 0.582321 0.086065 0.246713
C23   C     C_3   0.746731 0.787346 0.273728 -0.680748
H12   H     H_    0.811389 0.857491 0.290793 0.223827
H13   H     H_    0.713810 0.815068 0.405588 0.226751
H14   H     H_    0.702979 0.821841 0.164815 0.218391
N4    N     N_2   0.239555 0.380180 0.779625 -0.422285
H15   H     H_    0.222730 0.417650 0.913926 0.246712
C24   C     C_3   0.253275 0.212642 0.726242 -0.680740
H16   H     H_    0.188619 0.142489 0.709164 0.223826
H17   H     H_    0.297027 0.178141 0.835151 0.218389
H18   H     H_    0.286199 0.184938 0.594384 0.226747

loop_
_geom_bond_atom_site_label_1
_geom_bond_atom_site_label_2
_ccdc_geom_bond_type
C6    H8    S    
Cu1   Cu2   S    
C9    N3    S    
C7    O7    A    
C4    C22   A    
C2    O2    A    
Cu2   O2    S    
N1    N2    D    
Cu1   O5    S    
C1    O1    A    
C8    O6    A    
C24   H18   S    
C24   H17   S    
C17   C18   A    
C21   H3    S    
C3    C20   A    
C23   H13   S    
C22   H4    S    
N3    H11   S    
C14   H2    S    
C15   C17   A    
C9    C11   A    
C13   H1    S    
C2    C6    S    
C15   C21   A    
C10   C12   A    
C8    C11   S    
C1    C5    S    
C10   N4    S    
H9    N1    S    
Cu1   O1    S    
C12   C14   A    
C23   H14   S    
H10   N2    S    
C13   C15   A    
C5    C6    D    
C14   C16   A    
C7    C12   S    
C3    C21   A    
Cu2   N1    S    
C1    O3    A    
N4    C24   S    
N4    H15   S    
C23   H12   S    
C2    O4    A    
C11   C13   A    
Cu2   O3    S    
Cu2   O6    S    
C18   C20   A    
C16   C18   A    
Cu1   N2    S    
N3    C23   S    
C3    H5    S    
Cu2   O7    S    
C16   C22   A    
C17   C19   A    
C24   H16   S    
C4    C19   A    
C9    C19   A    
C4    H6    S    
Cu1   O8    S    
Cu1   O4    S    
C7    O5    A    
C10   C20   A    
C5    H7    S    
C8    O8    A    
