data_mof_unit_4366.cif
_audit_creation_date              2012-10-26T18:33:57-0400
_audit_creation_method            fapswitch 2.2
_symmetry_space_group_name_H-M    P1
_symmetry_Int_Tables_number       1
_space_group_crystal_system       triclinic
_cell_length_a                    10.958233
_cell_length_b                    10.791443
_cell_length_c                    9.612321
_cell_angle_alpha                 89.238659
_cell_angle_beta                  100.926246
_cell_angle_gamma                 92.508464
_cell_volume                      1115.01628318

loop_
_atom_site_label
_atom_site_type_symbol
_atom_type_description
_atom_site_fract_x
_atom_site_fract_y
_atom_site_fract_z
_atom_type_partial_charge
C1    C     C_R   0.500360 0.262730 0.500583 0.578983
C2    C     C_2   0.873414 0.483935 0.581253 0.249824
C3    C     C_2   0.063319 0.427323 0.503283 0.295650
C4    C     C_2   0.926389 0.431203 0.481561 0.286194
C5    C     C_R   0.407639 0.063715 0.406863 0.260659
C6    C     C_R   0.592312 0.936342 0.593151 0.258025
C7    C     C_R   0.404238 0.933667 0.406715 0.180269
C8    C     C_R   0.595817 0.066392 0.593132 0.181206
C9    C     C_R   0.498132 0.871304 0.499068 -0.012724
C10   C     C_R   0.501860 0.128734 0.500888 -0.009479
C11   C     C_R   0.499626 0.737278 0.499408 0.569588
C12   C     C_R   0.262430 0.497185 0.443802 0.559123
C13   C     C_R   0.737309 0.496059 0.555763 0.555175
C14   C     C_R   0.415642 0.427209 0.060108 0.396642
C15   C     C_R   0.584496 0.572838 0.940203 0.394784
C16   C     C_R   0.415762 0.426082 0.911522 0.301396
C17   C     C_R   0.586036 0.572044 0.089397 0.309600
C18   C     C_2   0.125280 0.491890 0.415426 0.265134
Cu1   Cu    Cu3+1 0.500000 0.500020 0.640660 1.089114
Cu2   Cu    Cu3+1 0.500000 0.499980 0.359340 1.097666
H1    H     H_    0.909772 0.341916 0.304410 0.352003
H2    H     H_    0.740596 0.925565 0.743163 0.388109
H3    H     H_    0.296395 0.785691 0.352965 0.332954
H4    H     H_    0.703983 0.214262 0.646224 0.336607
H5    H     H_    0.064751 0.312180 0.660031 0.357644
H6    H     H_    0.275285 0.305668 0.046760 0.370484
H7    H     H_    0.719978 0.699576 0.953183 0.368525
H8    H     H_    0.895334 0.568039 0.762432 0.366973
H9    H     H_    0.118823 0.600870 0.251931 0.346320
H10   H     H_    0.347795 0.340758 0.737295 0.410183
H11   H     H_    0.655581 0.659116 0.262714 0.385412
H12   H     H_    0.259003 0.074514 0.257311 0.388246
N1    N     N_R   0.500030 0.500030 0.852080 -0.265638
N2    N     N_R   0.499970 0.499970 0.147920 -0.260702
O1    O     O_R   0.499990 0.319660 0.618740 -0.540616
O2    O     O_3   0.126471 0.356632 0.612082 -0.663606
O3    O     O_3   0.333253 0.353249 0.120253 -0.594295
O4    O     O_3   0.666699 0.647198 0.880316 -0.605765
O5    O     O_3   0.948117 0.527246 0.705082 -0.687772
O6    O     O_3   0.059044 0.554234 0.300613 -0.682042
O7    O     O_3   0.328624 0.347804 0.831460 -0.668857
O8    O     O_3   0.678865 0.643262 0.171774 -0.673726
O9    O     O_3   0.317559 0.130757 0.320682 -0.630770
O10   O     O_3   0.682303 0.869322 0.679491 -0.634788
O11   O     O_3   0.307105 0.871384 0.318221 -0.680334
O12   O     O_R   0.500010 0.680340 0.381260 -0.547442
O13   O     O_3   0.693123 0.128706 0.681331 -0.679749
O14   O     O_R   0.499990 0.319630 0.381170 -0.414712
O15   O     O_R   0.500010 0.680370 0.618830 -0.424844
O16   O     O_R   0.320690 0.500020 0.575130 -0.488575
O17   O     O_R   0.679310 0.499980 0.424870 -0.468602
O18   O     O_R   0.320680 0.499990 0.337560 -0.470083
O19   O     O_R   0.679320 0.500010 0.662440 -0.468988
O20   O     O_3   0.854145 0.380630 0.360022 -0.658386

loop_
_geom_bond_atom_site_label_1
_geom_bond_atom_site_label_2
_ccdc_geom_bond_type
C14   N2    A    
C12   O16   A    
C1    O14   A    
C11   O15   A    
H11   O8    S    
C16   N1    A    
C5    C7    A    
Cu1   O15   S    
C2    C4    D    
Cu1   Cu2   S    
Cu2   N2    S    
Cu1   O19   S    
C6    C9    A    
C6    C8    A    
C5    O9    S    
C8    O13   S    
C5    C10   A    
H6    O3    S    
Cu1   O1    S    
C14   O3    S    
C9    C11   S    
Cu1   O16   S    
Cu2   O14   S    
C15   O4    S    
C3    O2    S    
H3    O11   S    
C7    O11   S    
H9    O6    S    
C8    C10   A    
C12   O18   A    
H12   O9    S    
Cu2   O17   S    
C13   O19   A    
H1    O20   S    
C14   C16   A    
H10   O7    S    
C17   N2    A    
H5    O2    S    
C3    C4    S    
C7    C9    A    
C1    O1    A    
C3    C18   D    
Cu2   O18   S    
Cu1   N1    S    
C12   C18   S    
C15   C17   A    
C2    C13   S    
C18   O6    S    
C17   O8    S    
C11   O12   A    
C6    O10   S    
H7    O4    S    
H8    O5    S    
C4    O20   S    
C13   O17   A    
H4    O13   S    
C2    O5    S    
C15   N1    A    
H2    O10   S    
C1    C10   S    
C16   O7    S    
Cu2   O12   S    
