data_mof_unit_320.cif
_audit_creation_date              2012-12-11T14:21:14-0500
_audit_creation_method            fapswitch 2.2
_symmetry_space_group_name_H-M    P1
_symmetry_Int_Tables_number       1
_space_group_crystal_system       triclinic
_cell_length_a                    21.941682
_cell_length_b                    7.204016
_cell_length_c                    14.882748
_cell_angle_alpha                 89.959163
_cell_angle_beta                  106.934301
_cell_angle_gamma                 89.977878
_cell_volume                      2250.48319238

loop_
_atom_site_label
_atom_site_type_symbol
_atom_type_description
_atom_site_fract_x
_atom_site_fract_y
_atom_site_fract_z
_atom_type_partial_charge
O1    O     O_R   0.584770 0.505770 0.002090 -0.544474
O2    O     O_R   0.415230 0.005770 0.997910 -0.544261
O3    O     O_R   0.467060 0.173340 0.861950 -0.530585
O4    O     O_R   0.532940 0.673340 0.138050 -0.530428
C1    C     C_R   0.455318 0.344250 0.825823 0.748623
C2    C     C_R   0.544791 0.844085 0.174135 0.748069
O5    O     O_R   0.587510 0.175890 0.993210 -0.537505
O6    O     O_R   0.412490 0.675890 0.006790 -0.537420
O7    O     O_R   0.536540 0.008150 0.130100 -0.546895
O8    O     O_R   0.463460 0.508150 0.869900 -0.546790
C3    C     C_R   0.612980 0.344902 0.997448 0.746498
C4    C     C_R   0.387020 0.844953 0.002558 0.747164
O9    O     O_3   0.483140 0.340040 0.044760 -0.381832
O10   O     O_3   0.516860 0.840040 0.955240 -0.382033
V1    V     V_3+5 0.503130 0.064190 0.991700 1.441931
V2    V     V_3+5 0.496870 0.564190 0.008300 1.442315
C5    C     C_2   0.214052 0.727496 0.003671 -0.112683
C6    C     C_2   0.786067 0.227460 0.996740 -0.123031
C7    C     C_2   0.180235 0.886597 0.995722 -0.299875
C8    C     C_2   0.819729 0.386672 0.004125 -0.290994
H1    H     H_    0.191114 0.596776 0.010344 0.143133
H2    H     H_    0.809158 0.096666 0.990634 0.141067
H3    H     H_    0.201621 0.018702 0.987833 0.127266
H4    H     H_    0.798197 0.518874 0.011448 0.127589
C9    C     C_2   0.281906 0.714504 0.003224 -0.129521
C10   C     C_2   0.718193 0.214421 0.997085 -0.128537
C11   C     C_2   0.319921 0.861462 0.003547 -0.308835
C12   C     C_2   0.680077 0.361355 0.996463 -0.307599
H5    H     H_    0.301114 0.575471 0.003533 0.143340
H6    H     H_    0.699075 0.075382 0.997035 0.142849
H7    H     H_    0.302009 0.001338 0.004294 0.132284
H8    H     H_    0.697918 0.501230 0.995549 0.131667
C13   C     C_R   0.926932 0.882868 0.723414 -0.128125
C14   C     C_R   0.073158 0.381728 0.276660 -0.121479
C15   C     C_R   0.572680 0.848833 0.276054 -0.151965
C16   C     C_R   0.427677 0.349482 0.723802 -0.151741
C17   C     C_R   0.937575 0.811663 0.570109 -0.224225
C18   C     C_R   0.063146 0.310759 0.430252 -0.225196
C19   C     C_R   0.965268 0.834001 0.666562 0.407554
C20   C     C_R   0.035320 0.326646 0.333267 0.393293
C21   C     C_R   0.861067 0.910891 0.684164 0.089894
C22   C     C_R   0.139128 0.409369 0.315509 0.088660
C23   C     C_R   0.831358 0.861068 0.588317 0.040099
C24   C     C_R   0.169189 0.358931 0.411232 0.036088
C25   C     C_R   0.871416 0.825484 0.530800 -0.026971
C26   C     C_R   0.129340 0.323868 0.469109 -0.026814
C27   C     C_R   0.764056 0.841525 0.547795 0.017286
C28   C     C_R   0.236594 0.340469 0.451623 0.016660
C29   C     C_R   0.737391 0.831523 0.448037 -0.034212
C30   C     C_R   0.263336 0.330101 0.551362 -0.036858
C31   C     C_R   0.779620 0.798866 0.392742 0.429554
C32   C     C_R   0.221308 0.296036 0.606762 0.435858
C33   C     C_R   0.845331 0.797059 0.434687 -0.232983
C34   C     C_R   0.155620 0.295819 0.565235 -0.224051
C35   C     C_R   0.723446 0.809515 0.604248 -0.173755
C36   C     C_R   0.277345 0.310213 0.395199 -0.174025
C37   C     C_R   0.658050 0.794411 0.565756 -0.170015
C38   C     C_R   0.342814 0.296054 0.433820 -0.169797
C39   C     C_R   0.630420 0.812502 0.469369 0.075650
C40   C     C_R   0.370357 0.313776 0.530273 0.076128
C41   C     C_R   0.669447 0.837589 0.409180 0.093947
C42   C     C_R   0.331202 0.337663 0.590290 0.092316
C43   C     C_R   0.563954 0.800428 0.432493 -0.250372
C44   C     C_R   0.436834 0.302415 0.567447 -0.250778
C45   C     C_R   0.534853 0.816484 0.335801 0.459814
C46   C     C_R   0.465725 0.318010 0.664261 0.459593
C47   C     C_R   0.638676 0.868106 0.312852 -0.273346
C48   C     C_R   0.361696 0.368317 0.686653 -0.275403
H9    H     H_    0.876223 0.768443 0.391176 0.147101
H10   H     H_    0.124916 0.267550 0.609010 0.140894
H11   H     H_    0.664596 0.908260 0.264568 0.186248
H12   H     H_    0.335443 0.407459 0.734682 0.186823
H13   H     H_    0.628866 0.769238 0.612062 0.118512
H14   H     H_    0.372117 0.271888 0.387589 0.118870
H15   H     H_    0.967760 0.776438 0.526451 0.139175
H16   H     H_    0.033086 0.282591 0.474994 0.134654
H17   H     H_    0.741783 0.783479 0.678464 0.131075
H18   H     H_    0.259112 0.284763 0.320947 0.130632
H19   H     H_    0.534593 0.774273 0.478483 0.130025
H20   H     H_    0.466350 0.276964 0.521616 0.130222
O11   O     O_R   0.036450 0.233070 0.130130 -0.550023
O12   O     O_R   0.963550 0.733070 0.869870 -0.539246
O13   O     O_R   0.912470 0.560570 0.006790 -0.549463
O14   O     O_R   0.087530 0.060570 0.993210 -0.550577
C49   C     C_R   0.886997 0.391922 0.002697 0.754251
C50   C     C_R   0.112995 0.891882 0.997270 0.752459
O15   O     O_R   0.032920 0.562940 0.138050 -0.530845
O16   O     O_R   0.967080 0.062940 0.861950 -0.534190
O17   O     O_R   0.084790 0.730500 0.002090 -0.531350
O18   O     O_R   0.915210 0.230500 0.997910 -0.534895
C51   C     C_R   0.044834 0.394107 0.174633 0.784270
C52   C     C_R   0.955067 0.894308 0.825420 0.783305
O19   O     O_3   0.016820 0.396170 0.955260 -0.379547
O20   O     O_3   0.983180 0.896170 0.044740 -0.387918
V3    V     V_3+5 0.996880 0.672090 0.008300 1.459004
V4    V     V_3+5 0.003120 0.172090 0.991700 1.444217
O21   O     O_3   0.029578 0.800618 0.706295 -0.553372
C53   C     C_3   0.063889 0.957359 0.691543 -0.261588
H21   H     H_    0.047670 0.086404 0.718915 0.138054
H22   H     H_    0.060499 0.973466 0.615895 0.133678
H23   H     H_    0.114814 0.937213 0.730676 0.172147
O22   O     O_3   0.970077 0.308649 0.294204 -0.561809
C54   C     C_3   0.952395 0.122259 0.301688 -0.237854
H24   H     H_    0.956177 0.085100 0.375628 0.132609
H25   H     H_    0.981066 0.024740 0.272255 0.142509
H26   H     H_    0.901777 0.105038 0.260190 0.170373
N1    N     N_3   0.828488 0.012800 0.739522 -0.675003
H27   H     H_    0.788792 0.083518 0.697499 0.249012
H28   H     H_    0.816171 0.923232 0.786682 0.210813
N2    N     N_3   0.171427 0.511834 0.259945 -0.676415
H29   H     H_    0.210930 0.583309 0.301849 0.248868
H30   H     H_    0.183963 0.422456 0.212954 0.210706
O23   O     O_3   0.758153 0.752762 0.298650 -0.567130
C55   C     C_3   0.751229 0.558197 0.290700 -0.249831
H31   H     H_    0.716576 0.506040 0.326531 0.141915
H32   H     H_    0.797915 0.486697 0.318731 0.156439
H33   H     H_    0.732371 0.522082 0.215199 0.165332
O24   O     O_3   0.242789 0.245617 0.700336 -0.564262
C56   C     C_3   0.253146 0.051993 0.705967 -0.267780
H34   H     H_    0.291903 0.011472 0.675529 0.150155
H35   H     H_    0.208844 0.974039 0.670782 0.137161
H36   H     H_    0.268207 0.010858 0.781085 0.167773
O25   O     O_3   0.469969 0.789092 0.298854 -0.555460
C57   C     C_3   0.438092 0.951037 0.313610 -0.275219
H37   H     H_    0.453752 0.074795 0.281241 0.136873
H38   H     H_    0.444804 0.975140 0.389719 0.140423
H39   H     H_    0.386308 0.932838 0.279352 0.169833
O26   O     O_3   0.530613 0.290895 0.701538 -0.555509
C58   C     C_3   0.562436 0.452724 0.686531 -0.274901
H40   H     H_    0.546493 0.576799 0.718274 0.136834
H41   H     H_    0.555998 0.476036 0.610418 0.140284
H42   H     H_    0.614188 0.434913 0.721249 0.169876

loop_
_geom_bond_atom_site_label_1
_geom_bond_atom_site_label_2
_ccdc_geom_bond_type
C43   C45   A    
O4    V2    S    
O15   C51   A    
C44   H20   S    
C14   C22   A    
C7    C50   S    
C33   H9    S    
O26   C58   S    
C2    O7    A    
O16   V4    S    
C55   H31   S    
O12   C52   A    
O25   C57   S    
C27   C29   A    
C43   H19   S    
O5    C3    A    
C31   O23   S    
C14   C20   A    
C57   H38   S    
O14   C50   A    
O23   C55   S    
C35   H17   S    
C16   C46   A    
C37   C39   A    
C15   C45   A    
C38   C40   A    
C1    C16   S    
C36   H18   S    
C2    C15   S    
C40   C42   A    
O14   V4    S    
C37   H13   S    
O24   C56   S    
C14   C51   S    
C6    C10   S    
C8    H4    S    
C24   C26   A    
C29   C31   A    
O15   V3    S    
C30   C32   A    
N1    H27   S    
C36   C38   A    
C47   H11   S    
C48   H12   S    
C58   H42   S    
C28   C30   A    
C17   H15   S    
O2    C4    A    
O6    V2    S    
C21   C23   A    
O22   C54   S    
C22   C24   A    
C32   C34   A    
O21   C53   S    
C56   H35   S    
C9    H5    S    
C49   O18   A    
C39   C41   A    
C29   C41   A    
C4    C11   S    
C11   H7    S    
O16   C52   A    
C12   H8    S    
O4    C2    A    
C13   C52   S    
O11   V4    S    
C18   H16   S    
C20   O22   S    
C5    H1    S    
N2    H29   S    
C31   C33   A    
C44   C46   A    
O17   V3    S    
C7    H3    S    
C41   C47   A    
C34   H10   S    
C15   C47   A    
O6    C4    A    
O13   V3    S    
C8    C49   S    
C26   C34   A    
C54   H25   S    
O1    V2    S    
C13   C19   A    
O2    V1    S    
C23   C25   A    
C57   H39   S    
O13   C49   A    
C10   H6    S    
O19   V4    S    
C53   H22   S    
C35   C37   A    
C30   C42   A    
C17   C25   A    
O3    V1    S    
C38   H14   S    
C27   C35   A    
C58   H40   S    
C56   H36   S    
C28   C36   A    
O12   V3    S    
C21   N1    S    
C6    H2    S    
C10   C12   D    
O3    C1    A    
C50   O17   A    
C55   H32   S    
C56   H34   S    
C16   C48   A    
O18   V4    S    
C9    C11   D    
C53   H23   S    
C39   C43   A    
C42   C48   A    
C40   C44   A    
C13   C21   A    
C22   N2    S    
C5    C9    S    
C1    O8    A    
C17   C19   A    
O8    V2    S    
C18   C20   A    
N1    H28   S    
C3    C12   S    
O5    V1    S    
C5    C7    D    
C46   O26   S    
C54   H26   S    
C6    C8    D    
C45   O25   S    
O7    V1    S    
O20   V3    S    
N2    H30   S    
C18   C26   A    
C55   H33   S    
C19   O21   S    
C25   C33   A    
O11   C51   A    
C53   H21   S    
O9    V2    S    
C54   H24   S    
O10   V1    S    
O1    C3    A    
C23   C27   A    
C24   C28   A    
C57   H37   S    
C58   H41   S    
C32   O24   S    
