data_mof_unit_1890.cif
_audit_creation_date              2012-12-10T17:19:52-0500
_audit_creation_method            fapswitch 2.2
_symmetry_space_group_name_H-M    P1
_symmetry_Int_Tables_number       1
_space_group_crystal_system       triclinic
_cell_length_a                    9.616288
_cell_length_b                    10.887933
_cell_length_c                    15.431774
_cell_angle_alpha                 85.823008
_cell_angle_beta                  74.458607
_cell_angle_gamma                 87.652269
_cell_volume                      1552.13256623

loop_
_atom_site_label
_atom_site_type_symbol
_atom_type_description
_atom_site_fract_x
_atom_site_fract_y
_atom_site_fract_z
_atom_type_partial_charge
C1    C     C_R   0.003354 0.261802 0.500788 0.823970
C2    C     C_R   0.676367 0.519345 0.908510 0.090043
C3    C     C_R   0.776971 0.488466 0.959496 0.166776
C4    C     C_R   0.528013 0.540905 0.953536 0.062504
C5    C     C_R   0.480507 0.519375 0.048946 0.064670
C6    C     C_R   0.585150 0.490257 0.097132 -0.233766
C7    C     C_R   0.730349 0.476372 0.053084 -0.249255
C8    C     C_R   0.426048 0.584807 0.906584 -0.216177
C9    C     C_R   0.281236 0.601303 0.950884 -0.236336
C10   C     C_R   0.231776 0.573341 0.043225 0.165739
C11   C     C_R   0.330228 0.530308 0.093103 0.096180
C12   C     C_R   0.918344 0.500095 0.672163 0.780364
C13   C     C_R   0.084375 0.588928 0.086435 -0.215040
C14   C     C_R   0.032729 0.561553 0.178854 -0.203964
C15   C     C_R   0.274233 0.499005 0.185583 -0.224557
C16   C     C_R   0.223121 0.095678 0.567142 -0.152022
C17   C     C_R   0.294975 0.022674 0.620222 -0.117101
C18   C     C_R   0.251615 0.903116 0.648401 -0.135337
C19   C     C_R   0.144586 0.853345 0.617238 -0.129524
C20   C     C_R   0.077819 0.923801 0.557930 0.025611
C21   C     C_R   0.104211 0.051134 0.541904 0.087504
C22   C     C_R   0.010633 0.126569 0.501466 -0.155595
C23   C     C_R   0.995449 0.736822 0.504377 0.826874
C24   C     C_R   0.909499 0.071551 0.467095 -0.295614
C25   C     C_R   0.900552 0.944033 0.469459 0.404781
C26   C     C_R   0.987047 0.869742 0.513490 -0.144871
C27   C     C_R   0.691522 0.657083 0.375202 -0.142209
C28   C     C_R   0.645054 0.732467 0.311586 -0.318534
C29   C     C_R   0.500894 0.732523 0.309145 0.488538
C30   C     C_R   0.404692 0.659452 0.374125 -0.174197
C31   C     C_R   0.449015 0.577209 0.437654 0.073649
C32   C     C_R   0.598165 0.576655 0.437863 0.166250
C33   C     C_R   0.552766 0.429447 0.560545 -0.036268
C34   C     C_R   0.081671 0.502628 0.327807 0.791763
C35   C     C_R   0.405468 0.429366 0.561769 0.442889
C36   C     C_R   0.873047 0.500675 0.770983 -0.051354
C37   C     C_R   0.127942 0.517588 0.228985 -0.039633
C38   C     C_R   0.923539 0.468402 0.916239 -0.213947
C39   C     C_R   0.971581 0.475638 0.822555 -0.195709
C40   C     C_R   0.727197 0.522927 0.814011 -0.246624
Cu1   Cu    Cu3+1 0.140660 0.499990 0.500010 0.924791
Cu2   Cu    Cu3+1 0.859340 0.500010 0.499990 0.944467
H1    H     H_    0.806494 0.453949 0.092777 0.153091
H2    H     H_    0.009322 0.624317 0.048883 0.137867
H3    H     H_    0.839584 0.128396 0.435245 0.160131
H4    H     H_    0.269957 0.182672 0.542090 0.181518
H5    H     H_    0.384470 0.059283 0.639609 0.155728
H6    H     H_    0.304149 0.847496 0.691994 0.134120
H7    H     H_    0.114076 0.759693 0.640569 0.150975
H8    H     H_    0.590455 0.371604 0.610064 0.160785
H9    H     H_    0.801270 0.667325 0.374188 0.240902
H10   H     H_    0.721957 0.793180 0.266126 0.164668
H11   H     H_    0.342139 0.459109 0.225883 0.149239
H12   H     H_    0.295718 0.672377 0.371832 0.219243
H13   H     H_    0.919446 0.577527 0.211205 0.149059
H14   H     H_    0.207126 0.635650 0.912268 0.147141
H15   H     H_    0.000748 0.444717 0.954914 0.148810
H16   H     H_    0.084775 0.458124 0.790647 0.182657
H17   H     H_    0.654348 0.538818 0.772079 0.155764
H18   H     H_    0.559525 0.481209 0.169598 0.147523
H19   H     H_    0.455012 0.611103 0.835519 0.144768
N1    N     N_R   0.648320 0.501210 0.499140 -0.231208
N2    N     N_R   0.352470 0.501290 0.499110 -0.236829
O1    O     O_R   0.118810 0.319640 0.500010 -0.615741
O2    O     O_R   0.881240 0.319660 0.500000 -0.574918
O3    O     O_R   0.055570 0.499980 0.629840 -0.601458
O4    O     O_R   0.818000 0.500010 0.629830 -0.586380
O5    O     O_R   0.118760 0.680340 0.500000 -0.609761
O6    O     O_R   0.881190 0.680360 0.499990 -0.543443
O7    O     O_R   0.182000 0.499990 0.370170 -0.599688
O8    O     O_R   0.944430 0.500020 0.370160 -0.602943
O9    O     O_3   0.809402 0.890596 0.428184 -0.739243
H20   H     H_    0.757011 0.955738 0.400351 0.321902
O10   O     O_3   0.444642 0.810086 0.250456 -0.573529
C41   C     C_3   0.541496 0.824808 0.163829 -0.299665
H21   H     H_    0.598773 0.737229 0.140969 0.159574
H22   H     H_    0.619807 0.897739 0.162092 0.165810
H23   H     H_    0.478948 0.855476 0.115011 0.196819
O11   O     O_3   0.319012 0.356933 0.630036 -0.781953
H24   H     H_    0.225257 0.350294 0.617660 0.368935

loop_
_geom_bond_atom_site_label_1
_geom_bond_atom_site_label_2
_ccdc_geom_bond_type
C16   C21   A    
C34   C37   S    
Cu1   Cu2   S    
C23   O6    A    
C19   C20   A    
C4    C8    A    
C30   H12   S    
C5    C6    A    
C24   H3    S    
C15   H11   S    
C28   C29   A    
C5    C11   A    
C3    C7    A    
C30   C31   A    
C16   C17   A    
C18   C19   A    
C23   C26   S    
C15   C37   A    
C11   C15   A    
C3    C38   A    
C8    C9    A    
Cu2   O2    S    
C1    O2    A    
C7    H1    S    
C12   C36   S    
C9    C10   A    
Cu2   N1    S    
C8    H19   S    
O9    H20   S    
C14   H13   S    
C1    C22   S    
C40   H17   S    
C21   C22   A    
C27   H9    S    
Cu1   O5    S    
C12   O4    A    
O10   C41   S    
C31   N2    A    
C36   C40   A    
C24   C25   A    
C16   H4    S    
C25   O9    S    
C33   N1    A    
C29   O10   S    
C25   C26   A    
C39   H16   S    
C12   O3    A    
Cu2   O6    S    
C23   O5    A    
C2    C4    A    
C41   H21   S    
C29   C30   A    
C6    H18   S    
C38   H15   S    
C19   H7    S    
C31   C32   A    
C17   C18   A    
C9    H14   S    
C41   H22   S    
C6    C7    A    
Cu2   O4    S    
C22   C24   A    
Cu1   N2    S    
C1    O1    A    
C34   O7    A    
C27   C32   A    
C36   C39   A    
C17   H5    S    
C4    C5    A    
C10   C13   A    
C18   H6    S    
Cu1   O3    S    
C2    C3    A    
C33   H8    S    
C32   N1    A    
C14   C37   A    
C28   H10   S    
C38   C39   A    
C20   C26   A    
C35   O11   S    
Cu2   O8    S    
C33   C35   A    
C41   H23   S    
C10   C11   A    
O11   H24   S    
C2    C40   A    
C20   C21   A    
C27   C28   A    
C35   N2    A    
Cu1   O1    S    
C13   C14   A    
C34   O8    A    
C13   H2    S    
Cu1   O7    S    
