data_mof_unit_2275.cif
_audit_creation_date              2012-12-10T17:08:14-0500
_audit_creation_method            fapswitch 2.2
_symmetry_space_group_name_H-M    P1
_symmetry_Int_Tables_number       1
_space_group_crystal_system       triclinic
_cell_length_a                    23.441559
_cell_length_b                    11.003953
_cell_length_c                    9.932871
_cell_angle_alpha                 110.347193
_cell_angle_beta                  97.60411
_cell_angle_gamma                 92.793044
_cell_volume                      2368.7786236

loop_
_atom_site_label
_atom_site_type_symbol
_atom_type_description
_atom_site_fract_x
_atom_site_fract_y
_atom_site_fract_z
_atom_type_partial_charge
C1    C     C_R   0.495540 0.254681 0.441297 0.826171
C2    C     C_R   0.702378 0.623053 0.519287 0.029241
C3    C     C_R   0.238785 0.383764 0.508412 0.451403
C4    C     C_R   0.761050 0.626566 0.505156 0.441628
C5    C     C_R   0.210273 0.496851 0.517471 0.032750
C6    C     C_R   0.790726 0.514354 0.491813 0.021559
C7    C     C_2   0.490239 0.115294 0.408968 -0.328879
C8    C     C_2   0.509572 0.884681 0.591010 -0.322589
C9    C     C_2   0.505165 0.068931 0.514194 -0.140104
C10   C     C_2   0.494627 0.931002 0.485754 -0.144074
C11   C     C_2   0.502590 0.517335 0.080265 0.255905
C12   C     C_R   0.504340 0.745307 0.558706 0.850163
C13   C     C_2   0.497517 0.482590 0.919820 0.255631
C14   C     C_R   0.391543 0.499199 0.501398 0.850617
C15   C     C_R   0.608457 0.500428 0.498507 0.813052
C16   C     C_R   0.889841 0.634089 0.576627 0.660719
C17   C     C_R   0.110824 0.379770 0.437631 0.647158
C18   C     C_R   0.879686 0.413098 0.539480 0.630965
C19   C     C_R   0.121186 0.601528 0.477830 0.666169
C20   C     C_R   0.937752 0.399523 0.517322 -0.065578
C21   C     C_R   0.063266 0.614536 0.501029 -0.029595
C22   C     C_R   0.971458 0.510737 0.519924 -0.085579
C23   C     C_R   0.246657 0.616425 0.573789 0.381187
C24   C     C_R   0.029526 0.503410 0.497725 -0.110385
C25   C     C_R   0.947667 0.631012 0.552442 -0.034122
C26   C     C_R   0.053261 0.383195 0.463904 -0.060345
C27   C     C_R   0.962604 0.279415 0.488436 0.101213
C28   C     C_R   0.038960 0.734563 0.530026 0.121193
C29   C     C_R   0.019703 0.271333 0.459331 0.200159
C30   C     C_R   0.981391 0.743157 0.557674 0.115493
C31   C     C_R   0.755581 0.393215 0.428177 0.420224
C32   C     C_R   0.305368 0.617608 0.555928 0.057926
C33   C     C_R   0.696408 0.386371 0.438067 0.056946
C34   C     C_R   0.329545 0.498590 0.506746 -0.202128
C35   C     C_R   0.670538 0.503112 0.493614 -0.223111
C36   C     C_R   0.297043 0.382171 0.490700 0.013888
Cl1   Cl    Cl    0.224692 0.754534 0.705064 -0.508181
Cl2   Cl    Cl    0.780613 0.254711 0.304963 -0.507429
Cl3   Cl    Cl    0.211553 0.264657 0.572757 -0.461625
Cl4   Cl    Cl    0.787099 0.751031 0.447133 -0.462795
Cu1   Cu    Cu3+1 0.509980 0.521810 0.644910 0.957158
Cu2   Cu    Cu3+1 0.490020 0.478190 0.355090 0.950112
H1    H     H_    0.549550 0.638701 0.931454 0.223326
H2    H     H_    0.053453 0.882914 0.457645 0.225353
H3    H     H_    0.019548 0.079136 0.342494 0.247210
H4    H     H_    0.043264 0.122774 0.523441 0.227974
H5    H     H_    0.980207 0.935262 0.675917 0.230522
H6    H     H_    0.957421 0.892617 0.494133 0.232611
H7    H     H_    0.358750 0.736387 0.501190 0.213991
H8    H     H_    0.317576 0.817794 0.618013 0.288199
H9    H     H_    0.619838 0.265455 0.391357 0.209902
H10   H     H_    0.678971 0.211749 0.456130 0.258781
H11   H     H_    0.357005 0.275375 0.549317 0.218182
H12   H     H_    0.450392 0.361387 0.068533 0.223452
H13   H     H_    0.340847 0.241808 0.367855 0.226181
H14   H     H_    0.641706 0.730536 0.464801 0.219064
H15   H     H_    0.656570 0.756760 0.645026 0.228116
H16   H     H_    0.488974 0.292828 0.788030 0.233855
H17   H     H_    0.432800 0.378829 0.752095 0.268390
H18   H     H_    0.511262 0.707165 0.212162 0.233569
H19   H     H_    0.567461 0.621132 0.248010 0.270710
H20   H     H_    0.474371 0.867128 0.377823 0.173676
H21   H     H_    0.525450 0.132767 0.622104 0.174746
H22   H     H_    0.527442 0.949695 0.700734 0.162473
H23   H     H_    0.472358 0.050309 0.299241 0.164380
H24   H     H_    0.892990 0.142495 0.405461 0.308916
H25   H     H_    0.920759 0.173387 0.584579 0.285090
H26   H     H_    0.075762 0.920394 0.639044 0.240311
N1    N     N_R   0.853993 0.520368 0.531156 -0.440049
N2    N     N_3   0.663829 0.259918 0.386526 -0.489514
N3    N     N_3   0.323330 0.262586 0.463956 -0.487713
N4    N     N_3   0.674880 0.741448 0.550757 -0.488633
N5    N     N_3   0.462320 0.364562 0.831393 -0.608340
N6    N     N_3   0.537856 0.635301 0.168755 -0.607531
N7    N     N_R   0.146913 0.493186 0.482606 -0.452213
N8    N     N_2   0.475010 0.445410 0.137370 -0.293144
N9    N     N_2   0.524990 0.554590 0.862630 -0.292891
N10   N     N_3   0.930702 0.162171 0.481720 -0.581565
N11   N     N_3   0.073288 0.848589 0.536052 -0.467784
N12   N     N_3   0.044665 0.150208 0.433068 -0.474432
N13   N     N_3   0.956156 0.864052 0.583724 -0.485021
N14   N     N_3   0.341743 0.737948 0.593883 -0.529473
O1    O     O_R   0.505330 0.332340 0.577400 -0.595824
O2    O     O_2   0.128212 0.266796 0.355034 -0.436553
O3    O     O_2   0.850388 0.325308 0.578090 -0.499468
O4    O     O_2   0.150003 0.691380 0.441143 -0.439526
O5    O     O_R   0.494670 0.667660 0.422600 -0.598320
O6    O     O_R   0.488470 0.295500 0.332650 -0.569343
O7    O     O_R   0.511530 0.704500 0.667350 -0.563378
O8    O     O_R   0.426310 0.518390 0.622390 -0.572610
O9    O     O_R   0.573690 0.481610 0.377610 -0.581484
O10   O     O_R   0.409450 0.481550 0.377650 -0.564857
O11   O     O_R   0.590550 0.518450 0.622350 -0.558095
O12   O     O_2   0.872082 0.746791 0.658538 -0.433333

loop_
_geom_bond_atom_site_label_1
_geom_bond_atom_site_label_2
_ccdc_geom_bond_type
C2    C35   A    
C6    N1    S    
Cu1   O7    S    
C27   C29   A    
Cu1   Cu2   S    
C27   N10   S    
C17   C26   A    
C19   C21   A    
C24   C26   A    
C11   N8    D    
Cu1   N9    S    
Cu1   O1    S    
C16   C25   A    
H6    N13   S    
Cu2   O9    S    
H18   N6    S    
C28   N11   S    
C14   O8    A    
Cu1   O11   S    
C4    Cl4   S    
H14   N4    S    
C22   C25   A    
C31   C33   A    
H9    N2    S    
C9    C10   S    
H17   N5    S    
C34   C36   A    
C36   N3    S    
C19   O4    S    
C18   N1    A    
C6    C31   A    
C3    Cl3   S    
C9    H21   S    
C10   H20   S    
H25   N10   S    
C2    N4    S    
C15   C35   S    
H24   N10   S    
C13   N9    D    
C18   O3    S    
C12   O7    A    
C4    C6    A    
C23   Cl1   S    
C32   C34   A    
H7    N14   S    
C5    N7    S    
C2    C4    A    
C15   O11   A    
Cu2   O10   S    
C7    H23   S    
C5    C23   A    
C8    C12   S    
C14   O10   A    
C33   N2    S    
C8    H22   S    
H12   N8    S    
C21   C28   A    
C20   C22   A    
C22   C24   A    
H1    N9    S    
H11   N3    S    
H8    N14   S    
C25   C30   A    
C7    C9    D    
C12   O5    A    
C1    C7    S    
Cu2   N8    S    
H2    N11   S    
C16   N1    A    
C13   N5    S    
C3    C5    A    
C11   N6    S    
C14   C34   S    
C20   C27   A    
H19   N6    S    
C1    O1    A    
C32   N14   S    
C16   O12   S    
C31   Cl2   S    
C17   O2    S    
C23   C32   A    
C30   N13   S    
C19   N7    A    
H4    N12   S    
C11   C13   S    
C29   N12   S    
C3    C36   A    
C1    O6    A    
C28   C30   A    
C33   C35   A    
Cu1   O8    S    
H3    N12   S    
C18   C20   A    
H5    N13   S    
H15   N4    S    
H10   N2    S    
C15   O9    A    
Cu2   O6    S    
C26   C29   A    
C8    C10   D    
H26   N11   S    
C21   C24   A    
C17   N7    A    
Cu2   O5    S    
H13   N3    S    
H16   N5    S    
