data_mof_unit_2283.cif
_audit_creation_date              2012-12-10T18:58:11-0500
_audit_creation_method            fapswitch 2.2
_symmetry_space_group_name_H-M    P1
_symmetry_Int_Tables_number       1
_space_group_crystal_system       triclinic
_cell_length_a                    10.64887
_cell_length_b                    10.0032
_cell_length_c                    15.792661
_cell_angle_alpha                 90.010609
_cell_angle_beta                  90.832989
_cell_angle_gamma                 89.994778
_cell_volume                      1682.10027649

loop_
_atom_site_label
_atom_site_type_symbol
_atom_type_description
_atom_site_fract_x
_atom_site_fract_y
_atom_site_fract_z
_atom_type_partial_charge
C1    C     C_R   0.871978 0.495581 0.500328 -0.083276
C2    C     C_R   0.128148 0.495933 0.498075 -0.087063
C3    C     C_R   0.260964 0.499490 0.497511 0.887181
C4    C     C_R   0.739097 0.499429 0.501359 0.893371
C5    C     C_R   0.499864 0.499950 0.339670 0.882556
C6    C     C_R   0.500193 0.499975 0.660318 0.874224
C7    C     C_R   0.390330 0.529216 0.954879 -0.172776
C8    C     C_R   0.611766 0.469111 0.045071 -0.178926
C9    C     C_R   0.390103 0.529199 0.042641 -0.153416
C10   C     C_R   0.612015 0.469227 0.957271 -0.167642
C11   C     C_R   0.501286 0.499333 0.912872 0.169324
C12   C     C_R   0.500809 0.499173 0.087076 0.168057
C13   C     C_1   0.501338 0.499616 0.823895 -0.058775
C14   C     C_1   0.500550 0.499456 0.176074 -0.055423
C15   C     C_1   0.500235 0.499761 0.251101 -0.111032
C16   C     C_1   0.500892 0.499871 0.748875 -0.113912
C17   C     C_R   0.579880 0.071871 0.551793 -0.007993
C18   C     C_R   0.419128 0.928872 0.448995 -0.009267
C19   C     C_R   0.419013 0.071757 0.449016 -0.136408
C20   C     C_R   0.579252 0.928953 0.552199 -0.014865
C21   C     C_R   0.068851 0.493578 0.577396 0.120939
C22   C     C_R   0.931187 0.488858 0.421028 0.111026
C23   C     C_R   0.937856 0.485682 0.578315 0.154565
C24   C     C_R   0.062414 0.481994 0.420144 0.106800
H1    H     H_    0.304347 0.552505 0.075716 0.142408
H2    H     H_    0.697770 0.446084 0.924114 0.137620
H3    H     H_    0.304731 0.552416 0.919882 0.142413
H4    H     H_    0.697341 0.445886 0.080084 0.139078
N1    N     N_R   0.500000 0.857200 0.500000 -0.165583
N2    N     N_R   0.500000 0.142800 0.500000 -0.168696
O1    O     O_R   0.316770 0.614620 0.499990 -0.601556
O2    O     O_R   0.683230 0.385380 0.500010 -0.619265
O3    O     O_R   0.683230 0.614620 0.500010 -0.600642
O4    O     O_R   0.316770 0.385380 0.499990 -0.612482
O5    O     O_R   0.499980 0.614630 0.378020 -0.605561
O6    O     O_R   0.500020 0.385370 0.621980 -0.597461
O7    O     O_R   0.500020 0.614630 0.621980 -0.606696
O8    O     O_R   0.499980 0.385370 0.378020 -0.627119
Zn1   Zn    Zn3+2 0.500000 0.653120 0.500000 0.998909
Zn2   Zn    Zn3+2 0.500000 0.346880 0.500000 0.970845
C25   C     C_2   0.667338 0.142816 0.608944 0.955591
O9    O     O_2   0.775446 0.161921 0.587008 -0.622345
O10   O     O_R   0.630043 0.174266 0.691045 -0.776016
H5    H     H_    0.700487 0.214079 0.726750 0.323938
C26   C     C_2   0.326127 0.859927 0.395710 0.955751
O11   O     O_2   0.349842 0.836408 0.321726 -0.642235
O12   O     O_R   0.205604 0.839475 0.427111 -0.758647
H6    H     H_    0.143315 0.809195 0.382110 0.341236
C27   C     C_2   0.327523 0.142844 0.394469 0.988691
O13   O     O_2   0.221124 0.160735 0.419838 -0.569545
O14   O     O_R   0.356894 0.177963 0.311471 -0.782088
H7    H     H_    0.445667 0.151957 0.296016 0.316537
C28   C     C_2   0.661330 0.860341 0.613350 0.951943
O15   O     O_2   0.768294 0.830804 0.593560 -0.609527
O16   O     O_R   0.621883 0.847598 0.697017 -0.784297
H8    H     H_    0.691810 0.819387 0.737319 0.335721
C29   C     C_3   0.145779 0.497399 0.660112 -0.433405
C30   C     C_3   0.189371 0.358116 0.688063 -0.792207
H9    H     H_    0.109553 0.287407 0.691952 0.263594
H10   H     H_    0.258065 0.316076 0.643512 0.297157
H11   H     H_    0.235341 0.364930 0.751477 0.241195
H12   H     H_    0.228621 0.563744 0.654021 0.211704
H13   H     H_    0.091877 0.543201 0.712072 0.223587
C31   C     C_3   0.853767 0.486878 0.338514 -0.425528
C32   C     C_3   0.811122 0.345666 0.314045 -0.808435
H14   H     H_    0.891575 0.275540 0.311583 0.268211
H15   H     H_    0.742950 0.305676 0.359679 0.290281
H16   H     H_    0.764708 0.348325 0.250646 0.234082
H17   H     H_    0.770468 0.552912 0.343292 0.201667
H18   H     H_    0.906836 0.529670 0.285257 0.220354
C33   C     C_3   0.869191 0.456385 0.660685 -0.408647
C34   C     C_3   0.829484 0.582361 0.706627 -0.868779
H19   H     H_    0.903031 0.660871 0.704744 0.288204
H20   H     H_    0.742403 0.619223 0.676272 0.286290
H21   H     H_    0.808580 0.558709 0.773672 0.238033
H22   H     H_    0.784221 0.395703 0.648558 0.226918
H23   H     H_    0.926499 0.393921 0.704168 0.223575
C35   C     C_3   0.131391 0.448540 0.338357 -0.376039
C36   C     C_3   0.169949 0.571638 0.288914 -0.874946
H24   H     H_    0.091312 0.643412 0.281193 0.257137
H25   H     H_    0.249186 0.619467 0.322653 0.294734
H26   H     H_    0.202501 0.541481 0.225241 0.257874
H27   H     H_    0.217217 0.389902 0.351728 0.257203
H28   H     H_    0.074645 0.382682 0.296580 0.237997

loop_
_geom_bond_atom_site_label_1
_geom_bond_atom_site_label_2
_ccdc_geom_bond_type
O16   H8    S    
C25   O9    D    
C9    H1    S    
C29   H12   S    
C26   O11   D    
C7    C11   A    
O3    Zn1   S    
O4    Zn2   S    
C33   H22   S    
C30   H10   S    
C17   C20   A    
C7    H3    S    
C18   C19   A    
C27   O13   D    
C35   H27   S    
C6    O6    A    
C32   H15   S    
C31   H18   S    
C10   H2    S    
C30   H11   S    
C26   O12   S    
C1    C22   A    
C5    O8    A    
C17   N2    A    
C25   O10   S    
C34   H21   S    
C29   H13   S    
C20   N1    A    
C28   O16   S    
O14   H7    S    
C23   C33   S    
O6    Zn2   S    
C34   H20   S    
C36   H25   S    
C35   C36   S    
C34   H19   S    
C3    O4    A    
C27   O14   S    
C30   H9    S    
C28   O15   D    
C6    C16   S    
O5    Zn1   S    
O10   H5    S    
C21   C29   S    
C19   C27   S    
O12   H6    S    
C8    C12   A    
C32   H16   S    
N1    Zn1   S    
C2    C21   A    
C6    O7    A    
N2    Zn2   S    
C18   N1    A    
C31   H17   S    
C3    O1    A    
C4    O2    A    
C24   C35   S    
C12   C14   S    
C1    C23   A    
C21   C23   A    
C2    C24   A    
C8    H4    S    
C22   C24   A    
C18   C26   S    
C33   H23   S    
C7    C9    A    
C4    O3    A    
C20   C28   S    
C36   H26   S    
C1    C4    S    
C31   C32   S    
C2    C3    S    
C33   C34   S    
O7    Zn1   S    
O8    Zn2   S    
C11   C13   S    
C29   C30   S    
C5    O5    A    
O1    Zn1   S    
O2    Zn2   S    
C9    C12   A    
C17   C25   S    
C5    C15   S    
C10   C11   A    
C22   C31   S    
C36   H24   S    
C35   H28   S    
C8    C10   A    
C32   H14   S    
C13   C16   T    
C14   C15   T    
C19   N2    A    
