data_mof_unit_2513.cif
_audit_creation_date              2013-03-05T16:23:21-0500
_audit_creation_method            fapswitch 2.2
_symmetry_space_group_name_H-M    P1
_symmetry_Int_Tables_number       1
_space_group_crystal_system       triclinic
_cell_length_a                    27.68705
_cell_length_b                    10.472722
_cell_length_c                    9.747413
_cell_angle_alpha                 90.652136
_cell_angle_beta                  89.403066
_cell_angle_gamma                 89.741758
_cell_volume                      2825.98126386

loop_
_atom_site_label
_atom_site_type_symbol
_atom_site_description
_atom_site_fract_x
_atom_site_fract_y
_atom_site_fract_z
_atom_type_partial_charge
O1    O     O_R   0.500000 0.313960 0.616610 -0.601341
O2    O     O_R   0.500000 0.686040 0.383390 -0.601360
O3    O     O_R   0.500020 0.313950 0.383350 -0.636049
O4    O     O_R   0.499980 0.686050 0.616650 -0.636049
C1    C     C_R   0.500852 0.257616 0.499112 0.938039
C2    C     C_R   0.499148 0.742383 0.500888 0.938050
O5    O     O_R   0.428750 0.500030 0.616610 -0.623030
O6    O     O_R   0.571250 0.499970 0.383390 -0.623043
O7    O     O_R   0.428770 0.500020 0.383360 -0.626584
O8    O     O_R   0.571230 0.499980 0.616640 -0.626583
C3    C     C_R   0.406124 0.497804 0.500783 0.876229
C4    C     C_R   0.593876 0.502201 0.499217 0.876238
Zn1   Zn    Zn3+2 0.499990 0.500010 0.655740 0.953508
Zn2   Zn    Zn3+2 0.500010 0.499990 0.344260 0.953487
C5    C     C_R   0.177174 0.372675 0.452775 0.519376
C6    C     C_R   0.822824 0.627425 0.547209 0.519382
O9    O     O_2   0.202077 0.278331 0.388060 -0.530228
O10   O     O_2   0.797921 0.721772 0.611919 -0.530236
N1    N     N_R   0.201817 0.467839 0.517904 -0.356740
N2    N     N_R   0.798182 0.532257 0.482086 -0.356738
C7    C     C_R   0.178651 0.565150 0.585854 0.504812
C8    C     C_R   0.821348 0.434944 0.414139 0.504809
C9    C     C_R   0.276827 0.497188 0.388189 -0.104902
C10   C     C_R   0.723173 0.502924 0.611816 -0.104908
C11   C     C_R   0.326885 0.506538 0.383969 -0.230720
C12   C     C_R   0.673115 0.493545 0.616037 -0.230702
C13   C     C_R   0.329699 0.457008 0.626793 -0.205043
C14   C     C_R   0.670298 0.543004 0.373196 -0.204949
C15   C     C_R   0.279746 0.447068 0.630487 -0.122216
C16   C     C_R   0.720250 0.552974 0.369501 -0.122135
C17   C     C_R   0.253272 0.468354 0.511624 0.313217
C18   C     C_R   0.746726 0.531736 0.488370 0.313184
C19   C     C_R   0.101699 0.477659 0.516321 -0.112765
C20   C     C_R   0.898300 0.522440 0.483666 -0.112767
C21   C     C_R   0.126316 0.374222 0.452080 -0.162498
C22   C     C_R   0.873682 0.625877 0.547905 -0.162497
C23   C     C_R   0.099456 0.276709 0.388544 0.548726
C24   C     C_R   0.900542 0.723392 0.611440 0.548714
C25   C     C_R   0.128310 0.571778 0.586565 0.018664
C26   C     C_R   0.871689 0.428320 0.413424 0.018669
C27   C     C_R   0.353563 0.487871 0.503724 -0.027870
C28   C     C_R   0.646436 0.512160 0.496274 -0.027843
H1    H     H_    0.349556 0.440383 0.720125 0.160444
H2    H     H_    0.650441 0.559589 0.279857 0.160379
H3    H     H_    0.261470 0.424591 0.725913 0.144564
H4    H     H_    0.738524 0.575432 0.274067 0.144547
C29   C     C_R   0.973356 0.407207 0.424928 0.103473
C30   C     C_R   0.026643 0.592893 0.575058 0.103470
C31   C     C_R   0.975777 0.605677 0.564000 -0.036989
C32   C     C_R   0.024222 0.394423 0.435986 -0.036992
C33   C     C_R   0.949370 0.512082 0.490459 0.071746
C34   C     C_R   0.050629 0.488018 0.509527 0.071746
C35   C     C_R   0.945356 0.318575 0.349715 -0.229137
C36   C     C_R   0.054642 0.681525 0.650271 -0.229134
C37   C     C_R   0.895599 0.328690 0.345123 -0.165998
C38   C     C_R   0.104400 0.671408 0.654865 -0.165995
O11   O     O_2   0.795540 0.343395 0.349844 -0.573768
O12   O     O_2   0.204459 0.656694 0.650156 -0.573770
C39   C     C_R   0.049666 0.289493 0.377581 -0.296985
C40   C     C_R   0.950332 0.710607 0.622404 -0.296988
H5    H     H_    0.655429 0.470137 0.712097 0.156201
H6    H     H_    0.344573 0.529966 0.287917 0.156196
H7    H     H_    0.743791 0.485724 0.703639 0.144070
H8    H     H_    0.256210 0.514426 0.296371 0.144058
H9    H     H_    0.875857 0.256708 0.288272 0.189148
H10   H     H_    0.124142 0.743390 0.711717 0.189148
H11   H     H_    0.960347 0.239073 0.292777 0.146131
H12   H     H_    0.039652 0.761028 0.707207 0.146132
H13   H     H_    0.032225 0.213148 0.323086 0.169034
H14   H     H_    0.967773 0.786952 0.676899 0.169028
C41   C     C_3   0.537378 0.041371 0.577874 -0.328671
C42   C     C_3   0.462621 0.958627 0.422124 -0.328860
C43   C     C_3   0.541060 0.955178 0.449507 0.561329
C44   C     C_3   0.458938 0.044821 0.550493 0.561320
H15   H     H_    0.567795 0.080150 0.638613 0.153742
H16   H     H_    0.432208 0.919841 0.361369 0.153681
C45   C     C_3   0.498736 0.877355 0.502677 -0.103817
C46   C     C_3   0.501263 0.122644 0.497322 -0.103823
C47   C     C_3   0.494211 0.962275 0.632216 -0.291981
C48   C     C_3   0.505788 0.037724 0.367782 -0.292151
H17   H     H_    0.488770 0.927203 0.738300 0.153653
H18   H     H_    0.511223 0.072802 0.261699 0.153607
C49   C     C_3   0.499131 0.384747 0.047175 -0.072344
C50   C     C_3   0.500869 0.615253 0.952825 -0.072344
C51   C     C_3   0.537298 0.439917 0.949418 -0.078903
C52   C     C_3   0.462701 0.560083 0.050581 -0.078898
H19   H     H_    0.568657 0.389294 0.901728 0.118654
H20   H     H_    0.431343 0.610706 0.098272 0.118656
H21   H     H_    0.498403 0.287673 0.091725 0.121818
H22   H     H_    0.501597 0.712327 0.908275 0.121824
N3    N     N_3   0.499960 0.500030 0.863290 -0.076997
N4    N     N_3   0.500040 0.499970 0.136710 -0.076997
C53   C     C_3   0.461791 0.444867 0.951869 -0.062969
C54   C     C_3   0.538209 0.555133 0.048131 -0.062989
H23   H     H_    0.429668 0.398401 0.906236 0.127336
H24   H     H_    0.570332 0.601599 0.093764 0.127310
O13   O     O_3   0.121447 0.170586 0.328787 -0.577279
C55   C     C_3   0.126397 0.073377 0.427717 0.187497
H25   H     H_    0.131488 0.110415 0.534478 0.118442
H26   H     H_    0.159503 0.017709 0.401256 0.196258
C56   C     C_3   0.083605 0.982143 0.423520 -0.924853
H27   H     H_    0.076948 0.950127 0.316401 0.277556
H28   H     H_    0.091561 0.897322 0.486640 0.238082
H29   H     H_    0.050640 0.029375 0.465844 0.241717
O14   O     O_3   0.878551 0.829518 0.671189 -0.577273
C57   C     C_3   0.873603 0.926724 0.572253 0.187487
H30   H     H_    0.840490 0.982374 0.598687 0.196267
H31   H     H_    0.868526 0.889683 0.465487 0.118422
C58   C     C_3   0.916388 0.017979 0.576485 -0.924786
H32   H     H_    0.949363 0.970753 0.534220 0.241716
H33   H     H_    0.908436 0.102780 0.513329 0.238068
H34   H     H_    0.923025 0.050026 0.683605 0.277548
O15   O     O_3   0.583089 0.893615 0.398662 -0.612807
C59   C     C_3   0.616754 0.985863 0.355988 0.089284
H35   H     H_    0.626536 0.050859 0.442431 0.141181
H36   H     H_    0.602166 0.042931 0.269970 0.135473
C60   C     C_3   0.662494 0.918273 0.305910 -0.776802
H37   H     H_    0.654101 0.853412 0.218472 0.246249
H38   H     H_    0.689424 0.989742 0.271647 0.217348
H39   H     H_    0.678208 0.861409 0.390167 0.267491
O16   O     O_3   0.416917 0.106381 0.601391 -0.612818
C61   C     C_3   0.383192 0.014122 0.643654 0.089311
H40   H     H_    0.397748 0.956591 0.729364 0.135429
H41   H     H_    0.373352 0.949560 0.556895 0.141284
C62   C     C_3   0.337506 0.081735 0.694105 -0.776858
H42   H     H_    0.321838 0.139105 0.610173 0.267479
H43   H     H_    0.310517 0.010253 0.727963 0.217398
H44   H     H_    0.345952 0.146123 0.781902 0.246233

loop_
_geom_bond_atom_site_label_1
_geom_bond_atom_site_label_2
_geom_bond_distance
_ccdc_geom_bond_type
C41   H15   1.110281 S    
C56   H27   1.110496 S    
C13   C15   1.387572 A    
C42   H16   1.110287 S    
N1    C17   1.425376 S    
C8    O11   1.350700 S    
C41   C47   1.549475 S    
C59   H35   1.113565 S    
C51   N3    1.481253 S    
C19   C34   1.419930 A    
O5    C3    1.296894 A    
C49   N4    1.481613 S    
C20   C33   1.419930 A    
C19   C25   1.408878 A    
C31   C40   1.413650 A    
O1    C1    1.282333 A    
C32   C39   1.413650 A    
C21   C23   1.407684 A    
C12   H5    1.083207 S    
C10   C12   1.390094 A    
C30   C34   1.422673 A    
C58   H33   1.108910 S    
C46   C48   1.539850 S    
C36   H12   1.074745 S    
C57   H30   1.110597 S    
C49   C53   1.534831 S    
C43   O15   1.410437 S    
C5    C21   1.408222 A    
O4    Zn1   1.989503 S    
C4    C28   1.459446 S    
C5    N1    1.364745 A    
C14   C16   1.387572 A    
C31   C33   1.417945 A    
C62   H44   1.110956 S    
C32   C34   1.417944 A    
C50   N3    1.481613 S    
C20   C22   1.413907 A    
C6    N2    1.364747 A    
C29   C35   1.415234 A    
C45   C47   1.539837 S    
C56   H28   1.108903 S    
Zn1   N3    2.023064 S    
O2    C2    1.282332 A    
C50   H22   1.110215 S    
C35   H11   1.074745 S    
C23   O13   1.384548 S    
C37   H9    1.083815 S    
O13   C55   1.417369 S    
C29   C32   1.419410 A    
C35   C37   1.382455 A    
C49   H21   1.110215 S    
C36   C38   1.382460 A    
C51   H19   1.110323 S    
C42   C44   1.536777 S    
C60   H39   1.111161 S    
C11   C27   1.402942 A    
C47   H17   1.110290 S    
C2    C45   1.413421 S    
C29   C33   1.422672 A    
C48   H18   1.110287 S    
C14   H2    1.083210 S    
C42   C48   1.549477 S    
C15   H3    1.083005 S    
C9    C17   1.399222 A    
C30   C36   1.415236 A    
O7    Zn2   2.005002 S    
C10   C18   1.399224 A    
C42   C45   1.537752 S    
C52   C53   1.535172 S    
N3    C53   1.481169 S    
C51   C54   1.535171 S    
C13   C27   1.405092 A    
C25   C38   1.392457 A    
C7    C25   1.395144 A    
C40   H14   1.074130 S    
O6    C4    1.296890 A    
C26   C37   1.392458 A    
C8    C26   1.395140 A    
N4    C54   1.481168 S    
C50   C54   1.534831 S    
C54   H24   1.110370 S    
O7    C3    1.299809 A    
Zn2   N4    2.023065 S    
O16   C61   1.408662 S    
C23   C39   1.389760 A    
O3    Zn2   1.989505 S    
O8    C4    1.299811 A    
C39   H13   1.074132 S    
C24   C40   1.389765 A    
O4    C2    1.279613 A    
C9    H8    1.082960 S    
C49   C51   1.534776 S    
N2    C8    1.363290 A    
C56   H29   1.109655 S    
C55   H26   1.110594 S    
C44   C47   1.536200 S    
C62   H42   1.111188 S    
C20   C26   1.408875 A    
C58   H34   1.110500 S    
O1    Zn1   1.981165 S    
C61   H41   1.113553 S    
C12   C28   1.402942 A    
C41   C43   1.536756 S    
O15   C59   1.408650 S    
N2    C18   1.425381 S    
C5    O9    1.349124 S    
C30   C31   1.419410 A    
O6    Zn2   2.012865 S    
C14   C28   1.405095 A    
N1    C7    1.363285 A    
C16   H4    1.082999 S    
C50   C52   1.534776 S    
O3    C1    1.279614 A    
O8    Zn1   2.005005 S    
C59   H36   1.113377 S    
C10   H7    1.082952 S    
C55   C56   1.525992 S    
O14   C57   1.417372 S    
C24   O14   1.384548 S    
C60   H38   1.110501 S    
C61   H40   1.113412 S    
C7    O12   1.350698 S    
C15   C17   1.396927 A    
C52   N4    1.481255 S    
C58   H32   1.109653 S    
C6    C22   1.408227 A    
C16   C18   1.396928 A    
C53   H23   1.110369 S    
C57   H31   1.116979 S    
C61   C62   1.521263 S    
C38   H10   1.083814 S    
C22   C24   1.407684 A    
C19   C21   1.413907 A    
C43   C48   1.536214 S    
C3    C27   1.459439 S    
C52   H20   1.110323 S    
C11   H6    1.083214 S    
C9    C11   1.390087 A    
O2    Zn2   1.981163 S    
C59   C60   1.521279 S    
C13   H1    1.083216 S    
O5    Zn1   2.012859 S    
C44   O16   1.410430 S    
C6    O10   1.349124 S    
C55   H25   1.116977 S    
C44   C46   1.520418 S    
C62   H43   1.110524 S    
C43   C45   1.520407 S    
C1    C46   1.413427 S    
C60   H37   1.110941 S    
C41   C46   1.537747 S    
C57   C58   1.525986 S    
