data_mof_unit_3724.cif
_audit_creation_date              2012-12-10T17:43:17-0500
_audit_creation_method            fapswitch 2.2
_symmetry_space_group_name_H-M    P1
_symmetry_Int_Tables_number       1
_space_group_crystal_system       triclinic
_cell_length_a                    15.004946
_cell_length_b                    13.720095
_cell_length_c                    10.663238
_cell_angle_alpha                 89.491699
_cell_angle_beta                  90.146429
_cell_angle_gamma                 90.061219
_cell_volume                      2195.13842301

loop_
_atom_site_label
_atom_site_type_symbol
_atom_type_description
_atom_site_fract_x
_atom_site_fract_y
_atom_site_fract_z
_atom_type_partial_charge
C1    C     C_R   0.328834 0.500051 0.499667 0.793930
C2    C     C_R   0.671082 0.500035 0.500513 0.803136
C3    C     C_R   0.953160 0.502087 0.500173 -0.043845
C4    C     C_R   0.046539 0.503097 0.498317 -0.021035
C5    C     C_R   0.905861 0.463735 0.396447 0.102038
C6    C     C_R   0.093977 0.540678 0.602603 0.032453
C7    C     C_R   0.953969 0.573266 0.712018 0.452300
C8    C     C_R   0.045357 0.436037 0.283819 0.403170
C9    C     C_R   0.047795 0.576530 0.708210 0.047246
C10   C     C_R   0.951230 0.430984 0.289209 0.021709
C11   C     C_R   0.453852 0.792568 0.589776 0.054733
C12   C     C_R   0.546537 0.207692 0.410346 0.037581
C13   C     C_R   0.546298 0.793602 0.410100 0.038268
C14   C     C_R   0.453894 0.206107 0.589818 0.075505
C15   C     C_R   0.547597 0.896896 0.406870 -0.089741
C16   C     C_R   0.453081 0.102904 0.592821 -0.001334
C17   C     C_R   0.453045 0.895709 0.592778 0.002302
C18   C     C_R   0.547774 0.104443 0.407058 -0.089086
C19   C     C_R   0.500352 0.948215 0.499822 0.007036
C20   C     C_R   0.500387 0.051763 0.499863 0.004817
C21   C     C_R   0.594725 0.949968 0.313552 0.167380
C22   C     C_R   0.406322 0.050390 0.686377 0.102137
C23   C     C_R   0.406296 0.946819 0.686350 0.099054
C24   C     C_R   0.594928 0.052735 0.313761 0.169951
C25   C     C_R   0.500450 0.500411 0.259617 0.816276
C26   C     C_R   0.500966 0.499563 0.740370 0.833168
C27   C     C_3   0.485810 0.589721 0.038056 0.151271
C28   C     C_3   0.517205 0.410167 0.961886 0.191554
C29   C     C_3   0.564780 0.558498 0.957897 0.174805
C30   C     C_3   0.438364 0.441222 0.042029 0.151072
C31   C     C_3   0.420109 0.530653 0.956370 -0.335375
C32   C     C_3   0.582824 0.469071 0.043677 -0.277888
C33   C     C_3   0.501028 0.498808 0.876160 -0.068779
C34   C     C_3   0.501959 0.501012 0.123804 -0.076122
C35   C     C_R   0.812692 0.460861 0.400322 -0.169330
C36   C     C_R   0.187311 0.540860 0.599676 -0.200871
C37   C     C_R   0.767333 0.500068 0.501076 -0.106549
C38   C     C_R   0.232409 0.500743 0.499190 -0.072625
C39   C     C_R   0.813013 0.539829 0.601892 -0.123229
C40   C     C_R   0.186384 0.463776 0.396953 -0.122576
C41   C     C_R   0.906540 0.538602 0.605933 -0.046466
C42   C     C_R   0.092919 0.467366 0.391844 -0.008272
Cu1   Cu    Cu3+1 0.500000 0.597420 0.500000 0.955822
Cu2   Cu    Cu3+1 0.500000 0.402580 0.500000 0.962734
H1    H     H_    0.354247 0.555300 0.920631 0.147564
H2    H     H_    0.648663 0.444377 0.079455 0.166045
H3    H     H_    0.774140 0.431214 0.323417 0.158994
H4    H     H_    0.226488 0.569514 0.676385 0.117131
H5    H     H_    0.773766 0.570554 0.676477 0.217188
H6    H     H_    0.225306 0.433121 0.322176 0.194087
H7    H     H_    0.417598 0.750481 0.659116 0.159907
H8    H     H_    0.582643 0.250337 0.341590 0.129320
H9    H     H_    0.582161 0.751924 0.341152 0.142609
H10   H     H_    0.417731 0.247205 0.659204 0.175454
N1    N     N_R   0.500000 0.743810 0.500000 -0.196824
N2    N     N_R   0.500000 0.256190 0.500000 -0.198176
O1    O     O_R   0.370260 0.582280 0.500030 -0.577685
O2    O     O_R   0.629740 0.417720 0.499970 -0.580967
O3    O     O_R   0.629740 0.582280 0.499970 -0.574531
O4    O     O_R   0.370260 0.417720 0.500030 -0.576874
O5    O     O_R   0.499980 0.582260 0.316850 -0.577486
O6    O     O_R   0.500020 0.417740 0.683150 -0.578259
O7    O     O_R   0.500020 0.582260 0.683150 -0.599026
O8    O     O_R   0.499980 0.417740 0.316850 -0.583109
N3    N     N_3   0.471086 0.688940 0.080747 -0.592584
H11   H     H_    0.462481 0.732800 0.001020 0.217531
H12   H     H_    0.410486 0.689457 0.128803 0.241740
N4    N     N_3   0.531723 0.310989 0.918956 -0.555611
H13   H     H_    0.539291 0.266870 0.998618 0.222666
H14   H     H_    0.592724 0.310175 0.871922 0.231803
N5    N     N_3   0.633514 0.623733 0.909797 -0.530757
H15   H     H_    0.664686 0.655330 0.987197 0.237264
H16   H     H_    0.601698 0.680097 0.860749 0.226687
N6    N     N_3   0.371861 0.373590 0.090619 -0.537914
H17   H     H_    0.331375 0.353099 0.015449 0.252692
H18   H     H_    0.331991 0.412141 0.152953 0.240861
S1    S     S_3+6 0.895999 0.610228 0.850436 0.014498
O9    O     O_2   0.832839 0.530609 0.890019 -0.318989
O10   O     O_2   0.957510 0.631387 0.958344 -0.222027
O11   O     O_3   0.837238 0.711380 0.816136 -0.543104
H19   H     H_    0.810029 0.731001 0.896566 0.373879
S2    S     S_3+6 0.104267 0.407753 0.142516 -0.020509
O12   O     O_2   0.156904 0.315875 0.163592 -0.310840
O13   O     O_2   0.044911 0.394227 0.030353 -0.272472
O14   O     O_3   0.174796 0.500037 0.110567 -0.558015
H20   H     H_    0.204638 0.481438 0.031623 0.351353
N7    N     N_3   0.095736 0.616907 0.812184 -0.473693
H21   H     H_    0.137645 0.563481 0.850198 0.239068
H22   H     H_    0.133701 0.676136 0.780641 0.218574
N8    N     N_3   0.899743 0.393091 0.186997 -0.575528
H23   H     H_    0.923322 0.323992 0.163448 0.274826
H24   H     H_    0.903367 0.441336 0.110905 0.318769
N9    N     N_3   0.643073 0.901171 0.216629 -0.543818
H25   H     H_    0.598736 0.857491 0.166259 0.220418
H26   H     H_    0.691654 0.856865 0.258305 0.220723
N10   N     N_3   0.359232 0.102740 0.781486 -0.598537
H27   H     H_    0.385005 0.082969 0.869212 0.236389
H28   H     H_    0.291915 0.083362 0.777916 0.237844
N11   N     N_3   0.359150 0.893040 0.781404 -0.627698
H29   H     H_    0.384869 0.911646 0.869166 0.225375
H30   H     H_    0.291831 0.912295 0.777754 0.235555
N12   N     N_3   0.643716 0.102950 0.217277 -0.542228
H31   H     H_    0.599639 0.147453 0.166850 0.204868
H32   H     H_    0.692300 0.146557 0.259368 0.217255

loop_
_geom_bond_atom_site_label_1
_geom_bond_atom_site_label_2
_ccdc_geom_bond_type
C14   N2    A    
N7    H21   S    
N9    H25   S    
C27   C29   S    
C23   N11   S    
C19   C20   A    
Cu1   Cu2   S    
C35   H3    S    
C4    C42   A    
C6    C9    A    
Cu1   O7    S    
C39   C41   A    
O14   H20   S    
Cu2   O8    S    
C15   C19   A    
C17   C23   A    
N6    H18   S    
C8    S2    S    
C28   N4    S    
C8    C42   A    
C29   C32   S    
C30   C31   S    
C30   N6    S    
C29   C33   S    
C11   C17   A    
Cu2   O2    S    
N4    H13   S    
N3    H12   S    
N10   H28   S    
C31   C33   S    
C18   C24   A    
C24   N12   S    
Cu1   O3    S    
C25   C34   S    
C7    S1    S    
C40   C42   A    
N9    H26   S    
C32   H2    S    
C12   H8    S    
C13   H9    S    
S1    O10   D    
C27   C34   S    
N6    H17   S    
C30   C34   S    
C27   C31   S    
C28   C32   S    
C4    C6    A    
C1    O4    A    
N5    H16   S    
C2    O3    A    
Cu2   O6    S    
S1    O9    D    
C25   O8    A    
C32   C34   S    
C26   O7    A    
C27   N3    S    
C1    O1    A    
Cu2   N2    S    
C26   C33   S    
N8    H24   S    
N11   H29   S    
C13   C15   A    
C15   C21   A    
C16   C20   A    
N10   H27   S    
C25   O5    A    
N12   H32   S    
C12   N2    A    
C1    C38   S    
Cu1   N1    S    
C39   H5    S    
C28   C33   S    
N3    H11   S    
S2    O13   D    
N7    H22   S    
C14   C16   A    
C3    C4    A    
C11   N1    A    
Cu1   O5    S    
S1    O11   S    
C35   C37   A    
C7    C9    A    
C3    C41   A    
C16   C22   A    
C14   H10   S    
C22   N10   S    
O11   H19   S    
C3    C5    A    
C2    O2    A    
S2    O14   S    
C28   C30   S    
C26   O6    A    
C5    C10   A    
C37   C39   A    
C9    N7    S    
C38   C40   A    
C2    C37   S    
N8    H23   S    
C21   N9    S    
Cu2   O4    S    
C40   H6    S    
C5    C35   A    
C36   C38   A    
C17   C19   A    
C6    C36   A    
C36   H4    S    
C18   C20   A    
C7    C41   A    
N12   H31   S    
C11   H7    S    
Cu1   O1    S    
N5    H15   S    
C10   N8    S    
C8    C10   A    
S2    O12   D    
C31   H1    S    
C21   C24   A    
C12   C18   A    
N4    H14   S    
C22   C23   A    
C29   N5    S    
N11   H30   S    
C13   N1    A    
