data_mof_unit_3545.cif
_audit_creation_date              2012-12-10T17:23:45-0500
_audit_creation_method            fapswitch 2.2
_symmetry_space_group_name_H-M    P1
_symmetry_Int_Tables_number       1
_space_group_crystal_system       triclinic
_cell_length_a                    9.589917
_cell_length_b                    10.831315
_cell_length_c                    17.289424
_cell_angle_alpha                 92.154384
_cell_angle_beta                  86.815137
_cell_angle_gamma                 91.805305
_cell_volume                      1791.05683112

loop_
_atom_site_label
_atom_site_type_symbol
_atom_type_description
_atom_site_fract_x
_atom_site_fract_y
_atom_site_fract_z
_atom_type_partial_charge
C1    C     C_R   0.502426 0.737477 0.495004 0.905645
C2    C     C_R   0.351824 0.529488 0.777799 -0.189462
C3    C     C_R   0.404689 0.430771 0.146782 0.469249
C4    C     C_R   0.401269 0.447077 0.227172 -0.187170
C5    C     C_R   0.651811 0.486860 0.222921 -0.199570
C6    C     C_R   0.656394 0.472708 0.142616 -0.193340
C7    C     C_R   0.533396 0.448430 0.104078 0.018789
C8    C     C_2   0.467884 0.524737 0.981219 -0.126930
C9    C     C_2   0.543354 0.447701 0.019496 -0.138257
C10   C     C_R   0.523702 0.476882 0.265558 -0.107289
C11   C     C_R   0.298995 0.881713 0.409867 0.450697
C12   C     C_R   0.482930 0.502086 0.649948 0.821878
C13   C     C_R   0.164352 0.927351 0.410065 -0.195581
C14   C     C_R   0.129781 0.031395 0.455392 -0.213553
C15   C     C_R   0.233615 0.099074 0.492999 -0.113451
C16   C     C_R   0.371844 0.056742 0.490610 -0.013081
C17   C     C_R   0.394914 0.935500 0.461976 -0.022769
C18   C     C_R   0.507087 0.872395 0.490633 -0.112036
C19   C     C_R   0.608032 0.938154 0.532472 -0.284600
C20   C     C_R   0.600046 0.065454 0.546098 0.333219
C21   C     C_R   0.486831 0.127831 0.518267 -0.183209
C22   C     C_R   0.862122 0.341047 0.393818 -0.180370
C23   C     C_R   0.496327 0.262806 0.507940 0.826331
C24   C     C_R   0.937565 0.263995 0.342244 -0.219648
C25   C     C_R   0.080963 0.263235 0.343403 -0.141336
C26   C     C_R   0.149797 0.340013 0.395737 -0.167605
C27   C     C_R   0.077563 0.421915 0.448228 0.224621
C28   C     C_R   0.928056 0.422375 0.447735 0.257746
C29   C     C_R   0.923775 0.574431 0.549269 -0.029116
C30   C     C_R   0.071748 0.574561 0.549147 -0.035601
C31   C     C_R   0.517105 0.493038 0.350144 0.881870
C32   C     C_R   0.477715 0.508291 0.734720 -0.030923
C33   C     C_R   0.601480 0.496723 0.773239 -0.116127
C34   C     C_R   0.599263 0.504061 0.853476 -0.144997
C35   C     C_R   0.473135 0.522785 0.896515 0.150731
C36   C     C_R   0.349944 0.537690 0.858488 -0.092968
Cu1   Cu    Cu3+1 0.359340 0.500010 0.500010 0.981498
Cu2   Cu    Cu3+1 0.640660 0.499990 0.499990 0.997530
H1    H     H_    0.700448 0.481743 0.741501 0.182177
H2    H     H_    0.755666 0.484437 0.110208 0.182556
H3    H     H_    0.690034 0.889057 0.557723 0.193212
H4    H     H_    0.088105 0.885728 0.372348 0.186339
H5    H     H_    0.024794 0.064334 0.456555 0.173267
H6    H     H_    0.202161 0.180341 0.526756 0.200814
H7    H     H_    0.866571 0.635422 0.589645 0.133609
H8    H     H_    0.752546 0.329569 0.389934 0.193362
H9    H     H_    0.883856 0.202518 0.302135 0.173718
H10   H     H_    0.302456 0.435672 0.259805 0.209370
H11   H     H_    0.139523 0.200556 0.304688 0.206466
H12   H     H_    0.259410 0.329229 0.393521 0.191017
H13   H     H_    0.125132 0.635743 0.589440 0.138440
H14   H     H_    0.747988 0.507783 0.251394 0.191437
H15   H     H_    0.617613 0.386930 0.989046 0.164421
H16   H     H_    0.252053 0.552941 0.891308 0.165698
H17   H     H_    0.255403 0.540170 0.749288 0.159988
H18   H     H_    0.395119 0.585632 0.012777 0.195235
H19   H     H_    0.696370 0.495884 0.881719 0.141414
N1    N     N_R   0.852190 0.498790 0.499250 -0.188838
N2    N     N_R   0.148060 0.498710 0.499220 -0.201011
O1    O     O_R   0.381190 0.680360 0.500010 -0.580249
O2    O     O_R   0.618760 0.680340 0.500000 -0.585435
O3    O     O_R   0.367440 0.500030 0.613600 -0.594024
O4    O     O_R   0.605010 0.500010 0.613590 -0.563510
O5    O     O_R   0.381240 0.319660 0.500000 -0.630357
O6    O     O_R   0.618810 0.319640 0.499990 -0.565849
O7    O     O_R   0.394990 0.499990 0.386410 -0.557259
O8    O     O_R   0.632560 0.499970 0.386400 -0.609276
S1    S     S_3+6 0.354614 0.794272 0.326471 -0.003305
O9    O     O_2   0.265662 0.678148 0.320710 -0.280651
O10   O     O_2   0.332674 0.869504 0.257051 -0.280219
O11   O     O_3   0.524891 0.761913 0.326971 -0.576315
H20   H     H_    0.556618 0.751456 0.271681 0.375585
S2    S     S_3+6 0.716658 0.138304 0.611214 0.033930
O12   O     O_2   0.640533 0.233526 0.661307 -0.266529
O13   O     O_2   0.772780 0.044237 0.662196 -0.263303
O14   O     O_3   0.851607 0.207736 0.562473 -0.502706
H21   H     H_    0.846812 0.174312 0.508714 0.314126
S3    S     S_3+6 0.247167 0.384669 0.103199 -0.000009
O15   O     O_2   0.172011 0.497860 0.083096 -0.305878
O16   O     O_2   0.276809 0.306100 0.030987 -0.261140
O17   O     O_3   0.144053 0.303127 0.165714 -0.550961
H22   H     H_    0.053081 0.293418 0.141355 0.379827

loop_
_geom_bond_atom_site_label_1
_geom_bond_atom_site_label_2
_ccdc_geom_bond_type
C8    C9    D    
C31   O7    A    
C30   H13   S    
C16   C21   A    
S2    O12   D    
C35   C36   A    
C8    H18   S    
O17   H22   S    
C31   O8    A    
C26   C27   A    
Cu1   Cu2   S    
C29   N1    A    
C15   H6    S    
C34   C35   A    
C3    C7    A    
C2    H17   S    
C26   H12   S    
C5    C6    A    
S3    O16   D    
C15   C16   A    
C2    C32   A    
C18   C19   A    
Cu2   N1    S    
C10   C31   S    
C19   C20   A    
C16   C17   A    
C34   H19   S    
C5    H14   S    
Cu2   O2    S    
C24   C25   A    
C22   C28   A    
C13   C14   A    
C12   C32   S    
S2    O13   D    
C13   H4    S    
C33   C34   A    
O14   H21   S    
C1    O1    A    
C12   O4    A    
S3    O15   D    
S1    O9    D    
C25   C26   A    
C29   H7    S    
C8    C35   S    
C29   C30   A    
C12   O3    A    
Cu2   O6    S    
C30   N2    A    
C17   C18   A    
C1    C18   S    
C33   H1    S    
C20   C21   A    
Cu1   N2    S    
C23   O5    A    
C22   H8    S    
C21   C23   S    
S2    O14   S    
C22   C24   A    
C9    H15   S    
C4    C10   A    
C3    C4    A    
Cu1   O5    S    
C11   S1    S    
Cu2   O4    S    
C4    H10   S    
C2    C36   A    
C7    C9    S    
C11   C17   A    
C24   H9    S    
C1    O2    A    
C6    C7    A    
C28   N1    A    
C32   C33   A    
C23   O6    A    
C5    C10   A    
C27   N2    A    
C11   C13   A    
S3    O17   S    
S1    O11   S    
C20   S2    S    
C6    H2    S    
Cu1   O7    S    
C25   H11   S    
Cu1   O1    S    
C36   H16   S    
O11   H20   S    
Cu2   O8    S    
S1    O10   D    
C27   C28   A    
Cu1   O3    S    
C14   C15   A    
C3    S3    S    
C19   H3    S    
C14   H5    S    
