data_mof_unit_4949.cif
_audit_creation_date              2012-12-10T18:09:28-0500
_audit_creation_method            fapswitch 2.2
_symmetry_space_group_name_H-M    P1
_symmetry_Int_Tables_number       1
_space_group_crystal_system       triclinic
_cell_length_a                    15.196346
_cell_length_b                    16.096154
_cell_length_c                    9.544368
_cell_angle_alpha                 90.000105
_cell_angle_beta                  90.015545
_cell_angle_gamma                 90.004891
_cell_volume                      2334.57833109

loop_
_atom_site_label
_atom_site_type_symbol
_atom_type_description
_atom_site_fract_x
_atom_site_fract_y
_atom_site_fract_z
_atom_type_partial_charge
C1    C     C_R   0.123235 0.382389 0.499685 0.957003
C2    C     C_R   0.123127 0.617708 0.500342 0.956796
C3    C     C_R   0.623145 0.882309 0.500340 0.956777
C4    C     C_R   0.623213 0.117631 0.499684 0.957028
C5    C     C_3   0.091058 0.506492 0.081819 -0.173851
C6    C     C_3   0.091094 0.493934 0.918257 -0.173573
C7    C     C_3   0.591066 0.993605 0.081819 -0.173721
C8    C     C_3   0.591087 0.006187 0.918255 -0.173688
C9    C     C_R   0.882414 0.378472 0.499632 0.975496
C10   C     C_R   0.882408 0.621531 0.500349 0.975175
C11   C     C_R   0.382441 0.878444 0.500341 0.975064
C12   C     C_R   0.382380 0.121500 0.499626 0.975623
C13   C     C_3   0.820188 0.256643 0.638099 0.145023
C14   C     C_3   0.835025 0.245754 0.374832 0.159075
C15   C     C_3   0.834953 0.754190 0.625227 0.159047
C16   C     C_3   0.820144 0.743414 0.361952 0.145449
C17   C     C_3   0.334912 0.745856 0.625312 0.159064
C18   C     C_3   0.320252 0.756486 0.362001 0.145658
C19   C     C_3   0.320077 0.243251 0.638159 0.144830
C20   C     C_3   0.335072 0.254288 0.374928 0.159022
C21   C     C_3   0.268325 0.671564 0.620664 0.584719
C22   C     C_3   0.241266 0.694703 0.351990 0.577178
C23   C     C_3   0.240978 0.304870 0.648322 0.577279
C24   C     C_3   0.268922 0.328900 0.380258 0.585090
C25   C     C_3   0.741113 0.194980 0.648235 0.577221
C26   C     C_3   0.768743 0.171233 0.379973 0.584972
C27   C     C_3   0.768477 0.828558 0.620409 0.584837
C28   C     C_3   0.741138 0.805156 0.351910 0.577225
C29   C     C_3   0.720517 0.341842 0.472865 0.566344
C30   C     C_3   0.720466 0.658092 0.526850 0.566428
C31   C     C_3   0.220499 0.841921 0.526558 0.566365
C32   C     C_3   0.220486 0.158169 0.472575 0.566412
C33   C     C_3   0.816720 0.307137 0.497540 -0.397580
C34   C     C_3   0.816680 0.692854 0.502418 -0.397659
C35   C     C_3   0.316715 0.807121 0.502382 -0.397781
C36   C     C_3   0.316686 0.192834 0.497511 -0.397451
C37   C     C_3   0.195494 0.685129 0.501399 -0.374074
C38   C     C_3   0.195630 0.314976 0.498652 -0.374217
C39   C     C_3   0.695612 0.185040 0.498651 -0.374220
C40   C     C_3   0.695506 0.814885 0.501397 -0.374050
C41   C     C_3   0.152410 0.769778 0.535295 -0.425970
C42   C     C_3   0.152579 0.230453 0.463544 -0.426670
C43   C     C_3   0.652553 0.269599 0.463937 -0.426401
C44   C     C_3   0.652427 0.730270 0.535649 -0.426215
C45   C     C_3   0.949281 0.570958 0.081754 0.004208
C46   C     C_3   0.957702 0.575629 0.914490 0.023290
C47   C     C_3   0.958075 0.424174 0.085465 0.023415
C48   C     C_3   0.949603 0.428830 0.918192 0.003567
C49   C     C_3   0.458021 0.075789 0.085463 0.023380
C50   C     C_3   0.449505 0.071097 0.918210 0.003673
C51   C     C_3   0.449338 0.928998 0.081744 0.004058
C52   C     C_3   0.457817 0.924303 0.914494 0.023363
Cu1   Cu    Cu3+1 0.000100 0.500000 0.642410 1.059177
Cu2   Cu    Cu3+1 0.000100 0.500000 0.357590 1.059053
Cu3   Cu    Cu3+1 0.500100 0.000000 0.642410 1.059065
Cu4   Cu    Cu3+1 0.500100 0.000000 0.357590 1.059160
H1    H     H_    0.815301 0.301614 0.725703 0.186143
H2    H     H_    0.825038 0.281118 0.276401 0.188101
H3    H     H_    0.825165 0.718714 0.723587 0.187995
H4    H     H_    0.815131 0.698447 0.274367 0.186277
H5    H     H_    0.325186 0.781425 0.723592 0.188086
H6    H     H_    0.315254 0.801410 0.274356 0.186327
H7    H     H_    0.315181 0.198242 0.725706 0.186200
H8    H     H_    0.325005 0.219022 0.276421 0.187971
H9    H     H_    0.123414 0.766701 0.641626 0.281793
H10   H     H_    0.095621 0.781425 0.465102 0.306260
H11   H     H_    0.095500 0.218677 0.533020 0.306677
H12   H     H_    0.124067 0.233883 0.356859 0.280920
H13   H     H_    0.595577 0.281330 0.533650 0.306544
H14   H     H_    0.623887 0.266277 0.357360 0.281277
H15   H     H_    0.623553 0.733447 0.642066 0.281558
H16   H     H_    0.595556 0.718579 0.465649 0.306353
H17   H     H_    0.878183 0.559953 0.105064 0.166984
H18   H     H_    0.889038 0.578039 0.873812 0.183040
H19   H     H_    0.889430 0.421447 0.126092 0.183025
H20   H     H_    0.878448 0.439537 0.894860 0.166729
H21   H     H_    0.389393 0.078488 0.126141 0.183094
H22   H     H_    0.378362 0.060269 0.894940 0.166740
H23   H     H_    0.378229 0.939961 0.104989 0.167051
H24   H     H_    0.389171 0.921769 0.873783 0.182966
H25   H     H_    0.121116 0.567326 0.106024 0.220617
H26   H     H_    0.135456 0.538430 0.868218 0.248220
H27   H     H_    0.135611 0.462215 0.131897 0.248202
H28   H     H_    0.121408 0.433211 0.894129 0.220334
H29   H     H_    0.635586 0.037920 0.131917 0.248293
H30   H     H_    0.621332 0.066946 0.894128 0.220329
H31   H     H_    0.621162 0.932788 0.105984 0.220451
H32   H     H_    0.635498 0.961755 0.868204 0.248259
N1    N     N_3   0.001260 0.500000 0.143650 -0.164958
N2    N     N_3   0.001260 0.500000 0.856350 -0.164866
N3    N     N_3   0.501260 0.000000 0.143650 -0.164951
N4    N     N_3   0.501260 1.000000 0.856350 -0.164875
O1    O     O_R   0.091250 0.408820 0.620260 -0.540970
O2    O     O_R   0.091250 0.408820 0.379740 -0.544016
O3    O     O_R   0.091250 0.591180 0.620260 -0.543971
O4    O     O_R   0.091250 0.591180 0.379740 -0.541323
O5    O     O_R   0.591250 0.908820 0.620260 -0.543954
O6    O     O_R   0.591250 0.908820 0.379740 -0.541337
O7    O     O_R   0.591250 0.091180 0.620260 -0.541166
O8    O     O_R   0.591250 0.091180 0.379740 -0.543845
O9    O     O_R   0.908940 0.408800 0.620260 -0.556451
O10   O     O_R   0.908940 0.408800 0.379740 -0.564785
O11   O     O_R   0.908940 0.591200 0.620260 -0.564843
O12   O     O_R   0.908940 0.591200 0.379740 -0.556168
O13   O     O_R   0.408940 0.908800 0.620260 -0.565028
O14   O     O_R   0.408940 0.908800 0.379740 -0.556108
O15   O     O_R   0.408940 0.091200 0.620260 -0.556391
O16   O     O_R   0.408940 0.091200 0.379740 -0.564721
Cl1   Cl    Cl    0.925266 0.206631 0.666121 -0.368215
Cl2   Cl    Cl    0.947842 0.215595 0.351735 -0.443989
Cl3   Cl    Cl    0.947723 0.784609 0.648105 -0.443280
Cl4   Cl    Cl    0.925263 0.793304 0.333770 -0.369220
Cl5   Cl    Cl    0.447647 0.715332 0.648239 -0.443200
Cl6   Cl    Cl    0.425392 0.706646 0.333906 -0.369027
Cl7   Cl    Cl    0.425129 0.293323 0.666252 -0.368465
Cl8   Cl    Cl    0.447928 0.284313 0.351848 -0.444125
Cl9   Cl    Cl    0.323417 0.575657 0.597831 -0.232584
Cl10  Cl    Cl    0.271871 0.597077 0.275123 -0.349205
Cl11  Cl    Cl    0.271327 0.402162 0.726684 -0.350605
Cl12  Cl    Cl    0.324668 0.424290 0.405416 -0.230106
Cl13  Cl    Cl    0.771528 0.097586 0.726141 -0.350161
Cl14  Cl    Cl    0.824300 0.075692 0.404402 -0.230834
Cl15  Cl    Cl    0.823739 0.924334 0.596930 -0.231935
Cl16  Cl    Cl    0.771680 0.902691 0.274620 -0.349626
Cl17  Cl    Cl    0.223976 0.665771 0.794191 -0.556292
Cl18  Cl    Cl    0.167700 0.736505 0.222759 -0.529475
Cl19  Cl    Cl    0.167114 0.262480 0.776457 -0.528413
Cl20  Cl    Cl    0.225239 0.336012 0.206490 -0.555735
Cl21  Cl    Cl    0.667376 0.237197 0.776726 -0.528842
Cl22  Cl    Cl    0.724827 0.164523 0.206291 -0.555858
Cl23  Cl    Cl    0.724320 0.834708 0.794005 -0.556056
Cl24  Cl    Cl    0.667465 0.763185 0.222995 -0.529267
Cl25  Cl    Cl    0.688716 0.410810 0.610364 -0.330825
Cl26  Cl    Cl    0.712561 0.400404 0.312762 -0.427007
Cl27  Cl    Cl    0.712480 0.599509 0.686917 -0.426681
Cl28  Cl    Cl    0.688772 0.589156 0.389194 -0.331261
Cl29  Cl    Cl    0.212426 0.900564 0.686546 -0.426378
Cl30  Cl    Cl    0.188957 0.910795 0.388722 -0.331711
Cl31  Cl    Cl    0.188523 0.089160 0.609912 -0.330320
Cl32  Cl    Cl    0.212624 0.099643 0.312425 -0.427352
N5    N     N_3   0.969432 0.649776 0.149229 -0.460719
H33   H     H_    0.924972 0.693668 0.110801 0.249069
H34   H     H_    0.031313 0.670362 0.122159 0.288554
N6    N     N_3   0.000748 0.650934 0.862069 -0.469385
H35   H     H_    0.962857 0.702437 0.889593 0.264169
H36   H     H_    0.062637 0.658649 0.906566 0.275698
N7    N     N_3   0.001494 0.349059 0.137907 -0.469848
H37   H     H_    0.963961 0.297364 0.110124 0.264494
H38   H     H_    0.063513 0.341708 0.093744 0.275075
N8    N     N_3   0.970103 0.350128 0.850673 -0.459933
H39   H     H_    0.925785 0.306071 0.888963 0.249299
H40   H     H_    0.032020 0.329821 0.878127 0.288298
N9    N     N_3   0.501436 0.150931 0.137789 -0.469489
H41   H     H_    0.463802 0.202585 0.110190 0.264490
H42   H     H_    0.563345 0.158364 0.093292 0.275211
N10   N     N_3   0.469836 0.149833 0.850664 -0.460375
H43   H     H_    0.425546 0.193853 0.889128 0.249265
H44   H     H_    0.531799 0.170200 0.877734 0.288494
N11   N     N_3   0.469503 0.850210 0.149263 -0.460763
H45   H     H_    0.425117 0.806265 0.110778 0.249121
H46   H     H_    0.531420 0.829706 0.122292 0.288577
N12   N     N_3   0.501008 0.849064 0.862155 -0.469584
H47   H     H_    0.463208 0.797499 0.889665 0.264275
H48   H     H_    0.562887 0.841465 0.906725 0.275479

loop_
_geom_bond_atom_site_label_1
_geom_bond_atom_site_label_2
_ccdc_geom_bond_type
C16   C28   S    
C29   Cl25  S    
Cu3   Cu4   S    
C6    H26   S    
C48   N8    S    
Cu1   O3    S    
C27   Cl23  S    
C48   H20   S    
N7    H37   S    
C2    C37   S    
Cu4   O6    S    
C25   Cl21  S    
C18   Cl6   S    
C14   C33   S    
C17   Cl5   S    
C7    C8    S    
Cu1   Cu2   S    
Cu3   O13   S    
C32   C36   S    
Cu2   O12   S    
C10   O11   A    
N7    H38   S    
C38   C42   S    
C19   C36   S    
N5    H34   S    
C23   Cl11  S    
C5    C6    S    
C5    H27   S    
C26   C39   S    
C22   Cl18  S    
C13   H1    S    
C28   C40   S    
C29   C33   S    
C44   H15   S    
C45   H17   S    
C16   H4    S    
Cu4   O16   S    
C21   Cl9   S    
C50   N10   S    
C17   H5    S    
N10   H44   S    
Cu4   N3    S    
C7    H31   S    
C20   C24   S    
C19   H7    S    
C9    O10   A    
C11   O13   A    
C24   C38   S    
N11   H46   S    
C8    N4    S    
C12   C36   S    
C45   N1    S    
C18   C35   S    
C15   C34   S    
Cu2   O4    S    
C26   Cl22  S    
C51   N3    S    
C29   Cl26  S    
C13   Cl1   S    
C10   O12   A    
C43   H13   S    
C48   N2    S    
C29   C43   S    
C9    C33   S    
C47   N1    S    
C30   C44   S    
C49   N3    S    
C50   H22   S    
N12   H48   S    
C14   H2    S    
C47   N7    S    
C24   Cl12  S    
C6    H28   S    
C30   C34   S    
Cu1   O1    S    
C51   C52   S    
C47   C48   S    
C15   Cl3   S    
C32   Cl31  S    
N6    H36   S    
Cu1   O9    S    
C20   Cl8   S    
C27   Cl15  S    
C18   H6    S    
C39   C43   S    
C45   C46   S    
C22   C37   S    
C2    O4    A    
C1    O1    A    
C17   C21   S    
Cu3   O15   S    
C8    H32   S    
C20   H8    S    
C19   C23   S    
C13   C33   S    
Cu3   N4    S    
N8    H40   S    
C5    H25   S    
C31   Cl29  S    
C3    O5    A    
C15   C27   S    
N11   H45   S    
C4    C39   S    
C19   Cl7   S    
C27   C40   S    
C7    N3    S    
C46   N6    S    
Cu3   O5    S    
C11   O14   A    
C10   C34   S    
C14   C26   S    
C31   Cl30  S    
Cu4   O14   S    
C1    C38   S    
Cu2   N1    S    
C50   N4    S    
C3    C40   S    
C30   Cl27  S    
C43   H14   S    
C30   Cl28  S    
C4    O8    A    
C42   H11   S    
C31   C35   S    
C52   N4    S    
N9    H42   S    
Cu4   O8    S    
C21   Cl17  S    
C46   H18   S    
C16   Cl4   S    
C12   O16   A    
N12   H47   S    
C49   N9    S    
C14   Cl2   S    
C22   Cl10  S    
N10   H43   S    
C31   C41   S    
C18   C22   S    
C15   H3    S    
Cu2   O10   S    
N6    H35   S    
C13   C25   S    
C2    O3    A    
C1    O2    A    
C12   O15   A    
C41   H9    S    
C28   Cl16  S    
C32   Cl32  S    
C41   H10   S    
C46   N2    S    
C23   C38   S    
C26   Cl14  S    
C23   Cl19  S    
C45   N5    S    
C16   C34   S    
C11   C35   S    
C47   H19   S    
C6    N2    S    
N5    H33   S    
C25   C39   S    
C3    O6    A    
C7    H29   S    
Cu1   O11   S    
C51   N11   S    
C49   H21   S    
C44   H16   S    
C8    H30   S    
C42   H12   S    
C37   C41   S    
C51   H23   S    
Cu2   O2    S    
C20   C36   S    
C40   C44   S    
C21   C37   S    
C9    O9    A    
C49   C50   S    
C4    O7    A    
Cu3   O7    S    
Cu1   N2    S    
C24   Cl20  S    
C32   C42   S    
N8    H39   S    
C17   C35   S    
C28   Cl24  S    
N9    H41   S    
C52   H24   S    
C25   Cl13  S    
C5    N1    S    
C52   N12   S    
