data_mof_unit_4097.cif
_audit_creation_date              2012-10-26T19:51:36-0400
_audit_creation_method            fapswitch 2.2
_symmetry_space_group_name_H-M    P1
_symmetry_Int_Tables_number       1
_space_group_crystal_system       triclinic
_cell_length_a                    19.452531
_cell_length_b                    18.308211
_cell_length_c                    9.079857
_cell_angle_alpha                 89.462523
_cell_angle_beta                  95.935273
_cell_angle_gamma                 90.107973
_cell_volume                      3216.23205965

loop_
_atom_site_label
_atom_site_type_symbol
_atom_type_description
_atom_site_fract_x
_atom_site_fract_y
_atom_site_fract_z
_atom_type_partial_charge
C1    C     C_R   0.367779 0.499996 0.508957 0.572233
C2    C     C_R   0.454625 0.199384 0.398479 0.097652
C3    C     C_R   0.486507 0.839515 0.521130 0.007457
C4    C     C_R   0.495122 0.159656 0.507708 0.000255
C5    C     C_R   0.544279 0.959027 0.468439 -0.131757
C6    C     C_R   0.436198 0.040182 0.564409 -0.126082
C7    C     C_R   0.433534 0.963229 0.566506 -0.129201
C8    C     C_R   0.546132 0.035763 0.463111 -0.124461
C9    C     C_R   0.492398 0.077379 0.511939 0.044792
C10   C     C_R   0.487974 0.921749 0.519960 0.059669
C11   C     C_R   0.499509 0.500164 0.220531 0.546781
C12   C     C_R   0.632049 0.500067 0.489155 0.573063
C13   C     C_R   0.500182 0.499733 0.779411 0.546717
C14   C     C_1   0.499549 0.500071 0.065447 -0.088086
C15   C     C_1   0.499715 0.499433 0.934431 -0.086946
C16   C     C_R   0.739611 0.433693 0.430287 0.097479
C17   C     C_R   0.251757 0.564054 0.503464 0.095649
C18   C     C_R   0.260585 0.434772 0.575527 0.097507
C19   C     C_R   0.747274 0.564554 0.482036 0.096421
C20   C     C_R   0.812376 0.429741 0.436563 0.114797
C21   C     C_R   0.179004 0.559386 0.500791 0.118732
C22   C     C_R   0.188104 0.431053 0.574148 0.115893
C23   C     C_R   0.468149 0.725705 0.382717 0.160707
C24   C     C_R   0.820218 0.559972 0.490471 0.118362
C25   C     C_R   0.852078 0.492056 0.475529 0.015288
C26   C     C_R   0.147859 0.492196 0.528456 0.013943
C27   C     C_R   0.707489 0.499408 0.469276 -0.012774
C28   C     C_R   0.292239 0.499561 0.527526 -0.015373
C29   C     C_R   0.965216 0.494171 0.629557 -0.115111
C30   C     C_R   0.034925 0.481462 0.376532 -0.113478
C31   C     C_R   0.037198 0.493107 0.643174 -0.096525
C32   C     C_R   0.962959 0.481073 0.363178 -0.096851
C33   C     C_R   0.072118 0.487606 0.516460 0.095187
C34   C     C_R   0.540281 0.276485 0.608581 0.153299
C35   C     C_R   0.927963 0.488191 0.489535 0.087138
C36   C     C_3   0.696323 0.308389 0.447498 -0.279938
C37   C     C_3   0.272231 0.684615 0.388363 -0.307395
C38   C     C_3   0.300518 0.308591 0.561059 -0.277724
C39   C     C_3   0.722825 0.691319 0.556514 -0.305425
C40   C     C_3   0.875238 0.319557 0.519106 -0.312933
C41   C     C_3   0.125893 0.665946 0.599642 -0.300871
C42   C     C_3   0.119443 0.321498 0.510130 -0.304071
C43   C     C_3   0.877295 0.661113 0.377455 -0.300760
C44   C     C_3   0.465466 0.701901 0.222107 -0.197389
C45   C     C_R   0.531164 0.721731 0.622409 0.159568
C46   C     C_3   0.398999 0.662398 0.164400 -0.404736
C47   C     C_3   0.587040 0.312850 0.731139 -0.201224
C48   C     C_3   0.556592 0.308360 0.879121 -0.427793
C49   C     C_3   0.579690 0.685301 0.743865 -0.190163
C50   C     C_3   0.549076 0.680117 0.892500 -0.412329
C51   C     C_3   0.410921 0.314692 0.271819 -0.198979
C52   C     C_3   0.440406 0.308721 0.123270 -0.430668
C53   C     C_3   0.437157 0.887890 0.191301 -0.322034
C54   C     C_3   0.649587 0.141131 0.695419 -0.328494
C55   C     C_3   0.523462 0.865867 0.862402 -0.323421
C56   C     C_R   0.457354 0.277439 0.395091 0.155538
C57   C     C_3   0.342415 0.144876 0.315920 -0.328582
C58   C     C_R   0.454138 0.801362 0.400371 0.087696
C59   C     C_R   0.538756 0.198388 0.611898 0.099689
C60   C     C_R   0.525930 0.799466 0.631729 0.094550
Cu1   Cu    Cu3+1 0.500000 0.573360 0.500000 0.914937
Cu2   Cu    Cu3+1 0.500000 0.426640 0.500000 0.907460
H1    H     H_    0.938421 0.499832 0.727634 0.095711
H2    H     H_    0.643671 0.284937 0.428991 0.157791
H3    H     H_    0.732555 0.268068 0.407840 0.109120
H4    H     H_    0.709764 0.317506 0.567650 0.136264
H5    H     H_    0.291546 0.656566 0.613724 0.245495
H6    H     H_    0.232258 0.724718 0.412031 0.121442
H7    H     H_    0.256650 0.655915 0.282811 0.134218
H8    H     H_    0.319874 0.716416 0.377815 0.166564
H9    H     H_    0.301451 0.370763 0.753226 0.232463
H10   H     H_    0.266155 0.268883 0.610424 0.109865
H11   H     H_    0.353119 0.284906 0.571674 0.155953
H12   H     H_    0.061745 0.477583 0.278121 0.090454
H13   H     H_    0.282438 0.316703 0.441915 0.140511
H14   H     H_    0.710172 0.649117 0.341640 0.240540
H15   H     H_    0.765240 0.727965 0.529404 0.123598
H16   H     H_    0.732972 0.669652 0.671426 0.133425
H17   H     H_    0.675566 0.725366 0.546351 0.140445
H18   H     H_    0.820231 0.335357 0.311724 0.249162
H19   H     H_    0.901498 0.271715 0.475767 0.124658
H20   H     H_    0.834232 0.299691 0.585801 0.128962
H21   H     H_    0.914071 0.350336 0.591980 0.157914
H22   H     H_    0.140914 0.649942 0.375934 0.245385
H23   H     H_    0.065718 0.498225 0.751530 0.097918
H24   H     H_    0.085137 0.707237 0.568385 0.131467
H25   H     H_    0.174434 0.694721 0.639262 0.131891
H26   H     H_    0.109163 0.631592 0.690875 0.149509
H27   H     H_    0.180391 0.338908 0.712146 0.247800
H28   H     H_    0.143842 0.266695 0.511373 0.113679
H29   H     H_    0.120462 0.345665 0.397526 0.142961
H30   H     H_    0.064790 0.314890 0.532838 0.152331
H31   H     H_    0.854408 0.655677 0.598991 0.244921
H32   H     H_    0.916250 0.704511 0.405597 0.130922
H33   H     H_    0.829613 0.686720 0.322517 0.131399
H34   H     H_    0.934496 0.476917 0.254562 0.104236
H35   H     H_    0.898495 0.622872 0.299430 0.152956
H36   H     H_    0.406502 0.634797 0.058946 0.119976
H37   H     H_    0.383798 0.620965 0.244393 0.198823
H38   H     H_    0.356481 0.702512 0.141067 0.128709
H39   H     H_    0.469603 0.749508 0.147293 0.123051
H40   H     H_    0.513531 0.673514 0.202089 0.156417
H41   H     H_    0.501178 0.323619 0.864354 0.175518
H42   H     H_    0.561204 0.252380 0.926800 0.160402
H43   H     H_    0.584809 0.346272 0.958933 0.122689
H44   H     H_    0.638418 0.286286 0.744411 0.114436
H45   H     H_    0.586564 0.928436 0.430499 0.089020
H46   H     H_    0.598950 0.369733 0.707801 0.193721
H47   H     H_    0.492271 0.671619 0.877000 0.169059
H48   H     H_    0.573625 0.634199 0.958964 0.124403
H49   H     H_    0.560295 0.730236 0.957903 0.142056
H50   H     H_    0.598032 0.631746 0.711738 0.193217
H51   H     H_    0.628103 0.717425 0.763380 0.111659
H52   H     H_    0.495777 0.324242 0.135623 0.175068
H53   H     H_    0.435648 0.252273 0.080129 0.161132
H54   H     H_    0.411756 0.345840 0.041182 0.121632
H55   H     H_    0.358732 0.289765 0.261628 0.116156
H56   H     H_    0.394240 0.070829 0.603468 0.099772
H57   H     H_    0.400444 0.371933 0.292251 0.193973
H58   H     H_    0.364806 0.859945 0.336478 0.242948
H59   H     H_    0.428369 0.945535 0.221637 0.148561
H60   H     H_    0.411526 0.878854 0.078071 0.134289
H61   H     H_    0.493602 0.878755 0.190700 0.136993
H62   H     H_    0.554914 0.117171 0.775300 0.253288
H63   H     H_    0.654845 0.081165 0.683006 0.134842
H64   H     H_    0.686372 0.158827 0.789937 0.139017
H65   H     H_    0.663791 0.168497 0.593018 0.129393
H66   H     H_    0.599689 0.873875 0.718178 0.245761
H67   H     H_    0.389481 0.935990 0.606244 0.092330
H68   H     H_    0.503443 0.921000 0.830137 0.147254
H69   H     H_    0.557077 0.870744 0.968247 0.128643
H70   H     H_    0.479544 0.829027 0.880366 0.145025
H71   H     H_    0.436821 0.118086 0.239207 0.250739
H72   H     H_    0.335242 0.084972 0.327681 0.134855
H73   H     H_    0.306263 0.164656 0.221525 0.139281
H74   H     H_    0.329032 0.171558 0.418570 0.129190
H75   H     H_    0.589658 0.062811 0.420745 0.101128
H76   H     H_    0.701748 0.369147 0.253058 0.231974
N1    N     N_R   0.500000 0.683620 0.500000 -0.246517
N2    N     N_2   0.863002 0.623011 0.511216 -0.507820
N3    N     N_2   0.407418 0.838603 0.293442 -0.537371
N4    N     N_2   0.579849 0.158991 0.725416 -0.531496
N5    N     N_2   0.563847 0.837169 0.750834 -0.534501
N6    N     N_2   0.412714 0.160840 0.286273 -0.531816
N7    N     N_R   0.500000 0.316380 0.500000 -0.253343
N8    N     N_2   0.698072 0.376020 0.364562 -0.484337
N9    N     N_2   0.285358 0.633464 0.510098 -0.481738
N10   N     N_2   0.302484 0.376800 0.640443 -0.482792
N11   N     N_2   0.713114 0.632727 0.451039 -0.482970
N12   N     N_2   0.846038 0.364701 0.396537 -0.516095
N13   N     N_2   0.135630 0.621610 0.472455 -0.506324
N14   N     N_2   0.155215 0.366918 0.623566 -0.516758
O1    O     O_R   0.400190 0.561980 0.499980 -0.470754
O2    O     O_R   0.599810 0.438020 0.500020 -0.489279
O3    O     O_R   0.599810 0.561980 0.500020 -0.488793
O4    O     O_R   0.400190 0.438020 0.499980 -0.490646
O5    O     O_R   0.500000 0.561940 0.288400 -0.510443
O6    O     O_R   0.500000 0.438060 0.711600 -0.505865
O7    O     O_R   0.500000 0.561940 0.711600 -0.509903
O8    O     O_R   0.500000 0.438060 0.288400 -0.505653

loop_
_geom_bond_atom_site_label_1
_geom_bond_atom_site_label_2
_ccdc_geom_bond_type
C23   C58   A    
C49   H51   S    
C46   H37   S    
C29   H1    S    
C45   C60   A    
C31   H23   S    
C37   H7    S    
C7    C10   A    
C2    N6    S    
C45   N1    A    
C21   C26   A    
C6    C9    A    
C24   N2    S    
H18   N12   S    
C41   H24   S    
C54   H64   S    
C39   H15   S    
C23   N1    A    
C17   N9    S    
C51   C56   S    
C18   N10   S    
C53   H60   S    
Cu1   O7    S    
C60   N5    S    
C30   H12   S    
C34   N7    A    
C36   H4    S    
C20   C25   A    
C48   H42   S    
C37   H6    S    
C50   H48   S    
C43   H32   S    
C16   N8    S    
C42   H29   S    
C56   N7    A    
C19   N11   S    
H27   N14   S    
C48   H43   S    
C59   N4    S    
C20   N12   S    
C8    C9    A    
Cu2   N7    S    
C1    C28   S    
C43   H33   S    
Cu2   O6    S    
C57   H74   S    
C42   N14   S    
C53   N3    S    
C57   N6    S    
C3    C60   A    
C47   H44   S    
C16   C27   A    
H9    N10   S    
C46   H36   S    
C37   H8    S    
C40   H21   S    
H62   N4    S    
Cu1   O3    S    
C44   C46   S    
C11   O8    A    
C38   H10   S    
C38   H13   S    
C52   H54   S    
C41   H25   S    
C54   H63   S    
C22   N14   S    
C55   N5    S    
C12   C27   S    
C51   C52   S    
C32   C35   A    
C40   H20   S    
C18   C28   A    
C24   C25   A    
C39   N11   S    
C53   H61   S    
C44   H40   S    
C36   H3    S    
Cu1   N1    S    
C48   H41   S    
C50   H47   S    
C17   C21   A    
C23   C44   S    
Cu2   O2    S    
C8    H75   S    
C42   H28   S    
C39   H17   S    
C1    O4    A    
C2    C4    A    
C39   H16   S    
Cu1   O5    S    
C26   C33   S    
C51   H57   S    
C47   C48   S    
C45   C49   S    
C16   C20   A    
C55   H68   S    
C31   C33   A    
C40   N12   S    
C43   N2    S    
C37   N9    S    
C1    O1    A    
C38   N10   S    
C25   C35   S    
C49   H50   S    
C36   N8    S    
C54   N4    S    
C55   H70   S    
C55   H69   S    
C13   C15   S    
H5    N9    S    
C34   C59   A    
C51   H55   S    
Cu2   O8    S    
C57   H72   S    
C12   O3    A    
C13   O6    A    
C19   C27   A    
C11   O5    A    
C5    H45   S    
C52   H53   S    
C47   H46   S    
C41   H26   S    
C46   H38   S    
H71   N6    S    
C30   C33   A    
C32   H34   S    
C18   C22   A    
C17   C28   A    
C40   H19   S    
H58   N3    S    
C43   H35   S    
C12   O2    A    
Cu1   O1    S    
C5    C8    A    
C44   H39   S    
C6    C7    A    
C41   N13   S    
C52   H52   S    
C54   H65   S    
C29   C35   A    
C19   C24   A    
C5    C10   A    
C29   C31   A    
C3    C10   S    
C53   H59   S    
C30   C32   A    
C58   N3    S    
H14   N11   S    
H76   N8    S    
H22   N13   S    
C4    C59   A    
C50   H49   S    
C11   C14   S    
Cu2   O4    S    
C42   H30   S    
C21   N13   S    
Cu1   Cu2   S    
H66   N5    S    
C7    H67   S    
C3    C58   A    
C49   C50   S    
C22   C26   A    
H31   N2    S    
C14   C15   T    
C57   H73   S    
C2    C56   A    
C34   C47   S    
C4    C9    S    
C36   H2    S    
C13   O7    A    
C6    H56   S    
C38   H11   S    
