data_mof_unit_2617.cif
_audit_creation_date              2012-12-10T17:12:35-0500
_audit_creation_method            fapswitch 2.2
_symmetry_space_group_name_H-M    P1
_symmetry_Int_Tables_number       1
_space_group_crystal_system       triclinic
_cell_length_a                    23.428722
_cell_length_b                    10.700712
_cell_length_c                    10.00512
_cell_angle_alpha                 91.735378
_cell_angle_beta                  90.511765
_cell_angle_gamma                 90.241512
_cell_volume                      2507.04797409

loop_
_atom_site_label
_atom_site_type_symbol
_atom_type_description
_atom_site_fract_x
_atom_site_fract_y
_atom_site_fract_z
_atom_type_partial_charge
C1    C     C_R   0.498907 0.262785 0.497539 0.913919
C2    C     C_R   0.120257 0.617712 0.465333 0.526664
C3    C     C_R   0.237199 0.509185 0.379266 -0.096546
C4    C     C_R   0.389308 0.500345 0.499594 0.845343
C5    C     C_R   0.296452 0.506533 0.378408 -0.230542
C6    C     C_R   0.327066 0.502593 0.499431 -0.028600
C7    C     C_R   0.297723 0.502255 0.621184 -0.217330
C8    C     C_R   0.238588 0.505802 0.621766 -0.110360
C9    C     C_R   0.208334 0.508964 0.500959 0.305831
C10   C     C_R   0.763372 0.455074 0.399414 0.471236
C11   C     C_R   0.703866 0.443780 0.400893 0.321795
C12   C     C_R   0.968344 0.309093 0.595753 -0.266091
C13   C     C_R   0.672669 0.507224 0.501821 -0.345340
C14   C     C_R   0.701276 0.578665 0.602758 0.446266
C15   C     C_R   0.760613 0.582433 0.604766 -0.279180
C16   C     C_R   0.504011 0.738146 0.502225 0.821511
C17   C     C_R   0.791353 0.520921 0.504159 0.075943
C18   C     C_2   0.524541 0.932914 0.393767 0.406118
C19   C     C_2   0.516945 0.871099 0.508478 0.232320
C20   C     C_2   0.528253 0.068679 0.402518 -0.235279
C21   C     C_2   0.495269 0.131288 0.488938 -0.319050
C22   C     C_2   0.542566 0.540575 0.927457 -0.101025
C23   C     C_R   0.027900 0.306244 0.597409 0.536491
C24   C     C_2   0.537155 0.560787 0.076597 0.053539
C25   C     C_R   0.610552 0.500979 0.500530 0.967032
C26   C     C_R   0.880743 0.626397 0.472279 0.544074
C27   C     C_R   0.879625 0.418296 0.552298 0.615572
C28   C     C_R   0.939191 0.415236 0.554636 -0.091061
C29   C     C_R   0.969866 0.520582 0.513552 -0.024122
C30   C     C_R   0.940398 0.627457 0.472515 -0.074844
C31   C     C_3   0.672634 0.248979 0.342125 -0.181835
C32   C     C_3   0.662420 0.764703 0.664866 -0.224648
C33   C     C_3   0.501951 0.915056 0.165743 0.083692
C34   C     C_R   0.059130 0.409740 0.551230 -0.101442
C35   C     C_3   0.438320 0.882463 0.178670 -0.376516
C36   C     C_3   0.405895 0.902002 0.048035 -0.973728
C37   C     C_3   0.489110 0.915208 0.729133 -0.304848
C38   C     C_3   0.054541 0.194483 0.776732 -0.263935
C39   C     C_3   0.423065 0.381555 0.100922 0.175186
C40   C     C_3   0.405392 0.263339 0.173444 -0.317720
C41   C     C_3   0.344645 0.222247 0.136400 -0.986616
C42   C     C_3   0.058016 0.931971 0.480874 -0.125686
C43   C     C_3   0.798155 0.468962 0.189934 -0.230965
C44   C     C_R   0.029903 0.518210 0.511347 -0.148378
C45   C     C_R   0.060465 0.623838 0.468131 -0.101378
C46   C     C_R   0.030467 0.732099 0.430360 0.520359
C47   C     C_R   0.970823 0.731797 0.430738 -0.263734
C48   C     C_R   0.118845 0.408770 0.543910 0.524070
H1    H     H_    0.945151 0.227138 0.626465 0.201532
H2    H     H_    0.318122 0.508021 0.283456 0.147165
H3    H     H_    0.320330 0.499617 0.715953 0.155223
H4    H     H_    0.216127 0.506050 0.715921 0.135826
H5    H     H_    0.646041 0.241803 0.433254 0.129404
H6    H     H_    0.715628 0.208403 0.359737 0.193246
H7    H     H_    0.651754 0.192066 0.260977 0.178832
H8    H     H_    0.636696 0.813281 0.742982 0.208908
H9    H     H_    0.637964 0.768062 0.569091 0.153167
H10   H     H_    0.703523 0.816343 0.656846 0.168501
H11   H     H_    0.518139 0.869094 0.072575 0.162969
H12   H     H_    0.782935 0.633328 0.684711 0.188801
H13   H     H_    0.508187 0.017034 0.153308 0.137278
H14   H     H_    0.433512 0.783037 0.205625 0.246359
H15   H     H_    0.419177 0.942197 0.259126 0.207298
H16   H     H_    0.412744 0.998203 0.012782 0.270610
H17   H     H_    0.359526 0.887402 0.063839 0.279163
H18   H     H_    0.420446 0.833720 0.969920 0.252654
H19   H     H_    0.501909 0.840125 0.797304 0.195536
H20   H     H_    0.445626 0.896362 0.686802 0.137306
H21   H     H_    0.486559 0.002897 0.790821 0.192773
H22   H     H_    0.075028 0.279230 0.823810 0.169741
H23   H     H_    0.556533 0.116925 0.335558 0.160742
H24   H     H_    0.079535 0.112222 0.807570 0.198523
H25   H     H_    0.010407 0.182890 0.814647 0.150266
H26   H     H_    0.405992 0.372449 0.997226 0.113050
H27   H     H_    0.402297 0.465768 0.146296 0.117190
H28   H     H_    0.435128 0.186054 0.147457 0.229363
H29   H     H_    0.407128 0.280509 0.282923 0.236052
H30   H     H_    0.333009 0.138783 0.193776 0.282239
H31   H     H_    0.313975 0.298224 0.160713 0.267550
H32   H     H_    0.341504 0.197223 0.028014 0.270589
H33   H     H_    0.084885 0.010105 0.446495 0.231967
H34   H     H_    0.464283 0.086455 0.551536 0.157066
H35   H     H_    0.076273 0.901361 0.577678 0.157617
H36   H     H_    0.014094 0.968663 0.495464 0.147658
H37   H     H_    0.819796 0.559432 0.215567 0.169291
H38   H     H_    0.755229 0.485843 0.145669 0.192557
H39   H     H_    0.824061 0.419974 0.112471 0.192136
H40   H     H_    0.582585 0.565177 0.881270 0.191969
H41   H     H_    0.460947 0.504290 0.894390 0.176227
H42   H     H_    0.565472 0.628219 0.126274 0.127797
H43   H     H_    0.948523 0.813585 0.396674 0.205615
H44   H     H_    0.213651 0.511501 0.285748 0.140328
N1    N     N_R   0.852002 0.522344 0.510437 -0.314334
N2    N     N_R   0.147562 0.511606 0.502389 -0.370328
N3    N     N_2   0.500610 0.501330 0.852150 -0.179396
N4    N     N_2   0.500630 0.501360 0.147810 0.059640
O1    O     O_R   0.499990 0.319060 0.613040 -0.592362
O2    O     O_R   0.583840 0.500020 0.613040 -0.578579
O3    O     O_R   0.583850 0.500060 0.386900 -0.575019
O4    O     O_2   0.851547 0.727627 0.433060 -0.572342
O5    O     O_3   0.676393 0.373617 0.301144 -0.573019
O6    O     O_3   0.671538 0.640621 0.703197 -0.601235
O7    O     O_3   0.534590 0.868342 0.273010 -0.654516
O8    O     O_3   0.531379 0.930766 0.630775 -0.622394
O9    O     O_3   0.055086 0.198526 0.636001 -0.598052
O10   O     O_3   0.483327 0.390351 0.092636 -0.551397
O11   O     O_3   0.058931 0.834828 0.382461 -0.581184
O12   O     O_2   0.849343 0.318312 0.591192 -0.552161
O13   O     O_3   0.794710 0.392735 0.302055 -0.582821
O14   O     O_2   0.148439 0.306029 0.576760 -0.508039
O15   O     O_2   0.151317 0.716751 0.427223 -0.504769
O16   O     O_R   0.500010 0.319100 0.386900 -0.600658
O17   O     O_R   0.416150 0.499940 0.613100 -0.631894
O18   O     O_R   0.416160 0.499980 0.386960 -0.649697
O19   O     O_R   0.499990 0.680900 0.613100 -0.613940
O20   O     O_R   0.500010 0.680940 0.386960 -0.604845
Zn1   Zn    Zn3+2 0.499990 0.499970 0.650990 0.961161
Zn2   Zn    Zn3+2 0.500010 0.500030 0.349010 0.997936

loop_
_geom_bond_atom_site_label_1
_geom_bond_atom_site_label_2
_ccdc_geom_bond_type
C39   O10   S    
C48   O14   S    
C38   H22   S    
C1    C21   S    
C37   H21   S    
C15   H12   S    
C35   C36   S    
C32   H10   S    
C41   H32   S    
C12   H1    S    
C7    C8    A    
C45   C46   A    
N3    Zn1   S    
C12   C23   A    
C48   N2    A    
C12   C28   A    
C31   O5    S    
N4    Zn2   S    
C28   C29   A    
C24   N4    D    
C1    O16   A    
C5    C6    A    
C36   H18   S    
C14   O6    S    
C10   C17   A    
C23   O9    S    
C37   H20   S    
C10   O13   S    
C18   C19   D    
C22   N3    D    
C39   H26   S    
C25   O3    A    
C8    C9    A    
O19   Zn1   S    
C20   H23   S    
C22   H40   S    
C42   O11   S    
C8    H4    S    
C18   C20   S    
C26   N1    A    
C33   H11   S    
C13   C14   A    
C13   C25   S    
C42   H33   S    
C32   H9    S    
C16   O20   A    
C2    C45   A    
C38   H24   S    
C2    O15   S    
C43   H37   S    
C30   C47   A    
C2    N2    A    
C34   C44   A    
C4    C6    S    
C1    O1    A    
C41   H30   S    
C36   H17   S    
C40   H28   S    
C3    H44   S    
H41   N3    S    
C29   C30   A    
C3    C9    A    
C19   O8    S    
C4    O17   A    
C23   C34   A    
C46   O11   S    
C42   H36   S    
C11   O5    S    
C31   H5    S    
O18   Zn2   S    
O17   Zn1   S    
C40   C41   S    
C26   C30   A    
C39   H27   S    
C29   C44   A    
C22   C24   S    
C5    H2    S    
C27   N1    A    
C34   C48   A    
C16   O19   A    
C39   C40   S    
C44   C45   A    
O2    Zn1   S    
C4    O18   A    
C15   C17   A    
N4    O10   S    
C46   C47   A    
C33   O7    S    
C43   H38   S    
C47   H43   S    
C42   H35   S    
C3    C5    A    
C24   H42   S    
C41   H31   S    
C37   O8    S    
C6    C7    A    
C43   H39   S    
C38   O9    S    
C7    H3    S    
O3    Zn2   S    
O16   Zn2   S    
C21   H34   S    
C11   C13   A    
C27   O12   S    
C16   C19   S    
C37   H19   S    
C33   C35   S    
O20   Zn2   S    
C35   H14   S    
C32   O6    S    
C18   O7    S    
C40   H29   S    
C31   H6    S    
O1    Zn1   S    
C10   C11   A    
C25   O2    A    
C17   N1    S    
C20   C21   D    
C33   H13   S    
C27   C28   A    
C14   C15   A    
C35   H15   S    
C43   O13   S    
C31   H7    S    
C36   H16   S    
C9    N2    S    
C32   H8    S    
C26   O4    S    
C38   H25   S    
