data_mof_unit_3203.cif
_audit_creation_date              2013-03-05T15:55:20-0500
_audit_creation_method            fapswitch 2.2
_symmetry_space_group_name_H-M    P1
_symmetry_Int_Tables_number       1
_space_group_crystal_system       triclinic
_cell_length_a                    27.370002
_cell_length_b                    10.745851
_cell_length_c                    9.981145
_cell_angle_alpha                 85.756897
_cell_angle_beta                  91.900846
_cell_angle_gamma                 96.850574
_cell_volume                      2905.7683317

loop_
_atom_site_label
_atom_site_type_symbol
_atom_site_description
_atom_site_fract_x
_atom_site_fract_y
_atom_site_fract_z
_atom_type_partial_charge
O1    O     O_R   0.500000 0.316780 0.614690 -0.617721
O2    O     O_R   0.500000 0.316750 0.385360 -0.579561
C1    C     C_R   0.504856 0.261654 0.505573 0.963737
O3    O     O_R   0.428760 0.500030 0.614650 -0.642459
O4    O     O_R   0.428750 0.500010 0.385320 -0.530535
C2    C     C_R   0.406004 0.501250 0.497490 0.975818
Zn1   Zn    Zn3+2 0.500000 0.500020 0.653130 0.982284
Zn2   Zn    Zn3+2 0.500000 0.499980 0.346870 1.153130
O5    O     O_R   0.500000 0.683250 0.614640 -0.607337
O6    O     O_R   0.500000 0.683220 0.385310 -0.539988
O7    O     O_R   0.571250 0.499990 0.614680 -0.650582
O8    O     O_R   0.571240 0.499970 0.385350 -0.529723
C3    C     C_R   0.497004 0.739984 0.495522 0.950584
C4    C     C_R   0.594604 0.503965 0.502294 0.947224
C5    C     C_R   0.162777 0.387106 0.485112 0.580159
O9    O     O_2   0.173556 0.296336 0.409172 -0.615565
N1    N     N_R   0.198558 0.480301 0.518664 -0.317265
C6    C     C_R   0.186776 0.584314 0.576442 0.552615
C7    C     C_R   0.275769 0.565789 0.413004 -0.248707
C8    C     C_R   0.327003 0.577221 0.409838 0.293506
C9    C     C_R   0.326082 0.394174 0.569475 -0.365582
C10   C     C_R   0.274306 0.378139 0.566631 0.543232
C11   C     C_R   0.249441 0.470745 0.494493 0.154764
C12   C     C_R   0.101631 0.495398 0.582601 -0.069800
C13   C     C_R   0.114391 0.388053 0.525832 0.000563
C14   C     C_R   0.078574 0.285528 0.509344 -0.208949
C15   C     C_R   0.137883 0.595616 0.605409 -0.082360
C16   C     C_R   0.352333 0.491660 0.491313 -0.165517
H1    H     H_    0.346486 0.333215 0.635178 0.157304
H2    H     H_    0.087470 0.202002 0.465476 0.177473
C17   C     C_R   0.649081 0.519883 0.513612 -0.240320
C18   C     C_R   0.968434 0.404412 0.642797 -0.096592
C19   C     C_R   0.987179 0.633682 0.639525 0.043289
C20   C     C_R   0.952477 0.524687 0.641101 0.015152
C21   C     C_R   0.934868 0.297654 0.679304 0.326805
C22   C     C_R   0.884251 0.308429 0.681759 0.235677
C23   C     C_R   0.867466 0.425921 0.644240 -0.187184
C24   C     C_R   0.901624 0.535489 0.633273 -0.151523
C25   C     C_R   0.885093 0.655045 0.608236 -0.113559
C26   C     C_R   0.834363 0.661107 0.586741 0.623737
N2    N     N_R   0.802664 0.553147 0.584804 -0.319579
C27   C     C_R   0.817816 0.437397 0.612912 0.670940
C28   C     C_R   0.732129 0.554628 0.425194 0.209561
C29   C     C_R   0.680677 0.538663 0.402381 0.243261
C30   C     C_R   0.669877 0.524841 0.644344 -0.387691
C31   C     C_R   0.720350 0.550310 0.666984 0.490963
C32   C     C_R   0.751415 0.559513 0.557752 0.059753
O10   O     O_2   0.784868 0.333996 0.605403 -0.494790
C33   C     C_R   0.017200 0.396439 0.606096 0.103248
C34   C     C_R   0.052362 0.503720 0.613008 0.004515
C35   C     C_R   0.038176 0.620105 0.646229 -0.026897
C36   C     C_R   0.030916 0.288203 0.552399 -0.187976
H3    H     H_    0.004369 0.207877 0.534726 0.190357
O11   O     O_2   0.222260 0.677422 0.604260 -0.616498
C37   C     C_R   0.124942 0.703115 0.659995 -0.261312
H4    H     H_    0.256131 0.635245 0.356803 0.195935
H5    H     H_    0.153604 0.775072 0.688665 0.187648
C38   C     C_R   0.969925 0.751985 0.618217 -0.252941
C39   C     C_R   0.919846 0.763477 0.598820 0.483658
O12   O     O_2   0.816669 0.772875 0.564535 -0.507972
C40   C     C_R   0.075273 0.718844 0.677803 0.458116
H6    H     H_    0.994915 0.836974 0.604091 0.178511
H7    H     H_    0.646885 0.507278 0.731102 0.198794
C41   C     C_R   0.505242 0.084759 0.764465 0.468001
C42   C     C_R   0.482380 0.006870 0.867308 -0.281730
H8    H     H_    0.488092 0.032768 0.969924 0.267238
C43   C     C_R   0.452926 0.896074 0.840659 0.114375
C44   C     C_R   0.448230 0.858385 0.706641 0.457958
C45   C     C_R   0.479105 0.927085 0.607315 -0.093004
C46   C     C_R   0.499145 0.050185 0.629758 -0.174537
C47   C     C_R   0.513869 0.130573 0.516411 -0.229815
C48   C     C_R   0.526878 0.080738 0.398821 0.221068
C49   C     C_R   0.516794 0.953108 0.384714 0.194224
C50   C     C_R   0.493196 0.874662 0.489263 -0.168973
C51   C     C_R   0.433333 0.309422 0.134937 0.303601
C52   C     C_R   0.409744 0.210506 0.061238 0.532458
C53   C     C_R   0.415161 0.216341 0.922904 -0.446894
H9    H     H_    0.397113 0.146481 0.860025 0.159341
C54   C     C_R   0.441416 0.318675 0.859318 -0.153682
H10   H     H_    0.438736 0.323273 0.752938 0.226457
C55   C     C_R   0.470114 0.409553 0.929505 0.178216
C56   C     C_R   0.468355 0.408087 0.073538 -0.029786
N3    N     N_R   0.499540 0.498800 0.142780 -0.133597
C57   C     C_R   0.531443 0.584004 0.063781 0.415051
H11   H     H_    0.554325 0.648981 0.860522 0.171147
C58   C     C_R   0.530275 0.582370 0.921772 -0.114367
N4    N     N_R   0.499520 0.498720 0.857170 -0.122723
O13   O     O_3   0.905329 0.882063 0.572220 -0.554050
C59   C     C_3   0.911726 0.918374 0.434240 0.117419
H12   H     H_    0.892746 0.845455 0.370294 0.169562
H13   H     H_    0.951600 0.933781 0.410863 0.096385
C60   C     C_3   0.889572 0.041229 0.400275 -0.215508
H14   H     H_    0.850130 0.028472 0.427330 0.286676
H15   H     H_    0.909265 0.116141 0.459592 0.235453
C61   C     C_3   0.893432 0.082513 0.251080 -0.965269
H16   H     H_    0.932571 0.097547 0.222193 0.253720
H17   H     H_    0.877281 0.172182 0.230227 0.294014
H18   H     H_    0.873122 0.010295 0.189456 0.289356
O14   O     O_3   0.740806 0.544997 0.796227 -0.622942
C62   C     C_3   0.725477 0.638548 0.872939 0.118015
H19   H     H_    0.734186 0.612136 0.979920 0.255043
H20   H     H_    0.685113 0.643407 0.866527 0.149345
C63   C     C_3   0.753557 0.767955 0.835362 -0.378313
H21   H     H_    0.793803 0.761483 0.842320 0.266893
H22   H     H_    0.743588 0.799192 0.730477 0.253690
C64   C     C_3   0.741200 0.865688 0.928409 -0.754135
H23   H     H_    0.701139 0.874526 0.922228 0.273039
H24   H     H_    0.761700 0.958393 0.897856 0.294446
H25   H     H_    0.751914 0.838617 0.033927 0.291247
O15   O     O_3   0.062931 0.816739 0.749262 -0.636139
C65   C     C_3   0.086874 0.936052 0.703240 0.045555
H26   H     H_    0.057957 0.999068 0.679408 0.167565
H27   H     H_    0.107485 0.936444 0.608614 0.115290
C66   C     C_3   0.120813 0.990514 0.815172 -0.359519
H28   H     H_    0.100560 0.982278 0.910731 0.248333
H29   H     H_    0.152869 0.936358 0.830975 0.212340
C67   C     C_3   0.139455 0.128569 0.781611 -0.910941
H30   H     H_    0.155948 0.141327 0.681089 0.286982
H31   H     H_    0.167735 0.161153 0.857632 0.278577
H32   H     H_    0.108917 0.187618 0.781803 0.265665
N5    N     N_R   0.552837 0.159911 0.295667 0.247369
O16   O     O_R   0.535047 0.167383 0.173177 -0.382555
O17   O     O_R   0.594019 0.226573 0.325573 -0.347912
O18   O     O_3   0.537074 0.186991 0.801866 -0.591994
C68   C     C_3   0.586345 0.165692 0.783649 0.097957
H33   H     H_    0.597205 0.199581 0.679651 0.156127
H34   H     H_    0.592092 0.064425 0.800977 0.149025
C69   C     C_3   0.619540 0.239415 0.883683 -0.316070
H35   H     H_    0.612614 0.339448 0.874117 0.233487
H36   H     H_    0.610519 0.201210 0.987592 0.295267
C70   C     C_3   0.673868 0.230999 0.860506 -0.759281
H37   H     H_    0.681835 0.131896 0.875813 0.263407
H38   H     H_    0.696888 0.287752 0.932824 0.308535
H39   H     H_    0.683800 0.267902 0.756871 0.280281
O19   O     O_3   0.247499 0.283920 0.646520 -0.642844
C71   C     C_3   0.260886 0.162532 0.627496 0.049862
H40   H     H_    0.244233 0.097130 0.709163 0.153224
H41   H     H_    0.301026 0.156924 0.638331 0.138439
C72   C     C_3   0.240427 0.113815 0.493555 -0.341258
H42   H     H_    0.199767 0.094026 0.497390 0.248826
H43   H     H_    0.250321 0.185634 0.410698 0.260054
C73   C     C_3   0.260468 0.993286 0.462907 -0.889556
H44   H     H_    0.300976 0.010838 0.451502 0.300024
H45   H     H_    0.243641 0.959805 0.367405 0.269702
H46   H     H_    0.250892 0.919425 0.544355 0.298630
N6    N     N_R   0.431547 0.819822 0.952114 0.234198
O20   O     O_R   0.441444 0.704763 0.975020 -0.378368
O21   O     O_R   0.409194 0.870867 0.043055 -0.317338
O22   O     O_3   0.415790 0.756729 0.665564 -0.628035
C74   C     C_3   0.369382 0.736255 0.728279 0.174100
H47   H     H_    0.371556 0.689058 0.829754 0.202788
H48   H     H_    0.346152 0.664934 0.672456 0.157205
C75   C     C_3   0.341072 0.851747 0.723471 -0.408368
H49   H     H_    0.364392 0.937405 0.752505 0.195753
H50   H     H_    0.327809 0.870133 0.618980 0.260540
C76   C     C_3   0.297605 0.827697 0.817834 -0.899300
H51   H     H_    0.274266 0.739622 0.796861 0.313944
H52   H     H_    0.275020 0.907065 0.805890 0.238199
H53   H     H_    0.311068 0.817852 0.923773 0.279072
N7    N     N_R   0.531556 0.905265 0.264311 0.247095
O23   O     O_R   0.576029 0.937666 0.221581 -0.282787
O24   O     O_R   0.498000 0.856725 0.182245 -0.281295
N8    N     N_R   0.567078 0.678698 0.117872 0.255338
O25   O     O_R   0.594313 0.757131 0.037581 -0.374131
O26   O     O_R   0.574109 0.688778 0.245047 -0.299952
N9    N     N_R   0.405825 0.327725 0.247617 0.232271
O27   O     O_R   0.404129 0.244767 0.349863 -0.401367
O28   O     O_R   0.367871 0.389057 0.223093 -0.408964
O29   O     O_3   0.377799 0.117759 0.130641 -0.540505
C77   C     C_3   0.335605 0.069279 0.055829 0.198643
H54   H     H_    0.315365 0.992331 0.119824 0.202596
H55   H     H_    0.345613 0.022311 0.967824 0.113832
C78   C     C_3   0.300273 0.167537 0.014272 -0.470329
H56   H     H_    0.320410 0.255850 0.969667 0.247973
H57   H     H_    0.274035 0.129458 0.936093 0.186247
C79   C     C_3   0.270634 0.196776 0.132136 -0.715977
H58   H     H_    0.244729 0.113289 0.164524 0.228910
H59   H     H_    0.249011 0.275726 0.101465 0.258147
H60   H     H_    0.295523 0.223357 0.217651 0.313041
N10   N     N_R   0.661682 0.547715 0.266926 0.254983
O30   O     O_R   0.640269 0.448045 0.213475 -0.311585
O31   O     O_R   0.675841 0.646912 0.188841 -0.351035
N11   N     N_R   0.764670 0.557908 0.314455 0.230961
O32   O     O_R   0.756276 0.476058 0.224201 -0.333437
O33   O     O_R   0.802646 0.642748 0.302704 -0.396780
N12   N     N_R   0.850994 0.202442 0.731432 0.242336
O34   O     O_R   0.854549 0.090571 0.693919 -0.327729
O35   O     O_R   0.821797 0.214832 0.828666 -0.360523
O36   O     O_3   0.951667 0.184523 0.722546 -0.629563
C80   C     C_3   0.957566 0.175924 0.864554 0.174434
H61   H     H_    0.939234 0.082807 0.902816 0.197653
H62   H     H_    0.940406 0.248115 0.916293 0.126239
C81   C     C_3   0.012301 0.183795 0.902712 -0.385728
H63   H     H_    0.028538 0.109964 0.853251 0.244241
H64   H     H_    0.031044 0.277149 0.866885 0.231118
C82   C     C_3   0.020897 0.164406 0.054137 -0.951669
H65   H     H_    0.004466 0.236357 0.106726 0.271189
H66   H     H_    0.061075 0.173321 0.077344 0.279758
H67   H     H_    0.004525 0.069029 0.091239 0.262642
N13   N     N_R   0.352484 0.683193 0.334854 0.211693
O37   O     O_R   0.338567 0.794193 0.341186 -0.399095
O38   O     O_R   0.383011 0.666354 0.242695 -0.255671

loop_
_geom_bond_atom_site_label_1
_geom_bond_atom_site_label_2
_geom_bond_distance
_ccdc_geom_bond_type
C7    H4    1.083688 S    
C38   H6    1.077088 S    
C31   O14   1.389108 S    
C19   C38   1.407452 A    
C26   O12   1.348488 S    
C48   N5    1.436452 S    
Zn2   N3    2.037641 S    
C49   C50   1.414695 A    
C1    C47   1.454387 S    
C61   H16   1.108643 S    
C35   C40   1.423826 A    
C12   C15   1.400894 A    
C4    C17   1.481905 S    
C28   C29   1.411135 A    
C70   H39   1.110570 S    
C69   H35   1.110294 S    
C29   N10   1.433051 S    
C66   H28   1.111629 S    
C61   H18   1.111132 S    
O19   C71   1.423747 S    
C65   H27   1.115563 S    
C53   H9    1.078021 S    
N10   O30   1.299735 A    
Zn1   O7    2.000010 S    
C49   N7    1.430021 S    
C80   H61   1.111407 S    
C77   H55   1.102678 S    
C76   H51   1.106260 S    
N8    O26   1.288103 A    
C57   C58   1.418079 A    
N11   O33   1.300573 A    
C24   C25   1.414695 A    
Zn2   O6    2.033774 S    
O7    C4    1.304862 A    
C15   C37   1.400093 A    
C5    C13   1.399520 A    
C64   H23   1.111100 S    
C5    O9    1.343815 S    
C82   H65   1.110956 S    
C5    N1    1.366762 A    
N2    C27   1.364373 A    
C28   N11   1.438127 S    
C23   C27   1.402053 A    
O5    C3    1.300066 A    
O15   C65   1.420091 S    
C8    N13   1.436086 S    
C44   O22   1.400181 S    
C80   C81   1.527496 S    
C39   O13   1.384178 S    
C79   H60   1.106916 S    
Zn1   N4    2.036034 S    
C77   H54   1.111136 S    
C65   H26   1.110430 S    
N13   O37   1.301148 A    
C42   C43   1.393488 A    
C74   C75   1.536585 S    
C68   C69   1.528126 S    
C46   C47   1.411062 A    
C41   C46   1.420528 A    
C75   H50   1.104545 S    
C22   N12   1.438948 S    
C81   H63   1.107826 S    
C33   C36   1.410919 A    
C79   H59   1.110419 S    
C21   O36   1.384960 S    
C78   H56   1.109755 S    
C9    C10   1.406572 A    
N9    O28   1.302286 A    
C73   H46   1.108396 S    
N9    O27   1.302677 A    
O36   C80   1.418670 S    
C71   C72   1.535847 S    
C40   O15   1.393268 S    
C60   H15   1.111265 S    
C20   C24   1.409537 A    
N10   O31   1.300928 A    
C55   C56   1.438870 A    
N6    O21   1.299873 A    
C78   H57   1.109960 S    
C12   C34   1.406588 A    
C2    C16   1.459822 S    
O18   C68   1.414227 S    
C73   H44   1.110433 S    
C17   C29   1.417768 A    
C43   C44   1.423448 A    
C66   C67   1.526632 S    
O29   C77   1.421091 S    
C12   C13   1.406970 A    
C82   H66   1.110549 S    
C51   N9    1.412331 S    
C67   H32   1.108190 S    
C25   C26   1.406385 A    
C54   C55   1.393947 A    
C58   N4    1.342236 A    
C44   C45   1.428423 A    
C27   O10   1.349892 S    
C8    C16   1.411145 A    
C34   C35   1.417954 A    
C13   C14   1.400134 A    
H11   C58   1.081163 S    
C9    H1    1.081860 S    
C30   H7    1.079403 S    
C62   C63   1.533638 S    
O1    C1    1.295599 A    
C21   C22   1.405065 A    
C81   H64   1.110722 S    
C63   C64   1.526364 S    
C7    C11   1.401539 A    
C51   C52   1.417139 A    
C18   C21   1.414849 A    
N11   O32   1.301237 A    
C23   C24   1.413315 A    
C52   O29   1.402758 S    
C14   C36   1.391024 A    
N3    C57   1.403778 A    
Zn2   O8    1.974778 S    
C81   C82   1.524660 S    
C25   C39   1.413000 A    
C43   N6    1.430119 S    
C62   H20   1.111723 S    
N1    C6    1.370956 A    
N2    C32   1.428330 S    
C53   C54   1.366353 A    
C45   C50   1.426405 A    
C63   H22   1.110834 S    
N1    C11   1.438174 S    
C52   C53   1.389564 A    
C59   C60   1.528576 S    
N5    O16   1.301366 A    
C55   N4    1.356231 A    
C57   N8    1.444915 S    
O3    C2    1.306501 A    
C79   H58   1.110237 S    
C9    C16   1.399632 A    
O8    C4    1.313227 A    
C14   H2    1.083492 S    
C37   H5    1.080887 S    
C68   H33   1.112277 S    
C74   H48   1.107035 S    
C59   H13   1.113995 S    
C60   C61   1.525454 S    
N12   O35   1.301598 A    
C70   H37   1.110914 S    
C59   H12   1.116296 S    
C69   C70   1.526671 S    
N7    O24   1.298296 A    
C36   H3    1.080976 S    
C71   H41   1.108730 S    
N6    O20   1.299346 A    
C78   C79   1.523023 S    
Zn1   O5    1.977997 S    
C31   C32   1.395298 A    
C26   N2    1.364213 A    
C80   H62   1.118647 S    
C82   H67   1.110696 S    
O1    Zn1   2.033774 S    
C76   H53   1.109933 S    
O2    Zn2   1.977995 S    
C6    C15   1.399551 A    
C48   C49   1.382993 A    
C70   H38   1.110507 S    
O6    C3    1.306174 A    
C69   H36   1.111281 S    
O4    Zn2   2.000013 S    
C66   H29   1.110109 S    
C72   H42   1.109186 S    
C61   H17   1.110428 S    
C51   C56   1.455633 A    
C19   C35   1.419475 A    
C74   H47   1.101719 S    
O14   C62   1.417292 S    
C10   O19   1.393332 S    
N7    O23   1.302366 A    
C7    C8    1.394168 A    
C67   H31   1.110470 S    
O2    C1    1.308029 A    
C38   C39   1.396673 A    
C47   C48   1.399045 A    
C41   O18   1.384213 S    
C67   H30   1.106410 S    
C41   C42   1.391505 A    
C72   H43   1.106097 S    
C75   C76   1.527810 S    
O4    C2    1.300639 A    
C64   H24   1.110526 S    
C22   C23   1.415037 A    
C37   C40   1.408383 A    
C76   H52   1.108850 S    
C60   H14   1.111598 S    
C72   C73   1.520261 S    
C19   C20   1.416693 A    
C65   C66   1.533535 S    
C73   H45   1.110080 S    
C42   H8    1.082634 S    
C45   C46   1.401238 A    
C18   C33   1.409746 A    
N5    O17   1.299781 A    
N8    O25   1.303102 A    
C6    O11   1.346394 S    
C54   H10   1.059801 S    
C30   C31   1.390180 A    
O13   C59   1.414130 S    
O3    Zn1   1.974781 S    
N13   O38   1.299484 A    
C33   C34   1.415143 A    
C17   C30   1.408274 A    
C63   H21   1.111557 S    
C68   H34   1.118043 S    
C10   C11   1.412418 A    
C71   H40   1.108858 S    
C62   H19   1.109935 S    
C56   N3    1.420719 A    
N12   O34   1.300672 A    
O22   C74   1.421013 S    
C28   C32   1.410418 A    
C64   H25   1.111006 S    
C18   C20   1.411527 A    
C3    C50   1.459943 S    
C75   H49   1.107112 S    
C77   C78   1.540839 S    
