data_mof_unit_1798.cif
_audit_creation_date              2012-10-26T19:10:50-0400
_audit_creation_method            fapswitch 2.2
_symmetry_space_group_name_H-M    P1
_symmetry_Int_Tables_number       1
_space_group_crystal_system       triclinic
_cell_length_a                    10.734942
_cell_length_b                    9.552483
_cell_length_c                    23.447118
_cell_angle_alpha                 88.793967
_cell_angle_beta                  94.090534
_cell_angle_gamma                 90.498487
_cell_volume                      2397.67419408

loop_
_atom_site_label
_atom_site_type_symbol
_atom_type_description
_atom_site_fract_x
_atom_site_fract_y
_atom_site_fract_z
_atom_type_partial_charge
C1    C     C_R   0.259989 0.499854 0.498841 0.548801
C2    C     C_R   0.488578 0.626640 0.117486 0.399161
C3    C     C_R   0.569860 0.418049 0.241301 -0.057339
C4    C     C_R   0.499079 0.501263 0.391363 0.553172
C5    C     C_R   0.574083 0.416286 0.300872 -0.152467
C6    C     C_R   0.495744 0.504049 0.329039 0.004837
C7    C     C_R   0.412048 0.592259 0.297333 -0.151948
C8    C     C_R   0.404627 0.590299 0.237757 -0.055728
C9    C     C_R   0.484012 0.503801 0.209205 0.228681
C10   C     C_R   0.382577 0.426272 0.753822 -0.062522
C11   C     C_R   0.391001 0.425085 0.694709 -0.162244
C12   C     C_R   0.449268 0.245236 0.971531 -0.125681
C13   C     C_R   0.489181 0.496148 0.670153 0.004988
C14   C     C_R   0.580046 0.565538 0.704820 -0.167457
C15   C     C_R   0.573968 0.563273 0.763912 -0.062217
C16   C     C_R   0.739593 0.500399 0.498802 0.533358
C17   C     C_R   0.474351 0.495125 0.788893 0.229733
C18   C     C_3   0.072066 0.652629 0.496500 -0.233537
C19   C     C_3   0.079789 0.425313 0.552578 -0.230292
C20   C     C_3   0.929719 0.652371 0.496959 -0.237781
C21   C     C_3   0.936269 0.419332 0.550777 -0.236025
C22   C     C_3   0.062985 0.424167 0.444528 -0.232805
C23   C     C_R   0.448624 0.246850 0.031000 -0.124659
C24   C     C_3   0.121812 0.500194 0.497991 0.052540
C25   C     C_3   0.877807 0.500433 0.497564 0.054591
C26   C     C_3   0.918541 0.427704 0.443435 -0.230368
C27   C     C_3   0.606312 0.083280 0.540503 0.038495
C28   C     C_3   0.618044 0.916875 0.532743 0.026063
C29   C     C_3   0.381829 0.080401 0.520090 -0.106592
C30   C     C_3   0.390769 0.915768 0.528101 -0.102693
C31   C     C_3   0.513074 0.085126 0.443298 -0.121586
C32   C     C_3   0.498024 0.919707 0.442494 -0.122226
C33   C     C_R   0.496666 0.498775 0.608432 0.538862
C34   C     C_R   0.459146 0.374050 0.060090 0.031743
C35   C     C_R   0.469876 0.622061 0.877293 0.398062
C36   C     C_R   0.461263 0.371889 0.880082 0.397795
C37   C     C_R   0.458118 0.370988 0.939826 0.032176
C38   C     C_R   0.466009 0.499145 0.968498 -0.028853
C39   C     C_R   0.472388 0.625905 0.937109 0.030753
C40   C     C_3   0.602697 0.127126 0.605383 -0.193979
C41   C     C_3   0.712752 0.223771 0.626867 -0.296157
C42   C     C_3   0.721379 0.235887 0.691955 -0.447194
C43   C     C_3   0.671662 0.834019 0.588459 -0.237680
C44   C     C_3   0.802830 0.882633 0.612934 -0.362590
C45   C     C_R   0.468518 0.500507 0.028744 -0.028776
C46   C     C_3   0.871558 0.772078 0.651237 -0.468010
C47   C     C_R   0.481301 0.628267 0.057506 0.032199
C48   C     C_R   0.487789 0.754230 0.025761 -0.125257
C49   C     C_R   0.482184 0.753150 0.966162 -0.125589
C50   C     C_R   0.460826 0.378086 0.119921 0.399276
Cu1   Cu    Cu3+1 0.499860 0.642410 0.500030 0.859535
Cu2   Cu    Cu3+1 0.499860 0.357590 0.500030 0.861682
H1    H     H_    0.442656 0.145233 0.950541 0.162023
H2    H     H_    0.889100 0.711596 0.458748 0.120848
H3    H     H_    0.906412 0.307875 0.548484 0.111072
H4    H     H_    0.094318 0.475379 0.404894 0.110537
H5    H     H_    0.094478 0.313407 0.445112 0.118899
H6    H     H_    0.880241 0.484956 0.404304 0.112724
H7    H     H_    0.880922 0.318834 0.441385 0.116372
H8    H     H_    0.441469 0.148027 0.054094 0.166505
H9    H     H_    0.694665 0.127902 0.525667 0.121492
H10   H     H_    0.695450 0.904304 0.503922 0.101235
H11   H     H_    0.353077 0.128412 0.559608 0.105362
H12   H     H_    0.319966 0.371342 0.668060 0.102091
H13   H     H_    0.395710 0.887526 0.574443 0.118429
H14   H     H_    0.441064 0.130862 0.412093 0.137007
H15   H     H_    0.409053 0.891204 0.418013 0.114455
H16   H     H_    0.605347 0.115806 0.427918 0.104884
H17   H     H_    0.574209 0.875282 0.418869 0.127568
H18   H     H_    0.303574 0.105014 0.487739 0.103882
H19   H     H_    0.302756 0.869675 0.508940 0.116681
H20   H     H_    0.496903 0.854042 0.046807 0.162472
H21   H     H_    0.487300 0.852147 0.943023 0.166731
H22   H     H_    0.633012 0.352164 0.220067 0.145754
H23   H     H_    0.646675 0.614796 0.790335 0.140544
H24   H     H_    0.639630 0.348174 0.325005 0.109677
H25   H     H_    0.350246 0.659663 0.318699 0.110902
H26   H     H_    0.336795 0.655783 0.213780 0.147516
H27   H     H_    0.304620 0.374124 0.772322 0.143456
H28   H     H_    0.657004 0.618131 0.686103 0.101070
H29   H     H_    0.629799 0.264767 0.707144 0.186899
H30   H     H_    0.750573 0.134759 0.712715 0.158347
H31   H     H_    0.791429 0.317334 0.705154 0.140802
H32   H     H_    0.802780 0.183879 0.614028 0.116956
H33   H     H_    0.705974 0.329838 0.607641 0.199552
H34   H     H_    0.099986 0.709307 0.457369 0.116641
H35   H     H_    0.512222 0.166696 0.616252 0.169382
H36   H     H_    0.601301 0.039233 0.635709 0.110085
H37   H     H_    0.829331 0.763255 0.693025 0.155661
H38   H     H_    0.868854 0.668250 0.631287 0.135756
H39   H     H_    0.970794 0.804142 0.659461 0.153774
H40   H     H_    0.861606 0.914757 0.577749 0.139104
H41   H     H_    0.795984 0.971190 0.641195 0.179954
H42   H     H_    0.604433 0.828744 0.622151 0.145082
H43   H     H_    0.687284 0.725454 0.580143 0.223349
H44   H     H_    0.117374 0.316974 0.556230 0.113378
H45   H     H_    0.112592 0.710644 0.534241 0.118845
H46   H     H_    0.116875 0.482260 0.591194 0.110469
H47   H     H_    0.903310 0.707200 0.535208 0.131075
H48   H     H_    0.903810 0.461616 0.590786 0.091685
N1    N     N_R   0.467010 0.496267 0.849962 -0.397426
N2    N     N_R   0.477421 0.502867 0.147600 -0.397821
N3    N     N_3   0.500250 0.143650 0.501250 -0.229884
N4    N     N_3   0.500250 0.856350 0.501250 -0.229103
O1    O     O_R   0.317570 0.620260 0.500030 -0.513852
O2    O     O_2   0.460935 0.249317 0.852485 -0.500706
O3    O     O_2   0.444959 0.258232 0.150133 -0.495209
O4    O     O_2   0.508531 0.747725 0.145455 -0.496314
O5    O     O_R   0.317570 0.379740 0.500030 -0.512124
O6    O     O_R   0.499840 0.620290 0.417900 -0.503586
O7    O     O_R   0.499840 0.379710 0.417900 -0.505912
O8    O     O_R   0.682190 0.620260 0.500010 -0.531339
O9    O     O_R   0.682190 0.379740 0.500010 -0.521227
O10   O     O_R   0.499920 0.620230 0.582140 -0.520216
O11   O     O_R   0.499920 0.379770 0.582140 -0.513384
O12   O     O_2   0.469996 0.743266 0.846651 -0.495137

loop_
_geom_bond_atom_site_label_1
_geom_bond_atom_site_label_2
_ccdc_geom_bond_type
C31   H14   S    
C15   H23   S    
C29   H11   S    
Cu2   N3    S    
Cu1   O8    S    
C41   C42   S    
C42   H30   S    
C16   O9    A    
C22   H5    S    
C30   H19   S    
C7    C8    A    
C46   H37   S    
Cu2   O9    S    
C12   C23   A    
C33   O10   A    
C18   H34   S    
C18   C24   S    
C40   H35   S    
C36   C37   A    
C19   C21   S    
C38   C39   A    
C20   C25   S    
C2    N2    A    
C10   C17   A    
C43   H42   S    
C29   N3    S    
C27   N3    S    
C12   C37   A    
C3    H22   S    
C17   N1    S    
C38   C45   A    
C21   C25   S    
C44   H41   S    
C27   H9    S    
C1    O5    A    
C47   C48   A    
C8    C9    A    
C43   H43   S    
C32   N4    S    
C18   H45   S    
C14   H28   S    
C29   C30   S    
C26   H7    S    
C12   H1    S    
C44   H40   S    
C7    H25   S    
C22   C24   S    
C13   C14   A    
C8    H26   S    
C31   H16   S    
C42   H29   S    
C48   H20   S    
C19   H46   S    
C44   C46   S    
C45   C47   A    
C23   H8    S    
C34   C50   A    
Cu1   O10   S    
C33   O11   A    
C36   O2    S    
Cu1   Cu2   S    
C20   H2    S    
C11   H12   S    
C21   H3    S    
C21   H48   S    
C9    N2    S    
C22   H4    S    
C46   H39   S    
Cu2   O7    S    
C3    C5    A    
C25   C26   S    
C41   H32   S    
C36   N1    A    
C31   N3    S    
C35   C39   A    
C43   C44   S    
C13   C33   S    
C37   C38   A    
C3    C9    A    
C28   N4    S    
C31   C32   S    
C27   C40   S    
Cu1   O1    S    
C23   C34   A    
C35   O12   S    
C34   C45   A    
C26   H6    S    
C6    C7    A    
C32   H15   S    
C4    C6    S    
C40   C41   S    
C39   C49   A    
C4    O7    A    
C50   N2    A    
Cu1   O6    S    
C50   O3    S    
C49   H21   S    
C16   O8    A    
C29   H18   S    
Cu2   O11   S    
C16   C25   S    
C15   C17   A    
C4    O6    A    
C48   C49   A    
C42   H31   S    
C35   N1    A    
C10   H27   S    
C32   H17   S    
C46   H38   S    
C2    C47   A    
C41   H33   S    
C28   C43   S    
C40   H36   S    
C5    H24   S    
C19   C24   S    
Cu1   N4    S    
C11   C13   A    
C5    C6    A    
C20   H47   S    
Cu2   O5    S    
C2    O4    S    
C18   C20   S    
C30   H13   S    
C10   C11   A    
C1    C24   S    
C22   C26   S    
C30   N4    S    
C27   C28   S    
C14   C15   A    
C19   H44   S    
C1    O1    A    
C28   H10   S    
