data_mof_unit_4206.cif
_audit_creation_date              2012-12-10T16:50:10-0500
_audit_creation_method            fapswitch 2.2
_symmetry_space_group_name_H-M    P1
_symmetry_Int_Tables_number       1
_space_group_crystal_system       triclinic
_cell_length_a                    7.805712
_cell_length_b                    8.560147
_cell_length_c                    10.654244
_cell_angle_alpha                 92.20318
_cell_angle_beta                  85.178647
_cell_angle_gamma                 93.542292
_cell_volume                      707.625674094

loop_
_atom_site_label
_atom_site_type_symbol
_atom_type_description
_atom_site_fract_x
_atom_site_fract_y
_atom_site_fract_z
_atom_type_partial_charge
C1    C     C_R   0.545528 0.794351 0.493114 1.001892
C2    C     C_R   0.454461 0.205365 0.500784 0.934726
C3    C     C_R   0.499228 0.500643 0.260872 0.862516
C4    C     C_R   0.415501 0.795453 0.889781 0.468522
C5    C     C_R   0.365378 0.923525 0.968468 -0.180306
C6    C     C_R   0.361492 0.916129 0.098100 -0.191865
C7    C     C_R   0.406322 0.781107 0.151629 -0.155559
C8    C     C_R   0.452389 0.648318 0.075876 0.028620
C9    C     C_R   0.456409 0.653142 0.943871 0.003426
C10   C     C_R   0.504409 0.515489 0.872420 -0.218200
C11   C     C_R   0.552647 0.380506 0.929757 0.405566
C12   C     C_R   0.553447 0.382254 0.057938 -0.195360
C13   C     C_R   0.499770 0.511436 0.129317 -0.147066
C14   C     C_2   0.569568 0.957681 0.487530 -0.361115
C15   C     C_2   0.430449 0.041741 0.497469 -0.408519
C16   C     C_R   0.502149 0.508125 0.739451 0.965152
H1    H     H_    0.986943 0.619509 0.595084 0.155907
H2    H     H_    0.935869 0.300712 0.342257 0.339997
H3    H     H_    0.331631 0.031046 0.928927 0.157965
H4    H     H_    0.325782 0.016410 0.157477 0.163209
H5    H     H_    0.405602 0.783064 0.252962 0.151462
H6    H     H_    0.590339 0.279093 0.102892 0.166920
H7    H     H_    0.701109 0.008371 0.478456 0.190601
H8    H     H_    0.298921 0.990961 0.505982 0.190317
H9    H     H_    0.548533 0.236368 0.782478 0.321337
H10   H     H_    0.394087 0.915812 0.741210 0.328268
N1    N     N_2   0.950330 0.457950 0.466250 0.098217
N2    N     N_2   0.049670 0.542050 0.533750 -0.067708
O1    O     O_R   0.389250 0.738570 0.508280 -0.606889
O2    O     O_3   0.429619 0.811009 0.761275 -0.780127
O3    O     O_3   0.029782 0.356193 0.386277 -0.627948
O4    O     O_R   0.678390 0.711630 0.486650 -0.638888
O5    O     O_R   0.355400 0.513470 0.694050 -0.591417
O6    O     O_R   0.644540 0.486530 0.672420 -0.624981
O7    O     O_R   0.321610 0.288370 0.513350 -0.572259
O8    O     O_R   0.610750 0.261430 0.491720 -0.627856
O9    O     O_R   0.355460 0.513470 0.327580 -0.572750
O10   O     O_R   0.644600 0.486530 0.305950 -0.629827
O11   O     O_3   0.598365 0.244090 0.864943 -0.762139
Zn1   Zn    Zn3+2 0.306930 0.517990 0.514440 1.035245
Zn2   Zn    Zn3+2 0.693070 0.482010 0.485560 0.990917

loop_
_geom_bond_atom_site_label_1
_geom_bond_atom_site_label_2
_ccdc_geom_bond_type
C2    O7    A    
C14   H7    S    
O4    Zn2   S    
C6    C7    A    
C5    H3    S    
C16   O5    A    
C6    H4    S    
C9    C10   A    
N1    Zn2   S    
C3    C13   S    
C11   C12   A    
C1    O1    A    
O7    Zn1   S    
C7    C8    A    
C10   C16   S    
H9    O11   S    
C11   O11   S    
C2    C15   S    
O8    Zn2   S    
C8    C13   A    
O6    Zn2   S    
O1    Zn1   S    
C15   H8    S    
H2    O3    S    
H10   O2    S    
O9    Zn1   S    
C5    C6    A    
O5    Zn1   S    
C10   C11   A    
N2    Zn1   S    
N1    O3    S    
C12   H6    S    
C12   C13   A    
C3    O9    A    
O10   Zn2   S    
C2    O8    A    
N1    N2    D    
C14   C15   D    
C8    C9    A    
C1    C14   S    
C16   O6    A    
C4    C9    A    
C7    H5    S    
H1    N2    S    
C1    O4    A    
C4    O2    S    
C3    O10   A    
C4    C5    A    
