data_mof_unit_4723.cif
_audit_creation_date              2013-03-05T15:48:15-0500
_audit_creation_method            fapswitch 2.2
_symmetry_space_group_name_H-M    P1
_symmetry_Int_Tables_number       1
_space_group_crystal_system       triclinic
_cell_length_a                    11.9093
_cell_length_b                    13.040866
_cell_length_c                    15.799375
_cell_angle_alpha                 96.259213
_cell_angle_beta                  75.666424
_cell_angle_gamma                 100.703417
_cell_volume                      2330.8886064

loop_
_atom_site_label
_atom_site_type_symbol
_atom_site_description
_atom_site_fract_x
_atom_site_fract_y
_atom_site_fract_z
_atom_type_partial_charge
O1    O     O_R   0.419950 0.645670 0.495380 -0.587109
O2    O     O_R   0.580050 0.354330 0.504620 -0.588346
O3    O     O_R   0.611110 0.658410 0.506370 -0.592586
O4    O     O_R   0.388890 0.341590 0.493630 -0.587723
C1    C     C_R   0.522913 0.701267 0.500450 0.813323
C2    C     C_R   0.476589 0.299600 0.501923 0.808041
O5    O     O_R   0.350820 0.490050 0.621260 -0.596002
O6    O     O_R   0.649180 0.509950 0.378740 -0.592041
O7    O     O_R   0.541970 0.502800 0.632250 -0.580299
O8    O     O_R   0.458030 0.497200 0.367750 -0.583025
C3    C     C_R   0.428298 0.482898 0.666221 0.829535
C4    C     C_R   0.571737 0.513163 0.332926 0.824143
Cu1   Cu    Cu3+1 0.386820 0.492450 0.493500 0.926786
Cu2   Cu    Cu3+1 0.613180 0.507550 0.506500 0.926338
C5    C     C_R   0.388093 0.451579 0.758929 -0.129319
C6    C     C_R   0.614752 0.531086 0.237494 -0.131135
C7    C     C_R   0.237020 0.420443 0.894460 0.351033
C8    C     C_R   0.776542 0.561498 0.108217 0.348249
C9    C     C_R   0.268195 0.438658 0.804661 0.021032
C10   C     C_R   0.735166 0.563388 0.199984 0.017157
C11   C     C_R   0.471736 0.431827 0.802735 0.060141
C12   C     C_R   0.535247 0.520308 0.183104 0.055594
C13   C     C_R   0.443460 0.434756 0.895435 0.009650
C14   C     C_R   0.575717 0.500918 0.091292 0.008999
C15   C     C_R   0.323615 0.413051 0.939481 -0.038737
C16   C     C_R   0.697395 0.529969 0.051871 -0.042687
C17   C     C_R   0.529868 0.463288 0.946312 0.062269
C18   C     C_R   0.495987 0.457126 0.037890 0.062686
C19   C     C_R   0.383476 0.403924 0.074076 -0.195810
C20   C     C_R   0.646442 0.505806 0.909352 -0.192723
C21   C     C_R   0.295442 0.385631 0.027746 0.143237
C22   C     C_R   0.731960 0.530905 0.958438 0.134963
H1    H     H_    0.362665 0.379138 0.140056 0.157329
H2    H     H_    0.672480 0.521799 0.841292 0.156162
C23   C     C_R   0.459411 0.185901 0.508076 -0.127421
C24   C     C_R   0.539651 0.816733 0.499704 -0.126095
C25   C     C_R   0.658328 0.989811 0.474489 0.386053
C26   C     C_R   0.340580 0.015755 0.543292 0.382545
C27   C     C_R   0.652076 0.881955 0.481589 0.033637
C28   C     C_R   0.348440 0.124937 0.541674 0.042310
C29   C     C_R   0.438161 0.862440 0.518141 -0.222709
C30   C     C_R   0.559825 0.139152 0.483870 -0.225374
C31   C     C_R   0.443806 0.970176 0.518282 -0.033752
C32   C     C_R   0.554405 0.033206 0.492185 -0.030727
H3    H     H_    0.643594 0.186779 0.458782 0.205123
H4    H     H_    0.353609 0.813161 0.533419 0.202939
N1    N     N_R   0.216750 0.481110 0.483710 -0.178278
N2    N     N_R   0.783250 0.518890 0.516290 -0.178559
C33   C     C_R   0.943790 0.599844 0.582388 -0.282397
C34   C     C_R   0.055056 0.398549 0.418761 -0.266808
C35   C     C_R   0.826147 0.588699 0.577462 0.328955
C36   C     C_R   0.171853 0.407401 0.425682 0.330680
C37   C     C_R   0.858699 0.455773 0.462308 0.309170
C38   C     C_R   0.141931 0.546064 0.535849 0.295918
C39   C     C_R   0.978122 0.463421 0.469750 0.000855
C40   C     C_R   0.021932 0.537246 0.529364 -0.002129
H5    H     H_    0.971628 0.658496 0.630042 0.184550
H6    H     H_    0.026019 0.338821 0.372181 0.184445
C41   C     C_3   0.175892 0.330949 0.073102 -0.705642
H7    H     H_    0.179641 0.293075 0.131806 0.199122
H8    H     H_    0.114693 0.388034 0.095833 0.288501
H9    H     H_    0.141540 0.267977 0.028423 0.256099
C42   C     C_3   0.856416 0.561888 0.906712 -0.688889
H10   H     H_    0.864215 0.550938 0.834843 0.183863
H11   H     H_    0.887920 0.645872 0.920652 0.271442
H12   H     H_    0.913255 0.511127 0.920756 0.300218
C43   C     C_3   0.240692 0.330604 0.366283 -0.786209
H13   H     H_    0.234471 0.335107 0.297833 0.185724
H14   H     H_    0.334110 0.342184 0.364814 0.274551
H15   H     H_    0.201836 0.250024 0.385713 0.228042
C44   C     C_3   0.751766 0.653269 0.646216 -0.789790
H16   H     H_    0.799449 0.734474 0.652071 0.211857
H17   H     H_    0.667340 0.660116 0.634027 0.275244
H18   H     H_    0.735452 0.619721 0.710525 0.201547
C45   C     C_3   0.420172 0.561843 0.218702 -0.754209
H19   H     H_    0.389055 0.589666 0.165929 0.239380
H20   H     H_    0.350522 0.501722 0.252958 0.238148
H21   H     H_    0.432736 0.631068 0.265129 0.239648
C46   C     C_3   0.571984 0.376394 0.751886 -0.761547
H22   H     H_    0.647765 0.431680 0.717795 0.242423
H23   H     H_    0.603131 0.332415 0.795533 0.233257
H24   H     H_    0.541235 0.317820 0.702454 0.236322
C47   C     C_3   0.818904 0.612884 0.257101 -0.656667
H25   H     H_    0.773286 0.661714 0.311329 0.204286
H26   H     H_    0.852831 0.551892 0.282493 0.242412
H27   H     H_    0.894720 0.667921 0.222750 0.265242
C48   C     C_3   0.171407 0.445266 0.759862 -0.710315
H28   H     H_    0.175829 0.390637 0.700701 0.230455
H29   H     H_    0.081479 0.423292 0.800159 0.257112
H30   H     H_    0.180036 0.526940 0.744235 0.237593
N3    N     N_R   0.126620 0.444544 0.943506 0.118137
O9    O     O_R   0.114472 0.542416 0.951817 -0.298851
O10   O     O_R   0.033752 0.372289 0.953216 -0.380858
N4    N     N_R   0.900817 0.583652 0.075400 0.135779
O11   O     O_R   0.963320 0.524722 0.098849 -0.312269
O12   O     O_R   0.949145 0.678894 0.056420 -0.340384
C49   C     C_3   0.241344 0.176090 0.581494 -0.689536
H31   H     H_    0.209611 0.204317 0.529382 0.246529
H32   H     H_    0.167300 0.122737 0.619794 0.267213
H33   H     H_    0.263941 0.242338 0.627975 0.204985
C50   C     C_3   0.764770 0.839618 0.472731 -0.678749
H34   H     H_    0.845254 0.899181 0.459804 0.273796
H35   H     H_    0.763026 0.806909 0.534693 0.231157
H36   H     H_    0.775292 0.779304 0.418274 0.220539
N5    N     N_R   0.770448 0.056051 0.451440 0.088524
O13   O     O_R   0.809756 0.120349 0.510498 -0.368263
O14   O     O_R   0.832591 0.052735 0.371198 -0.360832
N6    N     N_R   0.228431 0.951731 0.572591 0.089272
O15   O     O_R   0.203018 0.909914 0.647516 -0.376541
O16   O     O_R   0.148852 0.941371 0.527395 -0.352871
C51   C     C_3   0.182649 0.630541 0.600268 -0.752259
H37   H     H_    0.268650 0.630807 0.612278 0.271374
H38   H     H_    0.181068 0.707733 0.577928 0.246286
H39   H     H_    0.122049 0.622860 0.665590 0.189978
C52   C     C_3   0.819659 0.375451 0.394054 -0.768415
H40   H     H_    0.730928 0.371067 0.386250 0.271416
H41   H     H_    0.877626 0.391715 0.328563 0.199314
H42   H     H_    0.825909 0.296336 0.410179 0.244259

loop_
_geom_bond_atom_site_label_1
_geom_bond_atom_site_label_2
_geom_bond_distance
_ccdc_geom_bond_type
C15   C21   1.420444 A    
C26   C28   1.412070 A    
C48   H28   1.108308 S    
C42   H11   1.106557 S    
C16   C22   1.431744 A    
C50   H34   1.106755 S    
C51   H37   1.086190 S    
C7    N3    1.422618 S    
C31   C32   1.408327 A    
C46   H24   1.111372 S    
C49   H31   1.108169 S    
C2    C23   1.469248 S    
O5    C3    1.317444 A    
N5    O14   1.300855 A    
C35   C44   1.508264 S    
O1    C1    1.319639 A    
C18   C19   1.401969 A    
C14   C16   1.425475 A    
C9    C48   1.513674 S    
C52   H40   1.084290 S    
C1    C24   1.482715 S    
C19   H1    1.080909 S    
C33   H5    1.079636 S    
N6    O15   1.300913 A    
C21   C41   1.509384 S    
O4    Cu1   1.972303 S    
C23   C30   1.393383 A    
C3    C5    1.500675 S    
N2    C35   1.379757 A    
C4    C6    1.496767 S    
C33   C35   1.402145 A    
C8    C16   1.428897 A    
C34   C36   1.404629 A    
C29   H4    1.076252 S    
C13   C17   1.430278 A    
C6    C10   1.412238 A    
C42   H12   1.103855 S    
C41   H7    1.111199 S    
C50   H35   1.103838 S    
Cu1   Cu2   2.723306 S    
C17   C20   1.399675 A    
C29   C31   1.393840 A    
C24   C29   1.398722 A    
O2    C2    1.312296 A    
C30   C32   1.390177 A    
C12   C45   1.521695 S    
C49   H32   1.107952 S    
C27   C50   1.513617 S    
C37   C39   1.440176 A    
N2    C37   1.398025 A    
C38   C40   1.440466 A    
C41   H8    1.108158 S    
C20   H2    1.075048 S    
C43   H13   1.110690 S    
C34   H6    1.081135 S    
O4    C2    1.305259 A    
C28   C49   1.514849 S    
C44   H17   1.090403 S    
O7    Cu2   1.960453 S    
Cu2   N2    2.046207 S    
C52   H41   1.109947 S    
C46   H22   1.107568 S    
C6    C12   1.407774 A    
C43   H14   1.089340 S    
C30   H3    1.079760 S    
C5    C9    1.419754 A    
C45   H19   1.110439 S    
C25   N5    1.435668 S    
N3    O10   1.301936 A    
C45   H20   1.106505 S    
C47   H25   1.101706 S    
C5    C11   1.418873 A    
O6    C4    1.314471 A    
C52   H42   1.109117 S    
C11   C46   1.520661 S    
C39   C40   1.394712 A    
C51   H38   1.107283 S    
N4    O12   1.301571 A    
O7    C3    1.314604 A    
O3    Cu2   1.972303 S    
O8    C4    1.315749 A    
N1    C38   1.398150 A    
C47   H26   1.107278 S    
C50   H36   1.100132 S    
C11   C13   1.417136 A    
C8    N4    1.427108 S    
C12   C14   1.421093 A    
C10   C47   1.518211 S    
O1    Cu1   1.961904 S    
N3    O9    1.299932 A    
C49   H33   1.109618 S    
Cu1   N1    2.046208 S    
C41   H9    1.109878 S    
O6    Cu2   1.959476 S    
C24   C27   1.427711 A    
C14   C18   1.424714 A    
C22   C42   1.509237 S    
C36   C43   1.508294 S    
O3    C1    1.304787 A    
O8    Cu1   1.960453 S    
C44   H18   1.108653 S    
N1    C36   1.382033 A    
C33   C40   1.407593 A    
N5    O13   1.301053 A    
C46   H23   1.110842 S    
C34   C39   1.406413 A    
C43   H15   1.109958 S    
C7    C15   1.412049 A    
C25   C32   1.408725 A    
C48   H29   1.105723 S    
C23   C28   1.419449 A    
C26   C31   1.414361 A    
C25   C27   1.409911 A    
C20   C22   1.399198 A    
C7    C9    1.409646 A    
N6    O16   1.301086 A    
C38   C51   1.511989 S    
C51   H39   1.105850 S    
C8    C10   1.410148 A    
C13   C15   1.415139 A    
C26   N6    1.434993 S    
N4    O11   1.301174 A    
O2    Cu2   1.961903 S    
C45   H21   1.111378 S    
C42   H10   1.111612 S    
O5    Cu1   1.959474 S    
C47   H27   1.107488 S    
C44   H16   1.110748 S    
C19   C21   1.393161 A    
C48   H30   1.100032 S    
C17   C18   1.409586 A    
C37   C52   1.515684 S    
