data_mof_unit_4172.cif
_audit_creation_date              2012-12-11T17:25:00-0500
_audit_creation_method            fapswitch 2.2
_symmetry_space_group_name_H-M    P1
_symmetry_Int_Tables_number       1
_space_group_crystal_system       triclinic
_cell_length_a                    6.950906
_cell_length_b                    20.748501
_cell_length_c                    24.370405
_cell_angle_alpha                 89.990493
_cell_angle_beta                  89.7828
_cell_angle_gamma                 88.946675
_cell_volume                      3514.1020707

loop_
_atom_site_label
_atom_site_type_symbol
_atom_type_description
_atom_site_fract_x
_atom_site_fract_y
_atom_site_fract_z
_atom_type_partial_charge
O1    O     O_R   0.507280 0.423750 0.460310 -0.538990
O2    O     O_R   0.171030 0.555650 0.437630 -0.537920
O3    O     O_R   0.004080 0.576250 0.539690 -0.535311
C1    C     C_R   0.339524 0.574341 0.421028 0.723789
O4    O     O_R   0.177330 0.422980 0.453960 -0.542680
O5    O     O_R   0.010420 0.442640 0.556140 -0.533619
C2    C     C_R   0.348361 0.400473 0.442129 0.702993
O6    O     O_R   0.500930 0.557360 0.443860 -0.534788
O7    O     O_3   0.340310 0.506600 0.533500 -0.363339
V1    V     V_3+5 0.064140 0.498780 0.493780 1.397251
O8    O     O_R   0.680890 0.444350 0.562370 -0.536361
C3    C     C_R   0.850308 0.424195 0.578053 0.728216
O9    O     O_R   0.674590 0.577020 0.546040 -0.537497
C4    C     C_R   0.841125 0.601002 0.556513 0.696162
V2    V     V_3+5 0.564550 0.501220 0.506220 1.411924
O10   O     O_3   0.838250 0.493400 0.466500 -0.369220
C5    C     C_R   0.979194 0.839870 0.909594 -0.108181
C6    C     C_R   0.838021 0.661705 0.588179 -0.045078
C7    C     C_R   0.040852 0.724881 0.903650 -0.174840
C8    C     C_R   0.016845 0.780289 0.935978 0.049818
C9    C     C_R   0.951348 0.842943 0.851468 -0.000216
C10   C     C_R   0.940477 0.783354 0.821024 0.069906
C11   C     C_R   0.007815 0.726327 0.847088 0.085287
C12   C     C_R   0.872797 0.777474 0.765531 0.027091
C13   C     C_R   0.919203 0.721485 0.733503 0.050408
C14   C     C_R   0.009826 0.669009 0.760338 -0.173486
C15   C     C_R   0.043735 0.670441 0.816441 -0.185190
C16   C     C_R   0.742062 0.822427 0.743527 -0.218342
C17   C     C_R   0.691001 0.822435 0.688196 0.058393
C18   C     C_R   0.754094 0.770965 0.654042 0.108626
C19   C     C_R   0.863248 0.718559 0.676834 0.057336
C20   C     C_R   0.699276 0.768636 0.598384 -0.175285
C21   C     C_R   0.738271 0.714558 0.566462 -0.165976
C22   C     C_R   0.905355 0.664295 0.642417 -0.206489
C23   C     C_R   0.730039 0.271147 0.732844 -0.156936
C24   C     C_R   0.893805 0.292946 0.705020 0.136780
C25   C     C_R   0.075809 0.269062 0.720816 -0.156821
C26   C     C_R   0.093873 0.224350 0.763952 -0.157183
C27   C     C_R   0.930162 0.202804 0.791952 0.137452
C28   C     C_R   0.748106 0.226443 0.775977 -0.155571
C29   C     C_1   0.875574 0.339625 0.660493 -0.062116
C30   C     C_1   0.948575 0.157279 0.837314 -0.060606
C31   C     C_1   0.961808 0.119685 0.875511 -0.195597
C32   C     C_1   0.862342 0.378412 0.623154 -0.194678
C33   C     C_R   0.533977 0.743638 0.213442 -0.207306
C34   C     C_R   0.394333 0.791199 0.202565 0.117431
C35   C     C_R   0.222353 0.793746 0.235874 0.058340
C36   C     C_R   0.202923 0.749217 0.281490 0.056449
C37   C     C_R   0.352034 0.701933 0.290894 0.112996
C38   C     C_R   0.512848 0.699892 0.256266 -0.211910
C39   C     C_1   0.437970 0.835664 0.157260 -0.076430
C40   C     C_1   0.351007 0.655336 0.335916 -0.058341
C41   C     C_1   0.348093 0.617669 0.374265 -0.220420
C42   C     C_1   0.468907 0.873833 0.120052 -0.228856
C43   C     C_R   0.456118 0.163305 0.087050 -0.059638
C44   C     C_R   0.363152 0.340911 0.409398 -0.097996
C45   C     C_R   0.296150 0.267145 0.095536 -0.168784
C46   C     C_R   0.342468 0.212734 0.064690 -0.162209
C47   C     C_R   0.523546 0.169870 0.141273 -0.212037
C48   C     C_R   0.448552 0.218822 0.177118 0.071199
C49   C     C_R   0.344955 0.270267 0.151296 0.144836
C50   C     C_R   0.461616 0.218601 0.236905 0.021024
C51   C     C_R   0.409728 0.277096 0.265701 0.045280
C52   C     C_R   0.315499 0.327251 0.237062 -0.201822
C53   C     C_R   0.281984 0.323568 0.181379 -0.202350
C54   C     C_R   0.496573 0.162302 0.270529 0.079236
C55   C     C_R   0.462753 0.165502 0.327354 -0.233963
C56   C     C_R   0.415783 0.222989 0.354444 0.048133
C57   C     C_R   0.420005 0.280921 0.324197 0.044893
C58   C     C_R   0.363185 0.223557 0.411031 0.098313
C59   C     C_R   0.325877 0.283264 0.436347 -0.202797
C60   C     C_R   0.424749 0.340290 0.353871 0.003246
O11   O     O_R   0.323320 0.942780 0.056240 -0.538520
O12   O     O_R   0.647300 0.077050 0.046060 -0.541545
O13   O     O_R   0.813840 0.057330 0.943840 -0.531979
C61   C     C_R   0.476744 0.101909 0.055823 0.705523
O14   O     O_R   0.653250 0.944380 0.062400 -0.536147
O15   O     O_R   0.819830 0.923720 0.960300 -0.538024
C62   C     C_R   0.485063 0.921500 0.076060 0.736698
O16   O     O_R   0.317330 0.076390 0.039790 -0.533751
O17   O     O_3   0.483830 0.993470 0.966560 -0.365049
V3    V     V_3+5 0.760140 0.001210 0.006210 1.393644
O18   O     O_R   0.149290 0.922840 0.953850 -0.540939
C63   C     C_R   0.982245 0.899179 0.943390 0.686335
O19   O     O_R   0.143340 0.055500 0.937510 -0.537895
C64   C     C_R   0.973890 0.075234 0.921539 0.725230
V4    V     V_3+5 0.259690 0.998600 0.993650 1.402460
O20   O     O_3   0.986130 0.006520 0.033440 -0.369075
H1    H     H_    0.102279 0.627425 0.835935 0.120161
H2    H     H_    0.618357 0.807282 0.579095 0.122630
H3    H     H_    0.619914 0.210489 0.797009 0.112012
H4    H     H_    0.588251 0.288820 0.721315 0.111433
H5    H     H_    0.204030 0.285119 0.699860 0.111548
H6    H     H_    0.235679 0.206767 0.775561 0.111304
H7    H     H_    0.626540 0.664319 0.263028 0.136978
H8    H     H_    0.662793 0.740212 0.188331 0.126340
C65   C     C_3   0.051285 0.840657 0.225597 -0.400814
C66   C     C_3   0.066682 0.892476 0.181616 -0.302704
C67   C     C_3   0.897056 0.939937 0.183865 -0.776045
H9    H     H_    0.761178 0.913527 0.180664 0.242630
H10   H     H_    0.897018 0.967328 0.223043 0.217166
H11   H     H_    0.907071 0.974679 0.149369 0.234275
H12   H     H_    0.195356 0.920157 0.190385 0.217754
H13   H     H_    0.072599 0.870152 0.140174 0.214688
H14   H     H_    0.923693 0.811779 0.215172 0.178662
H15   H     H_    0.020932 0.867094 0.264335 0.181857
C68   C     C_3   0.022009 0.756952 0.318471 -0.393376
C69   C     C_3   0.984540 0.710096 0.365912 -0.289700
C70   C     C_3   0.795713 0.726706 0.395383 -0.785825
H16   H     H_    0.805010 0.774324 0.415940 0.223337
H17   H     H_    0.674462 0.728188 0.365997 0.242435
H18   H     H_    0.766406 0.689456 0.426892 0.216809
H19   H     H_    0.974405 0.660174 0.349800 0.208276
H20   H     H_    0.100286 0.713862 0.396934 0.205247
H21   H     H_    0.025336 0.805690 0.337250 0.175408
H22   H     H_    0.893486 0.754429 0.291761 0.185386
H23   H     H_    0.201587 0.362467 0.161831 0.122478
H24   H     H_    0.981998 0.622144 0.657011 0.099251
C71   C     C_3   0.538732 0.397139 0.332023 -0.382263
C72   C     C_3   0.752047 0.389176 0.347500 -0.262298
C73   C     C_3   0.868640 0.446924 0.328911 -0.736426
H25   H     H_    0.861605 0.452190 0.283602 0.212154
H26   H     H_    0.812449 0.491810 0.348543 0.232433
H27   H     H_    0.021532 0.439638 0.340892 0.206342
H28   H     H_    0.767713 0.383576 0.392575 0.214403
H29   H     H_    0.812889 0.344954 0.327729 0.188513
H30   H     H_    0.533030 0.401736 0.286942 0.182277
H31   H     H_    0.479221 0.443319 0.348482 0.155426
H32   H     H_    0.280201 0.286076 0.478741 0.108312
H33   H     H_    0.472209 0.121346 0.350770 0.115292
H34   H     H_    0.212417 0.305557 0.076442 0.113732
H35   H     H_    0.289881 0.209248 0.023010 0.113043
H36   H     H_    0.631235 0.136030 0.153844 0.128065
H37   H     H_    0.251189 0.367971 0.258579 0.131228
C74   C     C_3   0.542229 0.094897 0.249947 -0.337553
C75   C     C_3   0.369058 0.066343 0.220382 -0.294991
C76   C     C_3   0.434576 0.015080 0.179877 -0.776975
H38   H     H_    0.559430 0.030333 0.155058 0.221354
H39   H     H_    0.476651 0.970832 0.202668 0.222728
H40   H     H_    0.314981 0.005875 0.151191 0.221837
H41   H     H_    0.270450 0.044569 0.250981 0.182961
H42   H     H_    0.282457 0.103507 0.198392 0.204547
H43   H     H_    0.679965 0.093677 0.227223 0.156609
H44   H     H_    0.577213 0.061238 0.284200 0.153127
C77   C     C_3   0.342450 0.160490 0.442897 -0.366181
C78   C     C_3   0.271742 0.166365 0.502625 -0.310133
C79   C     C_3   0.254016 0.100094 0.529201 -0.774180
H45   H     H_    0.146608 0.071004 0.507005 0.225834
H46   H     H_    0.395254 0.074215 0.528600 0.230604
H47   H     H_    0.206335 0.105735 0.572506 0.223824
H48   H     H_    0.375507 0.194702 0.526949 0.195263
H49   H     H_    0.128102 0.190822 0.503797 0.196290
H50   H     H_    0.239231 0.129839 0.420488 0.174812
H51   H     H_    0.485116 0.135364 0.443467 0.170962
H52   H     H_    0.683870 0.713061 0.524893 0.108861
C80   C     C_3   0.564616 0.877841 0.667874 -0.364472
C81   C     C_3   0.685266 0.927827 0.637463 -0.296986
C82   C     C_3   0.559750 0.983330 0.616029 -0.785899
H53   H     H_    0.449449 0.964985 0.587409 0.229929
H54   H     H_    0.487292 0.008954 0.650583 0.230619
H55   H     H_    0.650912 0.018122 0.593693 0.219056
H56   H     H_    0.794284 0.947475 0.665891 0.201431
H57   H     H_    0.762926 0.905188 0.602319 0.192237
H58   H     H_    0.446351 0.859873 0.641825 0.171099
H59   H     H_    0.492167 0.902290 0.703031 0.174274
H60   H     H_    0.084640 0.679612 0.922189 0.112678
C83   C     C_3   0.040550 0.778549 0.998355 -0.342772
C84   C     C_3   0.058960 0.711437 0.024709 -0.326832
C85   C     C_3   0.063905 0.716396 0.087242 -0.758487
H61   H     H_    0.189118 0.744936 0.100378 0.238175
H62   H     H_    0.929571 0.739756 0.102987 0.224352
H63   H     H_    0.077374 0.667421 0.105345 0.218877
H64   H     H_    0.934310 0.681745 0.012798 0.198728
H65   H     H_    0.194377 0.687187 0.010732 0.194274
H66   H     H_    0.169714 0.806541 0.009395 0.173530
H67   H     H_    0.912640 0.803223 0.016944 0.169735
C86   C     C_3   0.964491 0.909194 0.823233 -0.336703
C87   C     C_3   0.126541 0.911918 0.780278 -0.302069
C88   C     C_3   0.144772 0.980233 0.757554 -0.787224
H68   H     H_    0.006339 0.996909 0.739345 0.231295
H69   H     H_    0.185819 0.014020 0.790696 0.232534
H70   H     H_    0.256993 0.981124 0.725182 0.214333
H71   H     H_    0.265299 0.896972 0.799425 0.192245
H72   H     H_    0.098453 0.878939 0.745558 0.205441
H73   H     H_    0.826477 0.926101 0.805854 0.159966
H74   H     H_    0.995643 0.947738 0.853096 0.159836
H75   H     H_    0.046861 0.624480 0.739916 0.119568
H76   H     H_    0.667648 0.855684 0.770305 0.125202

loop_
_geom_bond_atom_site_label_1
_geom_bond_atom_site_label_2
_ccdc_geom_bond_type
C22   H24   S    
O18   V4    S    
V4    O20   S    
C13   C19   A    
C81   C82   S    
C43   C47   A    
C1    C41   S    
C85   H61   S    
C4    C6    S    
O2    C1    A    
C79   H45   S    
C1    O6    A    
C65   C66   S    
C74   C75   S    
O19   C64   A    
C72   C73   S    
C84   H65   S    
C76   H39   S    
C14   C15   A    
C25   C26   A    
O12   C61   A    
C33   C38   A    
C16   C17   A    
C79   H46   S    
C78   C79   S    
O16   V4    S    
C16   H76   S    
O5    C3    A    
C26   C27   A    
C72   H29   S    
C38   H7    S    
C36   C68   S    
V2    O10   S    
C66   C67   S    
C5    C8    A    
C86   H73   S    
C69   C70   S    
C60   C71   S    
C48   C50   A    
C69   H20   S    
O11   V4    S    
C73   H27   S    
C75   H42   S    
C82   H55   S    
O8    V2    S    
C20   H2    S    
C7    C8    A    
C46   H35   S    
C56   C57   A    
C44   C60   A    
C68   C69   S    
C58   C59   A    
O1    V2    S    
C7    H60   S    
C11   C15   A    
C17   C18   A    
O7    V1    S    
C81   H57   S    
C87   H71   S    
V3    O20   S    
C88   H70   S    
C65   H14   S    
C23   H4    S    
C37   C40   S    
C74   H43   S    
C54   C55   A    
C47   C48   A    
O9    C4    A    
C82   H54   S    
C85   H62   S    
C24   C29   S    
C2    C44   S    
O12   V3    S    
C77   C78   S    
C27   C30   S    
O19   V4    S    
C84   H64   S    
C76   H40   S    
C52   H37   S    
C19   C22   A    
C50   C54   A    
C51   C52   A    
C55   C56   A    
C35   C36   A    
C87   C88   S    
C79   H47   S    
C12   C13   A    
C70   H18   S    
C83   C84   S    
O4    C2    A    
C72   H28   S    
C13   C14   A    
C33   C34   A    
C34   C39   S    
C47   H36   S    
O17   V3    S    
C86   H74   S    
C78   H48   S    
C48   C49   A    
C23   C24   A    
C80   C81   S    
C69   H19   S    
C57   C60   A    
C7    C11   A    
C50   C51   A    
C49   C53   A    
C59   H32   S    
C14   H75   S    
O15   V3    S    
O13   C64   A    
O18   C63   A    
C54   C74   S    
O8    C3    A    
C44   C59   A    
C26   H6    S    
O11   C62   A    
O14   C62   A    
C25   H5    S    
C58   C77   S    
C6    C22   A    
C68   H21   S    
C73   H25   S    
O17   V4    S    
O3    C4    A    
C17   C80   S    
C78   H49   S    
C43   C61   S    
C56   C58   A    
C74   H44   S    
C67   H10   S    
C86   C87   S    
O6    V2    S    
O9    V2    S    
C82   H53   S    
C29   C32   T    
C10   C12   A    
C55   H33   S    
C61   O16   A    
C30   C31   T    
C65   H15   S    
O2    V1    S    
C27   C28   A    
C40   C41   T    
C83   H66   S    
C42   C62   S    
C8    C83   S    
C34   C35   A    
C84   C85   S    
O1    C2    A    
C31   C64   S    
C45   H34   S    
C12   C16   A    
C75   C76   S    
O5    V1    S    
C71   C72   S    
C21   H52   S    
O13   V3    S    
C45   C49   A    
C76   H38   S    
C35   C65   S    
C67   H9    S    
C39   C42   T    
C20   C21   A    
C5    C63   S    
C70   H17   S    
C23   C28   A    
O7    V2    S    
C77   H50   S    
C51   C57   A    
C3    C32   S    
O3    V1    S    
V1    O10   S    
C70   H16   S    
C71   H31   S    
C18   C20   A    
C45   C46   A    
C18   C19   A    
O14   V3    S    
C36   C37   A    
C52   C53   A    
C9    C86   S    
C85   H63   S    
C75   H41   S    
C15   H1    S    
C28   H3    S    
C6    C21   A    
C80   H59   S    
C68   H22   S    
C73   H26   S    
C88   H68   S    
O15   C63   A    
O4    V1    S    
C67   H11   S    
C80   H58   S    
C24   C25   A    
C37   C38   A    
C43   C46   A    
C53   H23   S    
C10   C11   A    
C77   H51   S    
C9    C10   A    
C33   H8    S    
C81   H56   S    
C66   H13   S    
C87   H72   S    
C66   H12   S    
C71   H30   S    
C83   H67   S    
C88   H69   S    
C5    C9    A    
