data_mof_unit_1212.cif
_audit_creation_date              2012-12-10T18:11:46-0500
_audit_creation_method            fapswitch 2.2
_symmetry_space_group_name_H-M    P1
_symmetry_Int_Tables_number       1
_space_group_crystal_system       triclinic
_cell_length_a                    10.830423
_cell_length_b                    12.761266
_cell_length_c                    13.225014
_cell_angle_alpha                 84.468549
_cell_angle_beta                  91.370708
_cell_angle_gamma                 95.951944
_cell_volume                      1809.33000533

loop_
_atom_site_label
_atom_site_type_symbol
_atom_type_description
_atom_site_fract_x
_atom_site_fract_y
_atom_site_fract_z
_atom_type_partial_charge
C1    C     C_R   0.490626 0.442018 0.691036 0.992182
C2    C     C_R   0.594967 0.491605 0.953926 -0.018276
C3    C     C_R   0.511919 0.488218 0.870520 -0.188232
C4    C     C_R   0.740658 0.496170 0.499051 1.030832
C5    C     C_R   0.573519 0.558927 0.029140 -0.035914
C6    C     C_R   0.514096 0.651025 0.999350 -0.124282
C7    C     C_R   0.443281 0.655671 0.909023 0.432877
C8    C     C_R   0.422895 0.562804 0.859437 0.337306
C9    C     C_R   0.591155 0.531543 0.134676 0.488312
C10   C     C_R   0.549133 0.705531 0.168192 0.445143
C11   C     C_R   0.522219 0.413223 0.799155 -0.112689
C12   C     C_3   0.040610 0.599280 0.518575 0.253742
C13   C     C_R   0.311106 0.100490 0.347546 0.336218
C14   C     C_R   0.668664 0.809449 0.614294 0.474515
C15   C     C_R   0.723813 0.913912 0.597487 0.366563
C16   C     C_R   0.524378 0.558632 0.310295 0.980323
C17   C     C_R   0.664803 0.984073 0.531103 0.356268
C18   C     C_R   0.540191 0.958968 0.505655 -0.106455
C19   C     C_R   0.501847 0.852020 0.500726 0.047894
C20   C     C_R   0.463853 0.037000 0.467847 -0.092468
C21   C     C_R   0.370579 0.012673 0.393619 -0.176952
C22   C     C_R   0.354749 0.905864 0.366337 0.410945
C23   C     C_3   0.958768 0.515482 0.584593 0.275908
C24   C     C_R   0.409499 0.826664 0.429207 -0.034186
C25   C     C_R   0.483052 0.140829 0.499727 0.528540
C26   C     C_R   0.373068 0.200906 0.355414 0.299808
C27   C     C_R   0.258681 0.504825 0.497835 1.033113
C28   C     C_3   0.954957 0.405333 0.469713 0.277182
C29   C     C_3   0.038017 0.427833 0.562914 0.259476
C30   C     C_3   0.123068 0.511593 0.495742 -0.475942
C31   C     C_3   0.038292 0.487407 0.401655 0.138770
C32   C     C_3   0.956789 0.574319 0.426035 0.235569
C33   C     C_3   0.874988 0.491755 0.493889 -0.372796
C34   C     C_R   0.519778 0.730379 0.065867 -0.122375
C35   C     C_R   0.553588 0.598097 0.203367 -0.099339
C36   C     C_R   0.602278 0.333308 0.821418 0.405789
C37   C     C_R   0.692855 0.343613 0.899389 0.293935
C38   C     C_R   0.697139 0.431247 0.957603 0.317136
H1    H     H_    0.387637 0.746044 0.415081 0.202345
H2    H     H_    0.247103 0.700458 0.286744 0.382914
H3    H     H_    0.116006 0.085168 0.117805 0.404043
H4    H     H_    0.584585 0.235780 0.576868 0.412361
H5    H     H_    0.898347 0.724772 0.809111 0.388914
H6    H     H_    0.966919 0.125416 0.460156 0.430169
H7    H     H_    0.691454 0.088350 0.414684 0.384736
H8    H     H_    0.856418 0.021914 0.628920 0.392105
H9    H     H_    0.232176 0.372795 0.310605 0.395544
H10   H     H_    0.950103 0.771511 0.206036 0.418496
H11   H     H_    0.094130 0.837106 0.419190 0.425174
H12   H     H_    0.492457 0.808026 0.042695 0.251652
H13   H     H_    0.987669 0.555658 0.719848 0.387298
H14   H     H_    0.581616 0.853032 0.194176 0.370460
H15   H     H_    0.439555 0.939178 0.830879 0.409041
H16   H     H_    0.954951 0.187199 0.703205 0.395264
H17   H     H_    0.623188 0.386717 0.127665 0.394366
H18   H     H_    0.654616 0.199150 0.786335 0.409963
H19   H     H_    0.873600 0.434087 0.989997 0.392896
H20   H     H_    0.808238 0.268254 0.986374 0.381285
H21   H     H_    0.121859 0.616873 0.851343 0.395967
H22   H     H_    0.326051 0.314016 0.140433 0.411175
N1    N     N_R   0.432930 0.222190 0.444670 -0.227195
N2    N     N_R   0.566370 0.776980 0.554790 -0.204105
O1    O     O_R   0.467970 0.366730 0.627150 -0.569996
O2    O     O_2   0.032569 0.358693 0.762929 -0.202573
O3    O     O_3   0.014943 0.206636 0.647460 -0.462900
O4    O     O_3   0.643043 0.442532 0.173697 -0.587341
O5    O     O_3   0.595475 0.250254 0.761416 -0.689862
O6    O     O_3   0.799482 0.460927 0.016787 -0.652612
O7    O     O_3   0.776879 0.269075 0.915333 -0.714923
O8    O     O_2   0.242534 0.542903 0.719918 -0.305702
O9    O     O_2   0.251457 0.399523 0.857358 -0.193811
O10   O     O_3   0.169001 0.572361 0.900511 -0.463994
O11   O     O_2   0.587907 0.269770 0.278483 -0.214914
O12   O     O_R   0.510820 0.544830 0.662520 -0.583530
O13   O     O_2   0.456688 0.154467 0.176158 -0.238474
O14   O     O_3   0.398197 0.345322 0.178654 -0.534680
O15   O     O_2   0.166785 0.883741 0.225242 -0.173025
O16   O     O_2   0.376170 0.929742 0.163796 -0.201403
O17   O     O_3   0.309892 0.737466 0.239016 -0.522589
O18   O     O_2   0.073798 0.018533 0.322156 -0.247970
O19   O     O_2   0.124151 0.205682 0.270983 -0.257195
O20   O     O_3   0.196667 0.078217 0.153427 -0.416914
O21   O     O_3   0.557846 0.159334 0.582515 -0.667319
O22   O     O_2   0.656023 0.750443 0.811847 -0.300294
O23   O     O_R   0.664630 0.410960 0.482340 -0.605455
O24   O     O_2   0.717799 0.616401 0.710475 -0.270169
O25   O     O_3   0.877385 0.770496 0.747520 -0.389489
O26   O     O_2   0.808418 0.241578 0.535325 -0.272316
O27   O     O_2   0.820566 0.278203 0.349443 -0.156020
O28   O     O_3   0.007219 0.198381 0.446084 -0.437835
O29   O     O_3   0.736073 0.065107 0.477926 -0.680338
O30   O     O_3   0.836467 0.944393 0.642671 -0.610077
O31   O     O_2   0.005310 0.385420 0.230223 -0.139906
O32   O     O_2   0.078991 0.571813 0.205698 -0.145563
O33   O     O_3   0.234274 0.445102 0.276451 -0.528195
O34   O     O_R   0.707470 0.589060 0.517710 -0.543014
O35   O     O_2   0.812814 0.595961 0.261028 -0.266448
O36   O     O_2   0.805301 0.731546 0.379430 -0.239883
O37   O     O_3   0.995468 0.740540 0.265715 -0.464345
O38   O     O_2   0.943398 0.774364 0.556025 -0.193001
O39   O     O_2   0.126790 0.732433 0.656556 -0.169318
O40   O     O_3   0.153751 0.805823 0.467958 -0.559363
O41   O     O_3   0.914878 0.527218 0.680767 -0.639238
O42   O     O_3   0.567971 0.783206 0.234288 -0.674324
O43   O     O_2   0.345159 0.764421 0.748759 -0.230938
O44   O     O_2   0.263464 0.785229 0.916781 -0.204457
O45   O     O_R   0.489180 0.455170 0.337480 -0.529041
O46   O     O_3   0.479981 0.880010 0.867213 -0.517477
O47   O     O_R   0.532030 0.633270 0.372850 -0.603321
O48   O     O_R   0.292530 0.410940 0.482290 -0.600141
O49   O     O_R   0.335370 0.589040 0.517660 -0.607538
O50   O     O_2   0.215811 0.327141 0.670441 -0.195077
S1    S     S_3+6 0.077889 0.329895 0.663723 0.174825
S2    S     S_3+6 0.066244 0.730443 0.553685 0.152297
S3    S     S_3+6 0.377757 0.772391 0.858842 0.108215
S4    S     S_3+6 0.268479 0.517191 0.830882 0.103463
S5    S     S_3+6 0.456722 0.242132 0.244500 0.065651
S6    S     S_3+6 0.299350 0.867024 0.246057 0.120673
S7    S     S_3+6 0.171408 0.099224 0.274508 0.123100
S8    S     S_3+6 0.727714 0.732056 0.721263 0.134878
S9    S     S_3+6 0.892610 0.277236 0.447638 0.155595
S10   S     S_3+6 0.086627 0.472382 0.274707 0.156731
S11   S     S_3+6 0.887644 0.662546 0.332294 0.104856
Zn1   Zn    Zn3+2 0.471390 0.381080 0.476380 1.108951
Zn2   Zn    Zn3+2 0.528610 0.618920 0.523620 1.101763

loop_
_geom_bond_atom_site_label_1
_geom_bond_atom_site_label_2
_ccdc_geom_bond_type
C37   O7    S    
C17   O29   S    
C26   S5    S    
O1    Zn1   S    
C36   O5    S    
C7    C8    A    
H16   O3    S    
C12   C23   S    
C37   C38   A    
N1    Zn1   S    
C1    O12   A    
C23   C29   S    
O46   S3    S    
C36   C37   A    
O16   S6    D    
C26   N1    A    
C16   C35   S    
C30   C31   S    
O12   Zn2   S    
H8    O30   S    
C20   C25   A    
C19   N2    A    
H13   O41   S    
C14   N2    A    
O17   S6    S    
C24   H1    S    
O23   Zn1   S    
C15   C17   A    
C18   C19   A    
C7    S3    S    
C9    O4    S    
C16   O45   A    
O48   Zn1   S    
C15   O30   S    
C4    O34   A    
C23   O41   S    
C27   O48   A    
C23   C33   S    
O13   S5    D    
O49   Zn2   S    
C10   C35   A    
H21   O10   S    
O18   S7    D    
C27   O49   A    
C21   C22   A    
C12   C32   S    
C27   C30   S    
O39   S2    D    
C32   S11   S    
O20   S7    S    
C1    O1    A    
O50   S1    D    
C13   S7    S    
C16   O47   A    
C12   S2    S    
O36   S11   D    
C34   H12   S    
O11   S5    D    
O38   S2    D    
O31   S10   D    
C3    C8    A    
H11   O40   S    
C28   S9    S    
C4    O23   A    
O8    S4    D    
H22   O14   S    
C6    C34   A    
C11   C36   A    
C5    C9    A    
C29   C30   S    
O40   S2    S    
C2    C38   A    
C31   C32   S    
O22   S8    D    
C17   C18   A    
H2    O17   S    
C13   C21   A    
C10   C34   A    
C25   N1    A    
O32   S10   D    
O33   S10   S    
O47   Zn2   S    
C38   O6    S    
C28   C33   S    
O15   S6    D    
C14   S8    S    
O28   S9    S    
C22   C24   A    
C13   C26   A    
C2    C5    A    
H19   O6    S    
H17   O4    S    
H6    O28   S    
O37   S11   S    
C22   S6    S    
H10   O37   S    
C29   S1    S    
C4    C33   S    
C28   C29   S    
O2    S1    D    
C12   C30   S    
O10   S4    S    
O3    S1    S    
O43   S3    D    
C28   C31   S    
H4    O21   S    
C31   S10   S    
O26   S9    D    
N2    Zn2   S    
H20   O7    S    
C6    C7    A    
H18   O5    S    
O19   S7    D    
O14   S5    S    
O44   S3    D    
H5    O25   S    
C32   C33   S    
C10   O42   S    
C2    C3    A    
O25   S8    S    
O35   S11   D    
C25   O21   S    
H15   O46   S    
C5    C6    A    
O27   S9    D    
H3    O20   S    
H14   O42   S    
O34   Zn2   S    
C19   C24   A    
C18   C20   A    
H7    O29   S    
O45   Zn1   S    
O9    S4    D    
C3    C11   A    
C8    S4    S    
C20   C21   A    
C9    C35   A    
H9    O33   S    
C14   C15   A    
O24   S8    D    
C1    C11   S    
