data_mof_unit_3278.cif
_audit_creation_date              2012-10-26T19:35:45-0400
_audit_creation_method            fapswitch 2.2
_symmetry_space_group_name_H-M    P1
_symmetry_Int_Tables_number       1
_space_group_crystal_system       triclinic
_cell_length_a                    15.97074
_cell_length_b                    9.090386
_cell_length_c                    7.863658
_cell_angle_alpha                 89.996827
_cell_angle_beta                  92.506618
_cell_angle_gamma                 90.000094
_cell_volume                      1140.55501616

loop_
_atom_site_label
_atom_site_type_symbol
_atom_type_description
_atom_site_fract_x
_atom_site_fract_y
_atom_site_fract_z
_atom_type_partial_charge
C1    C     C_R   0.500000 0.220320 0.500003 0.548135
C2    C     C_R   0.086778 0.528108 0.484381 -0.028954
C3    C     C_1   0.823479 0.514836 0.515750 -0.066304
C4    C     C_1   0.176494 0.514914 0.480086 -0.065061
C5    C     C_1   0.251605 0.506501 0.486075 -0.036159
C6    C     C_1   0.748389 0.506458 0.513083 -0.037968
C7    C     C_1   0.500000 0.065441 0.500005 -0.051981
C8    C     C_1   0.500000 0.934551 0.499997 -0.053096
C9    C     C_3   0.128993 0.780393 0.740726 -0.309333
C10   C     C_3   0.859339 0.677081 0.168102 -0.279944
C11   C     C_3   0.899716 0.780656 0.772494 -0.298549
C12   C     C_R   0.500000 0.779677 0.499997 0.545899
C13   C     C_3   0.097871 0.696766 0.150317 -0.265774
C14   C     C_R   0.340908 0.500207 0.496189 0.540096
C15   C     C_R   0.659089 0.500196 0.503758 0.539544
C16   C     C_R   0.963758 0.569177 0.647611 0.153154
C17   C     C_R   0.035718 0.521712 0.334220 0.142361
C18   C     C_R   0.051198 0.570247 0.636794 0.158234
C19   C     C_R   0.948149 0.521324 0.344744 0.148531
C20   C     C_R   0.912986 0.527659 0.505215 -0.028547
Cu1   Cu    Cu3+1 0.500000 0.500000 0.669080 1.015544
Cu2   Cu    Cu3+1 0.500000 0.500000 0.330920 1.015283
H1    H     H_    0.152049 0.563179 0.809420 0.254288
H2    H     H_    0.928089 0.848465 0.876934 0.136122
H3    H     H_    0.830337 0.787637 0.775660 0.125050
H4    H     H_    0.918728 0.829333 0.650084 0.137551
H5    H     H_    0.116631 0.469579 0.146762 0.247870
H6    H     H_    0.056160 0.749377 0.052092 0.196625
H7    H     H_    0.163863 0.699443 0.111423 0.131551
H8    H     H_    0.094460 0.764529 0.267791 0.119457
H9    H     H_    0.169231 0.820783 0.849301 0.127457
H10   H     H_    0.073707 0.853903 0.725611 0.150520
H11   H     H_    0.165929 0.787250 0.624583 0.141646
H12   H     H_    0.851343 0.449809 0.184314 0.246603
H13   H     H_    0.815284 0.676216 0.055373 0.137975
H14   H     H_    0.909471 0.759370 0.150698 0.157680
H15   H     H_    0.822679 0.712030 0.277518 0.136296
H16   H     H_    0.882044 0.561059 0.840845 0.265349
N1    N     N_1   0.500000 0.500000 0.076820 -0.081740
N2    N     N_1   0.500000 0.500000 0.923180 -0.081730
N3    N     N_2   0.102573 0.630280 0.771740 -0.477008
N4    N     N_2   0.895782 0.532047 0.194081 -0.472489
N5    N     N_2   0.927055 0.628859 0.793113 -0.457683
N6    N     N_2   0.071261 0.545609 0.174498 -0.453619
O1    O     O_R   0.500000 0.288390 0.642760 -0.494332
O2    O     O_R   0.500000 0.711610 0.357240 -0.495771
O3    O     O_R   0.500000 0.711610 0.642760 -0.495800
O4    O     O_R   0.500000 0.288390 0.357240 -0.494441
O5    O     O_R   0.380310 0.500000 0.642750 -0.496909
O6    O     O_R   0.619690 0.500000 0.357250 -0.497359
O7    O     O_R   0.619690 0.500000 0.642750 -0.499292
O8    O     O_R   0.380310 0.500000 0.357250 -0.498977

loop_
_geom_bond_atom_site_label_1
_geom_bond_atom_site_label_2
_ccdc_geom_bond_type
C2    C4    S    
C1    O4    A    
C11   N5    S    
C10   H13   S    
C15   O7    A    
C10   N4    S    
C13   H8    S    
C9    N3    S    
C19   C20   A    
H12   N4    S    
C19   N4    S    
C8    C12   S    
Cu2   O6    S    
C3    C6    T    
Cu1   O5    S    
C17   N6    S    
C7    C8    T    
C13   H6    S    
C16   C18   A    
C3    C20   S    
Cu1   Cu2   S    
C2    C17   A    
C9    H11   S    
C16   N5    S    
C1    O1    A    
C5    C14   S    
Cu1   N2    S    
C10   H15   S    
Cu2   N1    S    
C13   H7    S    
C16   C20   A    
C17   C19   A    
Cu2   O4    S    
Cu1   O1    S    
C12   O3    A    
C15   O6    A    
Cu1   O7    S    
C2    C18   A    
C9    H9    S    
C14   O5    A    
C11   H2    S    
H16   N5    S    
Cu2   O8    S    
C11   H4    S    
C18   N3    S    
N1    N2    T    
C11   H3    S    
C10   H14   S    
C9    H10   S    
Cu2   O2    S    
C6    C15   S    
C1    C7    S    
H5    N6    S    
C13   N6    S    
C14   O8    A    
C4    C5    T    
Cu1   O3    S    
C12   O2    A    
H1    N3    S    
