data_mof_unit_2253.cif
_audit_creation_date              2013-03-05T16:04:36-0500
_audit_creation_method            fapswitch 2.2
_symmetry_space_group_name_H-M    P1
_symmetry_Int_Tables_number       1
_space_group_crystal_system       triclinic
_cell_length_a                    8.450164
_cell_length_b                    14.296374
_cell_length_c                    18.883712
_cell_angle_alpha                 96.74165
_cell_angle_beta                  90.693079
_cell_angle_gamma                 92.665529
_cell_volume                      2262.69969089

loop_
_atom_site_label
_atom_site_type_symbol
_atom_site_description
_atom_site_fract_x
_atom_site_fract_y
_atom_site_fract_z
_atom_type_partial_charge
P1    P     P_3+3 0.061800 0.409390 0.339760 0.467409
O1    O     O_2   0.887710 0.436190 0.327560 -0.370490
O2    O     O_3   0.135370 0.443490 0.416520 -0.370221
O3    O     O_3   0.634420 0.609440 0.364670 -0.315562
O4    O     O_2   0.749090 0.525701 0.246181 -0.379741
O5    O     O_3   0.070382 0.285366 0.332508 -0.592262
O6    O     O_3   0.689019 0.695496 0.233340 -0.619190
C1    C     C_3   0.600976 0.786542 0.141887 -0.930457
H1    H     H_    0.671763 0.853990 0.144910 0.284527
H2    H     H_    0.667462 0.733280 0.108777 0.278415
P2    P     P_3+3 0.622760 0.718740 0.547830 0.548917
P3    P     P_3+3 0.069653 0.783829 0.406364 0.533268
O7    O     O_2   0.795290 0.730930 0.525800 -0.388740
O8    O     O_3   0.044470 0.660110 0.398750 -0.381542
O9    O     O_2   0.931265 0.830178 0.446614 -0.383012
O10   O     O_3   0.614331 0.743786 0.640868 -0.496091
O11   O     O_3   0.057758 0.826278 0.323174 -0.501073
C2    C     C_3   0.034658 0.752102 0.267993 0.432397
H3    H     H_    0.938544 0.702875 0.281379 0.154371
C3    C     C_3   0.990101 0.793617 0.199475 -0.769857
H4    H     H_    0.954590 0.735670 0.156848 0.221973
H5    H     H_    0.888271 0.837914 0.210905 0.266075
C4    C     C_3   0.175558 0.753911 0.613905 0.337873
H6    H     H_    0.298814 0.743352 0.597889 0.070638
H7    H     H_    0.092658 0.723428 0.570287 0.116603
C5    C     C_3   0.148298 0.859006 0.628306 -0.937389
H8    H     H_    0.223670 0.892079 0.673807 0.284391
H9    H     H_    0.177315 0.894584 0.580798 0.205055
H10   H     H_    0.022186 0.869750 0.641424 0.257554
Ba1   Ba    Ba6+2 0.843240 0.541620 0.463500 1.680693
C6    C     C_3   0.923956 0.235196 0.325827 0.444159
H11   H     H_    0.836489 0.275016 0.357675 0.123782
C7    C     C_3   0.942627 0.140861 0.355093 -1.028651
H12   H     H_    0.007339 0.091089 0.317575 0.280331
H13   H     H_    0.824881 0.107132 0.363502 0.225430
H14   H     H_    0.011139 0.151324 0.405969 0.253670
C8    C     C_3   0.589501 0.839352 0.663046 0.272542
H15   H     H_    0.496863 0.867213 0.630578 0.059140
H16   H     H_    0.702065 0.881887 0.661087 0.127551
C9    C     C_3   0.530605 0.850199 0.739777 -0.640922
H17   H     H_    0.490997 0.922966 0.753828 0.195691
H18   H     H_    0.427028 0.800520 0.744079 0.196138
P4    P     P_3+3 0.127890 0.590690 0.660240 0.550489
O12   O     O_2   0.301980 0.563840 0.672490 -0.307067
O13   O     O_3   0.054330 0.556590 0.583490 -0.385476
O14   O     O_3   0.555270 0.390630 0.635330 -0.295700
O15   O     O_3   0.151798 0.713839 0.677151 -0.531224
P5    P     P_3+3 0.122203 0.216917 0.595069 0.513673
O16   O     O_3   0.637720 0.384870 0.467990 -0.334332
O17   O     O_3   0.145220 0.339960 0.601250 -0.390987
O18   O     O_2   0.269445 0.173652 0.559490 -0.367511
O19   O     O_3   0.137252 0.185245 0.681378 -0.463588
Ba2   Ba    Ba6+2 0.346570 0.458460 0.536510 1.703544
P6    P     P_3+3 0.618937 0.593559 0.270210 0.517687
C10   C     C_3   0.568481 0.753543 0.214972 1.001754
H19   H     H_    0.453743 0.714908 0.208492 -0.041717
H20   H     H_    0.487642 0.796357 0.113996 0.272342
O20   O     O_3   0.551980 0.615210 0.532020 -0.295161
C11   C     C_3   0.419912 0.254397 0.318512 0.472724
H21   H     H_    0.347265 0.304120 0.351628 0.117057
C12   C     C_3   0.336807 0.156519 0.303111 -0.946867
H22   H     H_    0.282169 0.135902 0.352124 0.248582
H23   H     H_    0.241181 0.155609 0.262234 0.267331
H24   H     H_    0.422469 0.103331 0.283259 0.265563
P7    P     P_3+3 0.568645 0.268204 0.444371 0.432209
O21   O     O_2   0.394410 0.269100 0.474240 -0.374803
O22   O     O_3   0.567589 0.245445 0.350724 -0.621343
C13   C     C_3   0.038135 0.241265 0.725854 0.371557
H25   H     H_    0.088573 0.314986 0.735246 0.092312
H26   H     H_    0.916632 0.240905 0.702674 0.098571
C14   C     C_3   0.027568 0.201744 0.797005 -0.778116
H27   H     H_    0.143036 0.212961 0.825268 0.290407
H28   H     H_    0.938849 0.238057 0.831130 0.203260
H29   H     H_    0.994157 0.125168 0.788796 0.289701
P8    P     P_3+3 0.574638 0.385740 0.729340 0.586276
C15   C     C_3   0.562642 0.209482 0.769062 0.810389
H30   H     H_    0.678192 0.234828 0.793234 -0.134081
O23   O     O_2   0.454123 0.458267 0.758247 -0.285615
O24   O     O_3   0.468152 0.283493 0.752590 -0.525547
H31   H     H_    0.542340 0.085601 0.826120 0.106591
C16   C     C_3   0.472184 0.147583 0.818353 0.079630
H32   H     H_    0.357821 0.120331 0.792575 0.132043
C17   C     C_R   0.029373 0.432983 0.046418 0.078594
C18   C     C_R   0.935272 0.397746 0.099631 -0.126276
C19   C     C_R   0.831519 0.378556 0.950240 -0.071699
C20   C     C_R   0.976045 0.426203 0.973788 0.072339
C21   C     C_R   0.768837 0.382722 0.882480 -0.024898
C22   C     C_R   0.850303 0.428685 0.832161 -0.126117
C23   C     C_R   0.000185 0.475153 0.852880 0.033340
C24   C     C_R   0.062312 0.474492 0.924271 0.095729
C25   C     C_R   0.778743 0.439353 0.765056 -0.034959
C26   C     C_R   0.859367 0.502786 0.724333 0.197723
C27   C     C_R   0.020456 0.530499 0.734128 0.095626
C28   C     C_R   0.082817 0.527873 0.804059 -0.071973
C29   C     C_R   0.178775 0.478364 0.067460 0.010480
C30   C     C_R   0.231902 0.481787 0.140545 0.039184
C31   C     C_R   0.131413 0.447749 0.193151 -0.082680
C32   C     C_R   0.984689 0.405770 0.170368 -0.000325
H33   H     H_    0.650022 0.355059 0.871632 0.205066
H34   H     H_    0.903148 0.378814 0.206762 0.184817
C33   C     C_R   0.209169 0.588918 0.830686 -0.016203
C34   C     C_R   0.259293 0.593390 0.901637 -0.060060
C35   C     C_R   0.203252 0.528423 0.947136 0.095154
C36   C     C_R   0.272723 0.522260 0.016699 -0.172929
C37   C     C_R   0.431988 0.554922 0.038603 0.538428
C38   C     C_R   0.383477 0.521614 0.161561 -0.100958
C39   C     C_R   0.482569 0.552080 0.109424 -0.323776
C40   C     C_R   0.430623 0.532072 0.234804 0.272821
C41   C     C_R   0.328976 0.499560 0.285566 -0.364567
C42   C     C_R   0.179749 0.457921 0.266817 0.137663
H35   H     H_    0.261908 0.639906 0.798925 0.157549
H36   H     H_    0.603073 0.574833 0.124119 0.207074
H37   H     H_    0.367153 0.506913 0.340938 0.165063
H38   H     H_    0.758501 0.340938 0.984324 0.169485
H39   H     H_    0.818231 0.365824 0.089553 0.149331
H40   H     H_    0.336772 0.652325 0.920924 0.190345
C43   C     C_R   0.706598 0.937949 0.525917 -0.118664
C44   C     C_R   0.512666 0.800654 0.498358 0.168193
C45   C     C_R   0.366322 0.766908 0.468092 -0.378530
C46   C     C_R   0.259952 0.828781 0.445035 0.302432
C47   C     C_R   0.303497 0.923732 0.445002 -0.219617
C48   C     C_R   0.454457 0.958174 0.468969 0.142176
C49   C     C_R   0.559607 0.898101 0.498226 0.012571
H41   H     H_    0.330454 0.693009 0.466668 0.145737
C50   C     C_R   0.648851 0.090644 0.488574 0.006496
C51   C     C_R   0.752448 0.032429 0.520638 0.174633
C52   C     C_R   0.694840 0.186681 0.485378 0.184044
C53   C     C_R   0.841314 0.223010 0.515144 -0.351808
C54   C     C_R   0.941470 0.165494 0.548127 0.226760
C55   C     C_R   0.898982 0.070150 0.549388 -0.188684
C56   C     C_R   0.499990 0.052326 0.463864 -0.139043
H42   H     H_    0.221052 0.970025 0.424099 0.147775
H43   H     H_    0.977523 0.026497 0.575386 0.145505
H44   H     H_    0.876059 0.296666 0.514097 0.162241
H45   H     H_    0.787996 0.896829 0.551821 0.131044
H46   H     H_    0.416565 0.095407 0.441523 0.150708
S1    S     S_3+6 0.561098 0.852736 0.282241 -0.030130
O25   O     O_2   0.394277 0.883831 0.288966 -0.348536
O26   O     O_2   0.616331 0.822837 0.351476 -0.254226
O27   O     O_3   0.678832 0.944341 0.263459 -0.566095
H47   H     H_    0.647152 0.998278 0.297165 0.360609
C57   C     C_2   0.872906 0.212621 0.248926 0.521157
H48   H     H_    0.748973 0.196948 0.235308 0.075634
O28   O     O_2   0.970757 0.203964 0.201827 -0.582535
C58   C     C_2   0.656749 0.831768 0.792165 0.812732
H49   H     H_    0.647604 0.768490 0.818795 0.054279
O29   O     O_2   0.771147 0.886921 0.804482 -0.540493
C59   C     C_2   0.444690 0.294218 0.248904 0.410343
H50   H     H_    0.348053 0.290582 0.210080 0.057475
O30   O     O_2   0.570896 0.333099 0.235798 -0.588522
C60   C     C_2   0.120092 0.855790 0.173767 0.718589
H51   H     H_    0.159489 0.920613 0.206144 0.092859
O31   O     O_2   0.179635 0.834860 0.115855 -0.567041
S2    S     S_3+6 0.599643 0.134799 0.689769 -0.099260
O32   O     O_2   0.737030 0.074893 0.701010 -0.348534
O33   O     O_2   0.456688 0.072157 0.665293 -0.328584
O34   O     O_3   0.643660 0.206013 0.628869 -0.591343
H52   H     H_    0.539830 0.218415 0.608246 0.403201
S3    S     S_3+6 0.431048 0.204789 0.904939 -0.049788
O35   O     O_2   0.299734 0.149244 0.936353 -0.232933
O36   O     O_2   0.576416 0.205872 0.951504 -0.307354
O37   O     O_3   0.374119 0.315192 0.900801 -0.538435
H53   H     H_    0.374285 0.344261 0.951042 0.370406
S4    S     S_3+6 0.752329 0.585648 0.688469 0.019642
O38   O     O_2   0.741197 0.551560 0.610843 -0.230003
O39   O     O_2   0.591671 0.597985 0.719154 -0.248713
O40   O     O_3   0.850736 0.690968 0.705682 -0.547391
H54   H     H_    0.874179 0.711353 0.658632 0.376749
C61   C     C_2   0.177526 0.695915 0.255547 0.440995
H55   H     H_    0.188741 0.654070 0.204679 -0.026756
O41   O     O_2   0.279512 0.696062 0.301767 -0.586610
S5    S     S_3+6 0.584355 0.592886 0.982023 -0.091335
O42   O     O_2   0.578518 0.697465 0.979748 -0.326514
O43   O     O_2   0.744177 0.574008 0.011364 -0.314377
O44   O     O_3   0.565015 0.537211 0.898898 -0.532468
H56   H     H_    0.622741 0.579039 0.868662 0.382997

loop_
_geom_bond_atom_site_label_1
_geom_bond_atom_site_label_2
_geom_bond_distance
_ccdc_geom_bond_type
C21   C22   1.388849 A    
O34   H52   0.987576 S    
C16   S3    1.785867 S    
C37   S5    1.788378 S    
C12   H24   1.110652 S    
P2    O7    1.528720 D    
C39   H36   1.077439 S    
Ba1   O13   2.848598 S    
C29   C30   1.440749 A    
C15   O24   1.415512 S    
O6    C10   1.408590 S    
C10   H19   1.091579 S    
C53   C54   1.397339 A    
C16   H32   1.109840 S    
C45   H41   1.082625 S    
C29   C36   1.433950 A    
O4    P6    1.537724 D    
C37   C39   1.404784 A    
C5    H8    1.109438 S    
C33   C34   1.393647 A    
P8    O24   1.782446 S    
O16   P7    1.746423 S    
C9    C58   1.498712 S    
P7    C52   1.844634 S    
C26   C27   1.403804 A    
C19   H38   1.069685 S    
C59   O30   1.221118 D    
P1    O1    1.558502 D    
C8    C9    1.530729 S    
S3    O35   1.502779 D    
S5    O42   1.503824 D    
C1    H20   1.109907 S    
C38   C39   1.395305 A    
C51   C55   1.404166 A    
C31   C32   1.392738 A    
C7    H14   1.106934 S    
C40   C41   1.400027 A    
C2    H3    1.101083 S    
C61   H55   1.078019 S    
C4    C5    1.523890 S    
C15   S2    1.773924 S    
C23   C28   1.426647 A    
C12   H23   1.109301 S    
C44   C45   1.396909 A    
O14   P8    1.790636 S    
C11   O22   1.399434 S    
P3    C46   1.815878 S    
O12   Ba2   2.858885 S    
P4    Ba2   3.440899 S    
P5    O18   1.541532 D    
C17   C18   1.413049 A    
P2    Ba1   3.461615 S    
C1    H1    1.106111 S    
P7    O22   1.759953 S    
P3    O11   1.752683 S    
C60   H51   1.084814 S    
C6    C7    1.530305 S    
P2    O20   1.564340 S    
C43   C51   1.402982 A    
S2    O33   1.504523 D    
O19   C13   1.403488 S    
S5    O44   1.677078 S    
P8    C25   1.935089 S    
O10   C8    1.407303 S    
C11   C59   1.505655 S    
C26   S4    1.718520 S    
C9    H18   1.111086 S    
O5    C6    1.397768 S    
O13   Ba2   2.989401 S    
C11   H21   1.103963 S    
C60   O31   1.220291 D    
C61   O41   1.218876 D    
C34   C35   1.407625 A    
O8    Ba1   2.743128 S    
P4    C27   1.936834 S    
C1    C10   1.533841 S    
C36   C37   1.443284 A    
C58   O29   1.221018 D    
S5    O43   1.501555 D    
C58   H49   1.085580 S    
C21   H33   1.070269 S    
C19   C21   1.387737 A    
Ba1   Ba2   4.581412 S    
C11   C12   1.530965 S    
O17   Ba2   2.743723 S    
C4    O15   1.396658 S    
P1    O5    1.767223 S    
O7    Ba1   2.870374 S    
O27   H47   0.989691 S    
C28   C33   1.397048 A    
S2    O34   1.657540 S    
C56   H46   1.071661 S    
C20   C24   1.415464 A    
O40   H54   0.986528 S    
C14   H28   1.102795 S    
C13   H25   1.111949 S    
C19   C20   1.411247 A    
P1    O2    1.584089 S    
O2    Ba1   2.988608 S    
P4    O12   1.558877 D    
C8    H15   1.105470 S    
C53   H44   1.082444 S    
P1    C42   1.888215 S    
S1    O26   1.498281 D    
P2    O10   1.754345 S    
C50   C56   1.400653 A    
C6    H11   1.096168 S    
C22   C25   1.424810 A    
Ba2   O20   2.779979 S    
C17   C29   1.422603 A    
C30   C31   1.428334 A    
C3    H4    1.112992 S    
S3    O36   1.500424 D    
O11   C2    1.401737 S    
C47   C48   1.396355 A    
S3    O37   1.681497 S    
C27   C28   1.421136 A    
C15   H30   1.100239 S    
Ba2   O21   2.870670 S    
P4    O13   1.583891 S    
S2    O32   1.501843 D    
C1    H2    1.105842 S    
C9    H17   1.111023 S    
Ba1   O16   2.780524 S    
C3    H5    1.100521 S    
C18   H39   1.075047 S    
C32   H34   1.069829 S    
C50   C51   1.413813 A    
C57   O28   1.221275 D    
P5    C54   1.835337 S    
C55   H43   1.083309 S    
C33   H35   1.081016 S    
C47   H42   1.084778 S    
C52   C53   1.404464 A    
C43   H45   1.074689 S    
C48   C56   1.397270 A    
C25   C26   1.413093 A    
C46   C47   1.389900 A    
C54   C55   1.396332 A    
C2    C61   1.486839 S    
C30   C38   1.410337 A    
S4    O38   1.489906 D    
O3    P6    1.773957 S    
S4    O40   1.681170 S    
P3    O8    1.760378 S    
H31   C16   1.111498 S    
C15   C16   1.543205 S    
C14   H29   1.110223 S    
C45   C46   1.390991 A    
C48   C49   1.415201 A    
C41   H37   1.082295 S    
O37   H53   0.990026 S    
S1    O25   1.500089 D    
C5    H9    1.106581 S    
C10   S1    1.793247 S    
C3    C60   1.501904 S    
P6    C40   1.859597 S    
O1    Ba1   2.858390 S    
C18   C32   1.384895 A    
C6    C57   1.503629 S    
S4    O39   1.492388 D    
P3    O9    1.536088 D    
C43   C49   1.410432 A    
C14   H27   1.102432 S    
C8    H16   1.108260 S    
O44   H56   0.990598 S    
C41   C42   1.392731 A    
C31   C42   1.434008 A    
O2    Ba2   2.849168 S    
C38   C40   1.423588 A    
C13   C14   1.519505 S    
O16   Ba2   2.971889 S    
S1    O27   1.681399 S    
Ba1   O20   2.972677 S    
O14   Ba2   2.834972 S    
P5    O17   1.750764 S    
P1    Ba1   3.440439 S    
C7    H13   1.106739 S    
C7    H12   1.111074 S    
C2    C3    1.535404 S    
C44   C49   1.430952 A    
C4    H7    1.110168 S    
C12   H22   1.103817 S    
P8    O23   1.545613 D    
C24   C35   1.422427 A    
C34   H40   1.068678 S    
C4    H6    1.100262 S    
P5    O19   1.746762 S    
C17   C20   1.429463 A    
C22   C23   1.430815 A    
C5    H10   1.110528 S    
C13   H26   1.110799 S    
P7    O21   1.583090 D    
C35   C36   1.446119 A    
C50   C52   1.417790 A    
C57   H48   1.082225 S    
O6    P6    1.768394 S    
C23   C24   1.442050 A    
P2    C44   1.856560 S    
P4    O15   1.753794 S    
C59   H50   1.086121 S    
O3    Ba1   2.835679 S    
