data_mof_unit_2247.cif
_audit_creation_date              2012-12-10T19:45:00-0500
_audit_creation_method            fapswitch 2.2
_symmetry_space_group_name_H-M    P1
_symmetry_Int_Tables_number       1
_space_group_crystal_system       triclinic
_cell_length_a                    15.079662
_cell_length_b                    10.802728
_cell_length_c                    13.682668
_cell_angle_alpha                 90.360375
_cell_angle_beta                  90.418944
_cell_angle_gamma                 89.775989
_cell_volume                      2228.80665243

loop_
_atom_site_label
_atom_site_type_symbol
_atom_type_description
_atom_site_fract_x
_atom_site_fract_y
_atom_site_fract_z
_atom_type_partial_charge
C1    C     C_R   0.497555 0.262124 0.499721 0.782168
C2    C     C_R   0.600376 0.877652 0.652795 0.021353
C3    C     C_R   0.392849 0.093851 0.255056 0.524891
C4    C     C_R   0.573582 0.884247 0.751310 0.535052
C5    C     C_R   0.329598 0.144077 0.190470 -0.202761
C6    C     C_R   0.620553 0.815599 0.822160 -0.234392
C7    C     C_R   0.261047 0.218835 0.225673 -0.215150
C8    C     C_R   0.695234 0.746376 0.796015 -0.174056
C9    C     C_R   0.453475 0.932087 0.428969 -0.157244
C10   C     C_R   0.542869 0.067021 0.573404 -0.196413
C11   C     C_R   0.502584 0.871412 0.501212 -0.109818
C12   C     C_R   0.501755 0.737722 0.500413 0.804688
C13   C     C_R   0.495283 0.128134 0.499765 -0.104710
C14   C     C_R   0.547340 0.938753 0.574945 0.059199
C15   C     C_R   0.448230 0.060442 0.427638 0.033021
C16   C     C_R   0.328531 0.502595 0.499418 0.860588
C17   C     C_R   0.671311 0.498941 0.500487 0.843339
C18   C     C_R   0.553545 0.418970 0.793276 0.029350
C19   C     C_R   0.448938 0.584002 0.206683 0.009821
C20   C     C_R   0.447962 0.582815 0.793235 0.029354
C21   C     C_R   0.553593 0.419212 0.206757 0.004441
C22   C     C_R   0.447649 0.585993 0.896319 -0.014783
C23   C     C_R   0.050035 0.382754 0.649586 -0.207737
C24   C     C_R   0.555584 0.418087 0.103653 -0.003694
C25   C     C_R   0.501546 0.501924 0.948141 0.079805
C26   C     C_R   0.501596 0.502009 0.051812 0.090808
C27   C     C_R   0.555523 0.417928 0.896360 -0.012164
C28   C     C_R   0.448073 0.586527 0.103602 -0.014599
C29   C     C_R   0.395120 0.671009 0.948582 -0.191803
C30   C     C_R   0.610264 0.335786 0.051381 -0.229921
C31   C     C_R   0.395428 0.671400 0.051312 -0.204090
C32   C     C_R   0.610135 0.335569 0.948682 -0.209173
C33   C     C_R   0.812534 0.562773 0.429269 -0.341644
C34   C     C_R   0.949059 0.633743 0.357650 -0.211300
C35   C     C_R   0.186754 0.445786 0.573462 -0.341621
C36   C     C_R   0.767835 0.498091 0.501889 -0.177473
C37   C     C_R   0.231702 0.504811 0.497890 -0.174388
C38   C     C_R   0.815297 0.434880 0.575694 0.431143
C39   C     C_R   0.184170 0.563994 0.421822 0.435640
C40   C     C_R   0.908393 0.439612 0.576981 0.003618
C41   C     C_R   0.090869 0.568912 0.425860 0.003815
C42   C     C_R   0.953041 0.504118 0.502524 0.020775
C43   C     C_R   0.046249 0.505716 0.501042 0.020667
C44   C     C_R   0.904666 0.566782 0.429298 0.119031
C45   C     C_R   0.254240 0.242801 0.325661 -0.136603
C46   C     C_R   0.094571 0.444274 0.574893 0.119587
C47   C     C_R   0.957753 0.380416 0.650722 -0.190524
C48   C     C_R   0.041257 0.635909 0.356460 -0.191058
C49   C     C_3   0.755422 0.249875 0.616073 -0.356263
C50   C     C_3   0.227164 0.557364 0.261816 -0.358437
C51   C     C_3   0.524079 0.078120 0.175910 -0.349520
C52   C     C_3   0.516248 0.043819 0.841624 -0.344606
C53   C     C_R   0.723481 0.743884 0.699116 -0.086513
C54   C     C_R   0.316691 0.193794 0.390658 -0.172724
C55   C     C_R   0.676227 0.808834 0.627675 -0.227090
C56   C     C_R   0.386510 0.119047 0.356322 0.025023
Cu1   Cu    Cu3+1 0.500010 0.499980 0.597420 0.965319
Cu2   Cu    Cu3+1 0.499990 0.500020 0.402580 0.951689
H1    H     H_    0.775259 0.611869 0.373430 0.174654
H2    H     H_    0.652880 0.271218 0.089896 0.133698
H3    H     H_    0.354345 0.737876 0.089819 0.154306
H4    H     H_    0.652785 0.271034 0.910239 0.137511
H5    H     H_    0.925340 0.331615 0.709316 0.183462
H6    H     H_    0.073298 0.689473 0.300312 0.183526
H7    H     H_    0.086638 0.335891 0.707004 0.142724
H8    H     H_    0.912420 0.684252 0.302226 0.141984
H9    H     H_    0.212403 0.256877 0.175533 0.145722
H10   H     H_    0.730869 0.693819 0.850868 0.153842
H11   H     H_    0.200043 0.298763 0.352949 0.140978
H12   H     H_    0.223864 0.398950 0.630628 0.175031
H13   H     H_    0.781299 0.690023 0.679047 0.148490
H14   H     H_    0.309459 0.211872 0.468162 0.127278
H15   H     H_    0.697742 0.803785 0.552378 0.130588
H16   H     H_    0.332842 0.123268 0.113069 0.143113
H17   H     H_    0.598351 0.813879 0.897173 0.149852
H18   H     H_    0.818293 0.201392 0.596929 0.163612
H19   H     H_    0.708765 0.247849 0.552738 0.154430
H20   H     H_    0.724643 0.197766 0.676525 0.174364
H21   H     H_    0.162245 0.512316 0.246312 0.145383
H22   H     H_    0.279874 0.485719 0.262578 0.208114
H23   H     H_    0.415658 0.878637 0.375879 0.180266
H24   H     H_    0.240758 0.620371 0.200107 0.179481
H25   H     H_    0.557860 0.139704 0.229795 0.162323
H26   H     H_    0.499108 0.131968 0.112281 0.164868
H27   H     H_    0.574225 0.011521 0.148139 0.190928
H28   H     H_    0.573208 0.100699 0.816856 0.135846
H29   H     H_    0.529069 0.007144 0.916104 0.165833
H30   H     H_    0.457837 0.106254 0.846340 0.201795
H31   H     H_    0.578188 0.119514 0.628930 0.137287
H32   H     H_    0.594730 0.355157 0.752322 0.151170
H33   H     H_    0.408919 0.649193 0.247651 0.163960
H34   H     H_    0.406937 0.646816 0.752232 0.144851
H35   H     H_    0.595201 0.356131 0.247845 0.122149
H36   H     H_    0.353754 0.737105 0.910032 0.156534
N1    N     N_R   0.499960 0.499900 0.743810 -0.189557
N2    N     N_R   0.500040 0.500100 0.256190 -0.186028
O1    O     O_R   0.500000 0.319630 0.582270 -0.588137
O2    O     O_3   0.229097 0.627221 0.349627 -0.579416
O3    O     O_3   0.455630 0.011193 0.220489 -0.595976
O4    O     O_3   0.496423 0.947317 0.775071 -0.582808
O5    O     O_R   0.500000 0.680370 0.417730 -0.583358
O6    O     O_R   0.499990 0.319660 0.417730 -0.588228
O7    O     O_R   0.500010 0.680340 0.582270 -0.574689
O8    O     O_R   0.370260 0.499960 0.582280 -0.597463
O9    O     O_R   0.629740 0.500040 0.417720 -0.597320
O10   O     O_R   0.370250 0.499990 0.417740 -0.554934
O11   O     O_R   0.629750 0.500010 0.582260 -0.534105
O12   O     O_3   0.770797 0.372246 0.648341 -0.579846

loop_
_geom_bond_atom_site_label_1
_geom_bond_atom_site_label_2
_ccdc_geom_bond_type
C40   C47   A    
C38   C40   A    
C22   C29   A    
C31   H3    S    
C50   H21   S    
C51   H27   S    
C6    H17   S    
C39   C41   A    
C20   H34   S    
C7    C45   A    
C35   C37   A    
C24   C26   A    
C2    C55   A    
C17   O11   A    
C47   H5    S    
C29   H36   S    
C11   C14   A    
C48   H6    S    
C33   C36   A    
C49   H20   S    
C5    H16   S    
Cu2   N2    S    
C16   O8    A    
C35   H12   S    
C22   C25   A    
C30   H2    S    
Cu2   O6    S    
C17   C36   S    
C16   O10   A    
C16   C37   S    
C40   C42   A    
C33   H1    S    
C23   C46   A    
C18   N1    A    
C41   C43   A    
C34   H8    S    
C42   C44   A    
C49   O12   S    
C53   C55   A    
C51   O3    S    
Cu1   O7    S    
C54   C56   A    
C50   O2    S    
C23   C47   A    
C45   H11   S    
C18   H32   S    
C52   H30   S    
C34   C44   A    
C10   H31   S    
C12   O7    A    
C4    C6    A    
C10   C14   A    
C1    O1    A    
C5    C7    A    
C39   O2    S    
C6    C8    A    
C25   C26   A    
C52   O4    S    
Cu2   O10   S    
C2    C4    A    
C28   C31   A    
C17   O9    A    
C3    C56   A    
Cu1   O1    S    
C49   H18   S    
C54   H14   S    
Cu2   O5    S    
C19   C28   A    
C9    C11   A    
Cu1   O11   S    
C20   N1    A    
C20   C22   A    
C45   C54   A    
C8    H10   S    
C13   C15   A    
C1    C13   S    
C42   C43   A    
C36   C38   A    
C53   H13   S    
C51   H25   S    
C50   H24   S    
Cu1   O8    S    
C27   C32   A    
C33   C44   A    
C52   H29   S    
C18   C27   A    
C3    C5    A    
C10   C13   A    
C50   H22   S    
C8    C53   A    
C11   C12   S    
C21   N2    A    
C25   C27   A    
C26   C28   A    
Cu2   O9    S    
C15   C56   S    
C23   H7    S    
C4    O4    S    
C9    C15   A    
C32   H4    S    
C12   O5    A    
C37   C39   A    
C30   C32   A    
Cu1   Cu2   S    
C21   H35   S    
C1    O6    A    
C52   H28   S    
C41   C48   A    
C49   H19   S    
C38   O12   S    
C2    C14   S    
C43   C46   A    
C24   C30   A    
C19   H33   S    
C7    H9    S    
C55   H15   S    
C3    O3    S    
C34   C48   A    
C29   C31   A    
Cu1   N1    S    
C21   C24   A    
C35   C46   A    
C51   H26   S    
C19   N2    A    
C9    H23   S    
