data_mof_unit_4861.cif
_audit_creation_date              2012-12-10T16:48:06-0500
_audit_creation_method            fapswitch 2.2
_symmetry_space_group_name_H-M    P1
_symmetry_Int_Tables_number       1
_space_group_crystal_system       triclinic
_cell_length_a                    15.85469
_cell_length_b                    8.742879
_cell_length_c                    7.515161
_cell_angle_alpha                 103.061481
_cell_angle_beta                  94.83521
_cell_angle_gamma                 93.380278
_cell_volume                      1007.88530514

loop_
_atom_site_label
_atom_site_type_symbol
_atom_type_description
_atom_site_fract_x
_atom_site_fract_y
_atom_site_fract_z
_atom_type_partial_charge
C1    C     C_R   0.495006 0.200163 0.453922 0.778099
C2    C     C_R   0.504994 0.799837 0.546078 0.778099
C3    C     C_R   0.340173 0.499473 0.501118 0.798148
C4    C     C_R   0.659827 0.500526 0.498882 0.798148
C5    C     C_2   0.483418 0.031915 0.432333 0.213670
C6    C     C_2   0.516582 0.968085 0.567667 0.213670
C7    C     C_3   0.971305 0.396419 0.588752 0.370128
C8    C     C_3   0.028695 0.603581 0.411248 0.370128
C9    C     C_3   0.019594 0.352221 0.415907 -0.402962
C10   C     C_3   0.980406 0.647779 0.584093 -0.402962
C11   C     C_1   0.250746 0.498896 0.503381 -0.085710
C12   C     C_1   0.749253 0.501104 0.496619 -0.085710
C13   C     C_3   0.035252 0.537883 0.671621 0.356116
C14   C     C_3   0.964748 0.462116 0.328378 0.356116
C15   C     C_3   0.083686 0.497127 0.500785 0.004651
C16   C     C_3   0.916314 0.502873 0.499214 0.004651
C17   C     C_1   0.175266 0.498119 0.503101 0.127800
C18   C     C_1   0.824734 0.501881 0.496899 0.127800
Cu1   Cu    Cu3+1 0.509330 0.517380 0.684380 1.148551
Cu2   Cu    Cu3+1 0.490670 0.482620 0.315620 1.148551
H1    H     H_    0.035245 0.232305 0.347803 0.195263
H2    H     H_    0.964755 0.767695 0.652197 0.195263
N1    N     N_2   0.476600 0.456420 0.038510 0.129579
N2    N     N_2   0.523400 0.543580 0.961490 0.129579
O1    O     O_R   0.506070 0.286130 0.619780 -0.504470
O2    O     O_R   0.493930 0.713870 0.380220 -0.504470
O3    O     O_R   0.490300 0.256770 0.308360 -0.582943
O4    O     O_R   0.509700 0.743230 0.691640 -0.582944
O5    O     O_R   0.386960 0.514660 0.655680 -0.544318
O6    O     O_R   0.613040 0.485340 0.344320 -0.544319
O7    O     O_R   0.371190 0.485310 0.344260 -0.552651
O8    O     O_R   0.628810 0.514690 0.655740 -0.552651
O9    O     O_3   0.939534 0.290199 0.685278 -0.683357
H3    H     H_    0.989302 0.237083 0.722745 0.336616
O10   O     O_3   0.060466 0.709801 0.314722 -0.683357
H4    H     H_    0.010698 0.762917 0.277255 0.336617
O11   O     O_3   0.926075 0.426318 0.148227 -0.672931
H5    H     H_    0.971835 0.390855 0.070310 0.354447
O12   O     O_3   0.073925 0.573682 0.851773 -0.672930
H6    H     H_    0.028165 0.609144 0.929690 0.354447
O13   O     O_3   0.434512 0.939710 0.279435 -0.696639
H7    H     H_    0.409724 0.007902 0.203252 0.356690
O14   O     O_3   0.565488 0.060290 0.720565 -0.696640
H8    H     H_    0.590275 0.992098 0.796749 0.356691
Cl1   Cl    Cl    0.399767 0.319451 0.907642 -0.443778
Cl2   Cl    Cl    0.600233 0.680549 0.092357 -0.443777

loop_
_geom_bond_atom_site_label_1
_geom_bond_atom_site_label_2
_ccdc_geom_bond_type
C3    O7    A    
C9    C14   S    
C10   C13   S    
O11   H5    S    
N1    Cl1   S    
Cu2   O3    S    
C4    C12   S    
C2    O4    A    
O13   H7    S    
O10   H4    S    
Cu2   N1    S    
N1    N2    D    
N2    Cl2   S    
Cu1   Cu2   S    
Cu1   N2    S    
C9    C15   S    
C2    O2    A    
Cu2   O6    S    
C10   H2    S    
C14   O11   S    
C1    O1    A    
Cu1   O4    S    
C7    O9    S    
C9    H1    S    
C4    O8    A    
Cu2   O2    S    
C1    C5    S    
Cu1   O8    S    
C16   C18   S    
C7    C16   S    
O9    H3    S    
C8    C15   S    
C6    O14   S    
C13   C15   S    
O14   H8    S    
C5    C6    D    
Cu1   O1    S    
C14   C16   S    
C13   O12   S    
C1    O3    A    
C3    C11   S    
Cu1   O5    S    
C7    C9    S    
C7    C13   S    
C3    O5    A    
C12   C18   T    
O12   H6    S    
C15   C17   S    
C5    O13   S    
C11   C17   T    
C10   C16   S    
C8    C14   S    
Cu2   O7    S    
C8    C10   S    
C4    O6    A    
C2    C6    S    
C8    O10   S    
