data_mof_unit_3686.cif
_audit_creation_date              2012-12-10T19:10:02-0500
_audit_creation_method            fapswitch 2.2
_symmetry_space_group_name_H-M    P1
_symmetry_Int_Tables_number       1
_space_group_crystal_system       triclinic
_cell_length_a                    10.892466
_cell_length_b                    10.802712
_cell_length_c                    9.59944
_cell_angle_alpha                 90.113757
_cell_angle_beta                  90.872208
_cell_angle_gamma                 90.145354
_cell_volume                      1129.41174338

loop_
_atom_site_label
_atom_site_type_symbol
_atom_type_description
_atom_site_fract_x
_atom_site_fract_y
_atom_site_fract_z
_atom_type_partial_charge
C1    C     C_R   0.502717 0.263045 0.500078 0.868190
C2    C     C_R   0.205569 0.412540 0.969394 -0.115378
C3    C     C_R   0.932040 0.495912 0.376261 -0.170762
C4    C     C_R   0.871873 0.495178 0.503561 -0.056272
C5    C     C_R   0.941696 0.491368 0.628339 0.007659
C6    C     C_R   0.068170 0.500876 0.622622 -0.177635
C7    C     C_R   0.128401 0.498123 0.495279 -0.046193
C8    C     C_R   0.058771 0.490825 0.370081 0.011851
C9    C     C_R   0.883737 0.555733 0.867544 -0.134910
C10   C     C_R   0.838147 0.527099 0.998527 -0.145726
C11   C     C_R   0.799766 0.406408 0.027930 -0.092452
C12   C     C_R   0.262404 0.499115 0.498422 0.834569
C13   C     C_R   0.806417 0.314173 0.926358 -0.130494
C14   C     C_R   0.850910 0.342667 0.794751 -0.092078
C15   C     C_R   0.889220 0.463786 0.764900 0.131284
C16   C     C_R   0.422202 0.061833 0.568537 0.004190
C17   C     C_R   0.510205 0.130435 0.500340 -0.158893
C18   C     C_R   0.607465 0.066095 0.435479 0.108847
C19   C     C_R   0.609081 0.934399 0.438246 0.113985
C20   C     C_R   0.511103 0.869510 0.501116 -0.164288
C21   C     C_R   0.422006 0.937527 0.567600 -0.003548
C22   C     C_3   0.310521 0.926730 0.654768 -0.004122
C23   C     C_R   0.503570 0.736903 0.500324 0.874032
C24   C     C_3   0.311877 0.070359 0.658284 -0.015068
C25   C     C_R   0.481996 0.606907 0.073148 0.263603
C26   C     C_R   0.506882 0.392566 0.073918 -0.072714
C27   C     C_R   0.507500 0.392588 0.925890 -0.077495
C28   C     C_R   0.482258 0.606895 0.926219 0.242742
C29   C     C_3   0.559544 0.720742 0.921829 -0.485746
C30   C     C_3   0.559160 0.720881 0.079658 -0.469812
C31   C     C_R   0.737681 0.497679 0.501349 0.823930
C32   C     C_R   0.184221 0.535375 0.008652 -0.156988
C33   C     C_R   0.137267 0.561941 0.140107 -0.109418
C34   C     C_R   0.111901 0.465259 0.232643 0.119476
C35   C     C_R   0.131754 0.342218 0.191712 -0.092367
C36   C     C_R   0.178999 0.316113 0.060605 -0.122448
Cu1   Cu    Cu3+1 0.499990 0.499980 0.640670 0.956639
Cu2   Cu    Cu3+1 0.500010 0.500020 0.359330 0.974634
H1    H     H_    0.243459 0.391547 0.868654 0.156092
H2    H     H_    0.763255 0.384189 0.128733 0.164598
H3    H     H_    0.776324 0.220979 0.949409 0.149291
H4    H     H_    0.856160 0.270662 0.716357 0.156363
H5    H     H_    0.331914 0.884960 0.757883 0.104431
H6    H     H_    0.336436 0.108062 0.762951 0.106089
H7    H     H_    0.515116 0.305253 0.127647 0.160621
H8    H     H_    0.204386 0.609979 0.937411 0.132270
H9    H     H_    0.515958 0.305249 0.872167 0.145040
H10   H     H_    0.651591 0.703639 0.877372 0.224730
H11   H     H_    0.509582 0.800705 0.876037 0.192260
H12   H     H_    0.650827 0.703151 0.126752 0.227912
H13   H     H_    0.509071 0.800916 0.124176 0.213071
H14   H     H_    0.120690 0.657157 0.169760 0.149450
H15   H     H_    0.109916 0.266676 0.260900 0.174155
H16   H     H_    0.194993 0.221186 0.029633 0.140633
H17   H     H_    0.880185 0.495119 0.280386 0.155291
H18   H     H_    0.119752 0.504044 0.719234 0.157638
H19   H     H_    0.914577 0.649064 0.846003 0.143830
H20   H     H_    0.833420 0.598650 0.076994 0.139039
N1    N     N_R   0.500790 0.500930 0.147930 -0.185966
N2    N     N_R   0.500790 0.500890 0.852020 -0.184619
O1    O     O_R   0.500000 0.319640 0.618810 -0.598121
O2    O     O_R   0.500010 0.319680 0.381230 -0.576557
O3    O     O_R   0.319640 0.499990 0.618790 -0.593317
O4    O     O_R   0.319650 0.500030 0.381210 -0.568558
O5    O     O_R   0.499990 0.680320 0.618770 -0.585881
O6    O     O_R   0.500000 0.680360 0.381190 -0.571052
O7    O     O_R   0.680350 0.499970 0.618790 -0.573997
O8    O     O_R   0.680360 0.500010 0.381210 -0.583136
I1    I     I_    0.756057 0.167089 0.346851 -0.380393
I2    I     I_    0.766094 0.834897 0.368563 -0.341987
I3    I     I_    0.164165 0.834172 0.543157 -0.322426
I4    I     I_    0.162679 0.167482 0.559796 -0.367617

loop_
_geom_bond_atom_site_label_1
_geom_bond_atom_site_label_2
_ccdc_geom_bond_type
Cu1   O1    S    
C30   H13   S    
C16   C21   A    
C35   H15   S    
C9    C10   A    
C19   C20   A    
C1    C17   S    
C22   H5    S    
C20   C23   S    
C14   H4    S    
C32   C33   A    
C23   O5    A    
C18   I1    S    
C13   H3    S    
C33   C34   A    
C30   H12   S    
C7    C8    A    
C16   C24   S    
C8    C34   S    
C21   C22   S    
C1    O2    A    
C25   C28   A    
C31   O7    A    
C11   C13   A    
C26   C27   A    
C29   C30   S    
C32   H8    S    
C12   O4    A    
C5    C6    A    
Cu1   O7    S    
C23   O6    A    
Cu1   O5    S    
C28   C29   S    
Cu1   O3    S    
Cu1   Cu2   S    
Cu2   O8    S    
C17   C18   A    
C6    C7    A    
Cu2   O4    S    
C27   N2    A    
C28   N2    A    
C3    C8    A    
C9    C15   A    
C31   O8    A    
C24   H6    S    
C22   C24   S    
C7    C12   S    
C5    C15   S    
C4    C31   S    
C36   H16   S    
C10   C11   A    
C29   H10   S    
C2    C36   A    
C11   H2    S    
Cu1   N2    S    
C16   C17   A    
Cu2   O6    S    
C22   I3    S    
C20   C21   A    
C24   I4    S    
C9    H19   S    
C2    C32   A    
C34   C35   A    
C26   N1    A    
C27   H9    S    
C25   C30   S    
C12   O3    A    
C14   C15   A    
C18   C19   A    
C19   I2    S    
C29   H11   S    
C25   N1    A    
C26   H7    S    
C10   H20   S    
C13   C14   A    
C33   H14   S    
C3    H17   S    
C2    H1    S    
C3    C4    A    
Cu2   N1    S    
C6    H18   S    
C4    C5    A    
Cu2   O2    S    
C35   C36   A    
C1    O1    A    
