data_mof_unit_2052.cif
_audit_creation_date              2013-03-05T16:03:02-0500
_audit_creation_method            fapswitch 2.2
_symmetry_space_group_name_H-M    P1
_symmetry_Int_Tables_number       1
_space_group_crystal_system       triclinic
_cell_length_a                    7.119095
_cell_length_b                    18.970176
_cell_length_c                    19.81012
_cell_angle_alpha                 68.474647
_cell_angle_beta                  89.716309
_cell_angle_gamma                 90.563905
_cell_volume                      2488.54773287

loop_
_atom_site_label
_atom_site_type_symbol
_atom_site_description
_atom_site_fract_x
_atom_site_fract_y
_atom_site_fract_z
_atom_type_partial_charge
O1    O     O_R   0.488990 0.443920 0.942160 -0.544716
O2    O     O_R   0.823840 0.406530 0.087600 -0.602287
O3    O     O_R   0.999650 0.556080 0.057840 -0.595766
C1    C     C_R   0.655441 0.385253 0.116069 0.907355
O4    O     O_R   0.818390 0.434590 0.944530 -0.580720
O5    O     O_R   0.994160 0.584350 0.913750 -0.572011
C2    C     C_R   0.650345 0.419537 0.925502 0.996471
O6    O     O_R   0.494480 0.415650 0.086250 -0.593056
O7    O     O_3   0.662600 0.549100 0.990070 -0.286245
V1    V     V_3+5 0.935320 0.490890 0.001840 1.242301
O8    O     O_R   0.324240 0.593470 0.912400 -0.596879
C3    C     C_R   0.155812 0.617940 0.886826 0.993196
O9    O     O_R   0.329690 0.565410 0.055470 -0.572083
C4    C     C_R   0.160545 0.580359 0.074407 0.911342
V2    V     V_3+5 0.435990 0.509110 0.998160 1.251275
O10   O     O_3   0.158840 0.450900 0.009930 -0.266639
C5    C     C_3   0.080464 0.666677 0.277794 -0.034011
C6    C     C_3   0.338141 0.753233 0.200412 0.480070
C7    C     C_3   0.326720 0.797171 0.255461 -0.579450
H1    H     H_    0.196438 0.627267 0.294994 0.185749
H2    H     H_    0.426424 0.774964 0.300005 0.280593
H3    H     H_    0.367637 0.857021 0.229617 0.257673
C8    C     C_1   0.117401 0.879564 0.374946 -0.180822
C9    C     C_3   0.138127 0.717684 0.198330 -0.272819
C10   C     C_3   0.077905 0.709300 0.332935 0.355717
C11   C     C_3   0.129544 0.796124 0.288410 -0.160736
C12   C     C_3   0.001550 0.834118 0.220187 0.251195
C13   C     C_3   0.006725 0.787295 0.169079 0.051953
C14   C     C_1   0.127201 0.842119 0.336440 0.230541
C15   C     C_1   0.141202 0.669669 0.152082 0.283729
C16   C     C_1   0.149527 0.629193 0.116430 -0.170504
H4    H     H_    0.076604 0.827226 0.120209 0.177332
C17   C     C_R   0.921615 0.746968 0.875970 -0.177740
C18   C     C_R   0.799029 0.805046 0.871985 -0.045194
C19   C     C_R   0.780245 0.866585 0.807498 -0.036409
C20   C     C_R   0.886048 0.871252 0.746705 -0.197022
C21   C     C_R   0.006897 0.811968 0.747962 0.125221
C22   C     C_R   0.023888 0.747586 0.814163 0.110254
C23   C     C_R   0.111611 0.816268 0.685287 -0.225038
C24   C     C_R   0.228669 0.755197 0.689534 -0.042457
C25   C     C_R   0.253205 0.692170 0.755575 -0.051708
C26   C     C_R   0.145746 0.686784 0.818235 -0.229673
C27   C     C_R   0.311267 0.751731 0.626375 0.079556
C28   C     C_R   0.478246 0.712463 0.631826 0.214604
C29   C     C_R   0.524475 0.659330 0.699721 0.063694
C30   C     C_R   0.385718 0.636649 0.754434 0.215798
H5    H     H_    0.936009 0.702394 0.928516 0.131282
H6    H     H_    0.719625 0.802686 0.919524 0.176140
H7    H     H_    0.684763 0.911544 0.804801 0.184540
H8    H     H_    0.871200 0.922092 0.699173 0.136773
C31   C     C_R   0.803266 0.239801 0.125038 -0.318168
C32   C     C_R   0.817432 0.170178 0.118021 0.235731
C33   C     C_R   0.723575 0.108030 0.167679 0.271231
C34   C     C_R   0.672215 0.109054 0.235667 -0.326516
C35   C     C_R   0.675517 0.178205 0.247182 0.082813
C36   C     C_R   0.712608 0.245996 0.186052 0.101181
C37   C     C_R   0.618425 0.182137 0.314296 -0.220264
C38   C     C_R   0.558062 0.252771 0.314633 0.075866
C39   C     C_R   0.569193 0.319405 0.250390 0.084429
C40   C     C_R   0.648726 0.316675 0.185461 -0.225528
C41   C     C_R   0.476566 0.257243 0.377829 -0.296991
C42   C     C_R   0.392271 0.322967 0.377646 0.322190
C43   C     C_R   0.422542 0.389692 0.317300 0.187287
C44   C     C_R   0.508097 0.388083 0.254280 -0.288388
H9    H     H_    0.856813 0.288066 0.080524 0.177439
H10   H     H_    0.608354 0.058795 0.275427 0.150215
H11   H     H_    0.471087 0.208976 0.427935 0.185986
H12   H     H_    0.528971 0.441173 0.209112 0.163035
O11   O     O_R   0.770890 0.084490 0.414040 -0.582472
O12   O     O_R   0.445980 0.065450 0.555510 -0.576210
O13   O     O_R   0.270670 0.915620 0.586180 -0.587966
C45   C     C_R   0.613849 0.078984 0.575991 0.939048
O14   O     O_R   0.441480 0.093500 0.412450 -0.599133
O15   O     O_R   0.266140 0.943870 0.442100 -0.575542
C46   C     C_R   0.610016 0.113016 0.382957 0.911228
O16   O     O_R   0.775410 0.056240 0.558120 -0.588475
O17   O     O_3   0.602660 0.950990 0.510100 -0.256166
V3    V     V_3+5 0.329740 0.009100 0.498130 1.230274
O18   O     O_R   0.936120 0.934420 0.444240 -0.564244
C47   C     C_R   0.105175 0.923645 0.421647 0.968909
O19   O     O_R   0.940610 0.906370 0.587310 -0.591361
C48   C     C_R   0.107385 0.885242 0.616046 0.936685
V4    V     V_3+5 0.829110 0.990690 0.501470 1.236383
O20   O     O_3   0.106080 0.049010 0.489880 -0.273563
C49   C     C_3   0.732927 0.287035 0.666330 0.284988
C50   C     C_3   0.427649 0.225816 0.729171 -0.483701
C51   C     C_3   0.435221 0.284598 0.767209 0.346742
H13   H     H_    0.355743 0.173284 0.764846 0.240831
H14   H     H_    0.338571 0.246831 0.681522 0.246727
C52   C     C_1   0.646488 0.373363 0.880444 -0.106411
C53   C     C_3   0.627532 0.208486 0.707021 -0.123960
C54   C     C_3   0.772159 0.324567 0.724761 -0.065719
C55   C     C_3   0.639994 0.289538 0.794138 -0.172640
C56   C     C_3   0.714617 0.206024 0.835618 0.052181
C57   C     C_3   0.734660 0.164460 0.779407 0.068444
C58   C     C_1   0.646400 0.335965 0.841648 0.244419
C59   C     C_1   0.618992 0.161750 0.660013 0.238987
C60   C     C_1   0.618259 0.124104 0.621654 -0.197944
H15   H     H_    0.886871 0.168335 0.765117 0.095503
H16   H     H_    0.857759 0.212037 0.853554 0.126277
H17   H     H_    0.917090 0.308550 0.743850 0.123617
N1    N     N_R   0.215905 0.672615 0.390943 0.255335
O21   O     O_R   0.205523 0.599617 0.425985 -0.253828
O22   O     O_R   0.321521 0.711731 0.418110 -0.322698
I1    I     I_    0.879865 0.576601 0.290316 -0.076878
I2    I     I_    0.819516 0.693013 0.395682 0.067098
I3    I     I_    0.082283 0.951348 0.158295 -0.192558
I4    I     I_    0.802627 0.621861 0.723267 -0.151707
I5    I     I_    0.122514 0.747695 0.546217 -0.102304
N2    N     N_R   0.585185 0.719662 0.568035 0.273877
O23   O     O_R   0.663084 0.660472 0.562056 -0.255877
O24   O     O_R   0.587944 0.783385 0.512572 -0.333784
N3    N     N_R   0.348766 0.556471 0.789915 0.258790
O25   O     O_R   0.176562 0.531465 0.803291 -0.359278
O26   O     O_R   0.474433 0.508770 0.786566 -0.385294
I6    I     I_    0.380713 0.494849 0.323856 -0.074728
I7    I     I_    0.971498 0.163150 0.029601 -0.133682
I8    I     I_    0.577943 0.036887 0.125466 -0.057613
N4    N     N_R   0.273130 0.319531 0.437962 0.276193
O27   O     O_R   0.144282 0.369985 0.430205 -0.286293
O28   O     O_R   0.261863 0.256952 0.494553 -0.341334
I9    I     I_    0.819221 0.446098 0.685195 0.024091
N5    N     N_R   0.392480 0.805612 0.126111 0.246100
O29   O     O_R   0.446178 0.875201 0.112664 -0.302610
O30   O     O_R   0.374430 0.784367 0.070912 -0.367912
N6    N     N_R   0.628764 0.337509 0.602486 0.277887
O31   O     O_R   0.702832 0.402274 0.561848 -0.235407
O32   O     O_R   0.498457 0.310214 0.572988 -0.330067
I10   I     I_    0.329514 0.392714 0.696296 -0.057674
I11   I     I_    0.227471 0.256926 0.851311 -0.274016
N7    N     N_R   0.688445 0.082875 0.808973 0.281932
O33   O     O_R   0.823215 0.033921 0.821120 -0.359549
O34   O     O_R   0.515297 0.058219 0.821167 -0.341877
I12   I     I_    0.992598 0.268447 0.619943 -0.176826
N8    N     N_R   0.478200 0.692647 0.224759 0.235753
O35   O     O_R   0.526849 0.656849 0.182649 -0.362540
O36   O     O_R   0.526606 0.664247 0.292407 -0.351322
N9    N     N_R   0.612649 0.162254 0.903756 0.296145
O37   O     O_R   0.644297 0.090132 0.935212 -0.221343
O38   O     O_R   0.562988 0.196789 0.946788 -0.366128
I13   I     I_    0.805347 0.787389 0.091091 -0.115584
I14   I     I_    0.741740 0.861358 0.250567 -0.290148

loop_
_geom_bond_atom_site_label_1
_geom_bond_atom_site_label_2
_geom_bond_distance
_ccdc_geom_bond_type
C35   C36   1.427366 A    
C55   C56   1.591525 S    
O12   V3    2.000791 S    
C25   C26   1.425651 A    
C19   C20   1.391770 A    
C4    C16   1.457418 S    
C45   O16   1.323707 A    
C5    H1    1.088448 S    
C59   C60   1.218885 T    
C49   C53   1.588615 S    
N8    O35   1.301727 A    
C45   C60   1.455956 S    
O17   V3    2.213898 S    
C28   C29   1.396199 A    
C11   C12   1.576913 S    
C21   C22   1.433639 A    
C6    C9    1.576747 S    
C44   H12   1.082349 S    
C51   I11   2.134782 S    
C20   C21   1.415736 A    
C7    H2    1.095100 S    
C6    C7    1.599391 S    
C5    I1    2.158290 S    
C50   C53   1.560250 S    
O5    C3    1.320980 A    
C15   C16   1.220802 T    
C50   H13   1.106421 S    
C10   N1    1.485860 S    
N5    O30   1.303250 A    
O17   V4    1.753349 S    
V2    O10   2.220431 S    
C12   I14   2.070328 S    
O16   V4    1.995248 S    
C18   C19   1.386748 A    
C31   H9    1.076375 S    
C7    C11   1.541984 S    
N2    O23   1.300591 A    
C3    C26   1.502531 S    
O1    C2    1.327058 A    
O8    V2    2.030659 S    
C24   C27   1.403371 A    
C56   C57   1.589652 S    
C33   C34   1.400911 A    
C19   H7    1.081970 S    
C25   C30   1.427103 A    
O1    V2    1.978432 S    
C56   H16   1.099421 S    
C8    C47   1.459821 S    
O7    V1    2.213817 S    
C29   I4    2.106544 S    
C1    O6    1.328262 A    
C49   I12   2.149413 S    
O13   C48   1.327860 A    
C32   I7    2.108105 S    
C38   C41   1.408131 A    
C39   C40   1.421268 A    
O15   C47   1.317018 A    
O9    C4    1.323429 A    
C57   N7    1.472912 S    
O14   C46   1.320450 A    
C49   N6    1.483544 S    
N1    O21   1.302704 A    
C13   H4    1.099184 S    
O19   V4    2.030445 S    
C49   C54   1.590243 S    
C10   I2    2.169939 S    
O19   C48   1.320225 A    
C9    C15   1.510657 S    
N4    O28   1.301208 A    
C5    C9    1.565533 S    
C31   C32   1.382429 A    
C9    C13   1.556550 S    
N5    O29   1.300313 A    
C7    H3    1.096131 S    
C23   C24   1.411339 A    
O4    C2    1.315893 A    
C33   I8    2.098759 S    
C10   C11   1.595231 S    
C29   C30   1.405174 A    
C2    C52   1.462268 S    
O18   C47   1.325600 A    
O2    C1    1.317171 A    
C27   C28   1.392603 A    
C42   C43   1.399804 A    
O11   V4    2.024330 S    
C54   I9    2.167461 S    
C41   H11   1.075702 S    
V4    O20   2.220534 S    
C12   I3    2.178577 S    
O14   V3    2.011104 S    
C1    C40   1.506722 S    
C17   C18   1.391938 A    
C39   C44   1.406041 A    
C6    N8    1.472516 S    
C53   C59   1.504106 S    
N1    O22   1.300637 A    
C42   N4    1.443292 S    
O3    C4    1.317616 A    
N9    O38   1.300896 A    
C54   H17   1.107073 S    
C43   I6    2.070356 S    
C24   C25   1.424834 A    
O6    V2    2.028139 S    
C35   C37   1.416493 A    
C17   H5    1.079774 S    
C18   H6    1.082457 S    
N7    O33   1.302575 A    
O2    V1    2.010902 S    
C8    C14   1.220406 T    
C20   H8    1.079133 S    
C32   C33   1.389628 A    
N3    O25   1.300482 A    
N8    O36   1.297424 A    
C34   C35   1.411547 A    
N6    O32   1.299274 A    
C30   N3    1.443068 S    
C50   C51   1.558857 S    
C31   C36   1.410428 A    
C23   C48   1.509486 S    
N7    O34   1.303593 A    
C50   H14   1.089423 S    
O5    V1    2.017881 S    
N4    O27   1.300700 A    
C52   C58   1.222330 T    
C34   H10   1.083015 S    
C55   C58   1.507150 S    
C6    N5    1.488966 S    
C17   C22   1.417706 A    
C5    C10   1.579730 S    
C37   C46   1.503953 S    
O9    V2    1.974714 S    
C38   C39   1.428394 A    
O4    V1    2.001055 S    
C21   C23   1.421005 A    
O3    V1    1.992589 S    
V1    O10   1.752244 S    
O18   V4    1.975020 S    
C51   I10   2.161676 S    
C37   C38   1.413514 A    
N6    O31   1.301093 A    
C56   N9    1.481343 S    
C51   C55   1.568521 S    
C54   C55   1.587596 S    
O11   C46   1.326015 A    
C57   H15   1.113490 S    
O7    V2    1.757248 S    
C41   C42   1.387825 A    
N2    O24   1.301370 A    
N9    O37   1.301067 A    
C53   C57   1.574798 S    
C43   C44   1.396881 A    
C22   C26   1.428851 A    
V3    O20   1.752341 S    
C36   C40   1.416056 A    
C11   C14   1.508734 S    
O15   V3    1.992509 S    
C12   C13   1.573406 S    
O12   C45   1.316795 A    
C13   I13   2.112379 S    
C27   I5    2.107463 S    
O13   V3    2.017983 S    
O8    C3    1.324494 A    
N3    O26   1.297306 A    
C28   N2    1.434222 S    
