data_mof_unit_1774.cif
_audit_creation_date              2012-12-10T17:03:24-0500
_audit_creation_method            fapswitch 2.2
_symmetry_space_group_name_H-M    P1
_symmetry_Int_Tables_number       1
_space_group_crystal_system       triclinic
_cell_length_a                    15.138417
_cell_length_b                    11.104548
_cell_length_c                    9.75532
_cell_angle_alpha                 110.007609
_cell_angle_beta                  97.297411
_cell_angle_gamma                 91.686566
_cell_volume                      1523.78418692

loop_
_atom_site_label
_atom_site_type_symbol
_atom_type_description
_atom_site_fract_x
_atom_site_fract_y
_atom_site_fract_z
_atom_type_partial_charge
C1    C     C_R   0.491208 0.254102 0.443281 0.827426
C2    C     C_R   0.506700 0.744560 0.557057 0.831682
C3    C     C_R   0.054951 0.403611 0.691088 -0.186933
C4    C     C_R   0.944349 0.599225 0.308191 -0.187689
C5    C     C_2   0.484856 0.115167 0.418650 -0.281106
C6    C     C_2   0.518405 0.880330 0.581002 -0.326031
C7    C     C_2   0.471895 0.071125 0.530464 -0.133520
C8    C     C_2   0.460688 0.933505 0.503895 -0.095175
C9    C     C_2   0.504951 0.514169 0.081801 0.017529
C10   C     C_2   0.490214 0.493679 0.920577 0.018006
C11   C     C_R   0.328810 0.498466 0.502116 0.827443
C12   C     C_R   0.671093 0.503138 0.498160 0.835068
C13   C     C_R   0.807579 0.550076 0.395952 -0.026019
C14   C     C_R   0.191777 0.454349 0.604888 -0.029765
C15   C     C_R   0.767447 0.504770 0.493858 -0.145199
C16   C     C_R   0.232287 0.498838 0.506739 -0.142906
C17   C     C_R   0.819216 0.458111 0.590578 -0.186770
C18   C     C_R   0.180638 0.545574 0.409716 -0.177758
C19   C     C_R   0.911112 0.451399 0.591040 0.035393
C20   C     C_R   0.088492 0.551875 0.408602 0.037760
C21   C     C_R   0.952913 0.500880 0.497269 0.060985
C22   C     C_R   0.046628 0.503045 0.502868 0.057002
C23   C     C_R   0.901137 0.549022 0.398572 0.021397
C24   C     C_R   0.098269 0.455063 0.601766 0.021560
C25   C     C_R   0.962573 0.399410 0.685733 -0.034098
C26   C     C_R   0.036713 0.602338 0.312573 -0.017973
Cu1   Cu    Cu3+1 0.515770 0.521810 0.644910 1.043128
Cu2   Cu    Cu3+1 0.484230 0.478190 0.355090 1.042608
N1    N     N_2   0.460520 0.445420 0.137370 -0.274223
N2    N     N_2   0.539480 0.554580 0.862630 -0.276118
O1    O     O_R   0.508410 0.332340 0.577400 -0.550647
O2    O     O_R   0.491590 0.667660 0.422600 -0.539529
O3    O     O_R   0.481780 0.295500 0.332650 -0.537715
O4    O     O_R   0.518220 0.704500 0.667350 -0.551459
O5    O     O_R   0.383570 0.518390 0.622380 -0.576485
O6    O     O_R   0.616430 0.481610 0.377620 -0.567759
O7    O     O_R   0.356940 0.481550 0.377630 -0.578835
O8    O     O_R   0.643060 0.518450 0.622370 -0.570093
C27   C     C_2   0.752786 0.603655 0.296462 0.836464
O9    O     O_2   0.710846 0.697093 0.348142 -0.588776
O10   O     O_R   0.749936 0.547172 0.143898 -0.734809
H1    H     H_    0.713544 0.595070 0.087890 0.323078
C28   C     C_2   0.245928 0.399474 0.703251 0.838437
O11   O     O_2   0.286573 0.305183 0.649998 -0.572421
O12   O     O_R   0.249218 0.454843 0.856051 -0.755072
H2    H     H_    0.284708 0.405298 0.911055 0.317819
H3    H     H_    0.786342 0.427187 0.666255 0.203620
H4    H     H_    0.213725 0.576623 0.334309 0.188775
C29   C     C_2   0.923300 0.335607 0.777972 0.883992
O13   O     O_2   0.857598 0.259023 0.726493 -0.543131
O14   O     O_R   0.964719 0.358384 0.922036 -0.713534
H5    H     H_    0.932561 0.309041 0.973776 0.356606
C30   C     C_2   0.075535 0.662744 0.217072 0.869197
O15   O     O_2   0.140205 0.741239 0.266912 -0.565122
O16   O     O_R   0.034726 0.634674 0.071621 -0.714707
H6    H     H_    0.066545 0.682144 0.017548 0.350898
H7    H     H_    0.092289 0.361352 0.762836 0.203344
H8    H     H_    0.906913 0.640838 0.235849 0.200038
C31   C     C_2   0.376382 0.864154 0.411390 0.923550
O17   O     O_2   0.305026 0.893102 0.454852 -0.507211
O18   O     O_R   0.378337 0.770656 0.272982 -0.718039
H9    H     H_    0.316624 0.731351 0.220520 0.355100
C32   C     C_2   0.464740 0.151803 0.685100 0.934812
O19   O     O_2   0.529680 0.218717 0.765401 -0.551606
O20   O     O_R   0.387547 0.135688 0.743698 -0.685192
H10   H     H_    0.392151 0.188123 0.852424 0.323038
C33   C     C_2   0.600402 0.952124 0.680835 0.943370
O21   O     O_2   0.616324 0.947446 0.804691 -0.496580
O22   O     O_R   0.661045 0.022431 0.634824 -0.653013
H11   H     H_    0.646736 0.010795 0.526628 0.335193
C34   C     C_2   0.494365 0.024529 0.268313 0.899054
O23   O     O_2   0.462089 0.046682 0.158764 -0.532703
O24   O     O_R   0.541778 0.915386 0.252137 -0.733843
H12   H     H_    0.543362 0.861777 0.145037 0.350835
H13   H     H_    0.437350 0.424431 0.849452 0.175910
H14   H     H_    0.554537 0.588491 0.154388 0.187060
H15   H     H_    0.588443 0.621713 0.932425 0.194917
H16   H     H_    0.413850 0.375168 0.066677 0.187473

loop_
_geom_bond_atom_site_label_1
_geom_bond_atom_site_label_2
_ccdc_geom_bond_type
O16   H6    S    
C32   O20   S    
O10   H1    S    
C1    O3    A    
C7    C8    S    
C27   O10   S    
C30   O15   D    
C1    C5    S    
Cu2   N1    S    
C19   C21   A    
C8    C31   S    
Cu1   O8    S    
C1    O1    A    
C13   C23   A    
C2    O2    A    
O24   H12   S    
C14   C24   A    
C11   O7    A    
N2    H15   S    
C21   C23   A    
N1    H16   S    
C29   O14   S    
C9    H14   S    
C12   O6    A    
C9    C10   S    
O18   H9    S    
C9    N1    D    
C2    O4    A    
C31   O17   D    
C21   C22   A    
Cu1   N2    S    
C3    C24   A    
C2    C6    S    
C30   O16   S    
Cu1   O4    S    
C31   O18   S    
Cu1   O1    S    
C33   O21   D    
Cu2   O2    S    
C27   O9    D    
C5    C7    D    
C4    C23   A    
C6    C8    D    
Cu1   O5    S    
O12   H2    S    
O14   H5    S    
C33   O22   S    
C28   O11   D    
C11   C16   S    
C10   N2    D    
C12   C15   S    
C3    C25   A    
C28   O12   S    
C7    C32   S    
C3    H7    S    
C6    C33   S    
C20   C22   A    
Cu2   O3    S    
C29   O13   D    
C13   C15   A    
C22   C24   A    
C26   C30   S    
C34   O24   S    
C15   C17   A    
C14   C16   A    
C17   H3    S    
C18   H4    S    
C4    C26   A    
C11   O5    A    
C34   O23   D    
C5    C34   S    
C20   C26   A    
Cu2   O7    S    
C17   C19   A    
C18   C20   A    
C12   O8    A    
O22   H11   S    
C19   C25   A    
C25   C29   S    
C13   C27   S    
C32   O19   D    
Cu2   O6    S    
C16   C18   A    
O20   H10   S    
C4    H8    S    
Cu1   Cu2   S    
C14   C28   S    
C10   H13   S    
