data_mof_unit_1882.cif
_audit_creation_date              2012-12-11T21:09:46-0500
_audit_creation_method            fapswitch 2.2
_symmetry_space_group_name_H-M    P1
_symmetry_Int_Tables_number       1
_space_group_crystal_system       triclinic
_cell_length_a                    8.434673
_cell_length_b                    19.11786
_cell_length_c                    26.774195
_cell_angle_alpha                 100.552681
_cell_angle_beta                  92.538691
_cell_angle_gamma                 87.448063
_cell_volume                      4237.31471292

loop_
_atom_site_label
_atom_site_type_symbol
_atom_type_description
_atom_site_fract_x
_atom_site_fract_y
_atom_site_fract_z
_atom_type_partial_charge
Ba1   Ba    Ba6+2 0.160260 0.465850 0.521400 1.699641
Ba2   Ba    Ba6+2 0.649930 0.534160 0.478640 1.763522
C1    C     C_3   0.395280 0.326716 0.680370 -0.273835
C2    C     C_R   0.990442 0.726204 0.517052 0.020961
C3    C     C_R   0.115853 0.810296 0.455722 -0.048308
C4    C     C_3   0.952768 0.286995 0.633534 0.318759
C5    C     C_R   0.184242 0.742389 0.457102 -0.013807
C6    C     C_R   0.691293 0.189994 0.542459 -0.157926
C7    C     C_R   0.618840 0.255886 0.537114 0.000815
C8    C     C_R   0.860356 0.199556 0.474338 -0.053480
C9    C     C_R   0.822281 0.273426 0.482018 0.061981
C10   C     C_R   0.013741 0.844957 0.494251 0.101967
C11   C     C_R   0.108906 0.698291 0.483682 -0.225488
C12   C     C_3   0.434651 0.256619 0.644834 0.479302
C13   C     C_R   0.804191 0.155915 0.507186 0.026228
C14   C     C_R   0.694215 0.299803 0.510930 -0.155054
C15   C     C_R   0.223587 0.958212 0.471752 -0.085371
C16   C     C_3   0.980814 0.219571 0.656278 -0.044286
C17   C     C_R   0.313571 0.004155 0.451143 -0.047941
C18   C     C_R   0.269672 0.075544 0.458497 -0.005850
C19   C     C_R   0.132257 0.098971 0.483909 -0.099481
C20   C     C_R   0.016312 0.050993 0.491043 0.026412
C21   C     C_R   0.065534 0.976896 0.486587 0.061341
C22   C     C_R   0.858447 0.076283 0.504014 0.045134
C23   C     C_3   0.542810 0.308001 0.345324 0.658760
C24   C     C_R   0.753701 0.024394 0.514661 0.052717
C25   C     C_R   0.804620 0.951103 0.513225 -0.020167
C26   C     C_R   0.961143 0.925007 0.498353 0.057229
C27   C     C_R   0.594088 0.043240 0.526717 -0.156215
C28   C     C_3   0.859854 0.627109 0.636458 0.305590
C29   C     C_R   0.506270 0.002045 0.551846 -0.152548
C30   C     C_R   0.557769 0.932924 0.552648 0.458485
C31   C     C_R   0.692004 0.905690 0.526590 -0.071716
C32   C     C_R   0.375345 0.475320 0.184302 0.669336
C33   C     C_R   0.104085 0.503693 0.162563 0.591541
C34   C     C_3   0.528412 0.299746 0.287446 -0.412027
C35   C     C_2   0.084776 0.557486 0.274496 -0.009001
C36   C     C_3   0.068265 0.577229 0.331585 -0.088442
C37   C     C_1   0.264270 0.478467 0.337288 -0.037043
C38   C     C_2   0.263897 0.458286 0.287398 -0.086043
C39   C     C_2   0.183067 0.503218 0.253124 0.269160
C40   C     C_3   0.883721 0.647474 0.694738 -0.083506
C41   C     C_R   0.301665 0.487535 0.097232 -0.075021
C42   C     C_R   0.415834 0.469583 0.133091 -0.048843
C43   C     C_R   0.569841 0.448162 0.117373 -0.025534
C44   C     C_R   0.145073 0.505568 0.112221 -0.016684
C45   C     C_3   0.860181 0.721941 0.333787 0.724192
C46   C     C_2   0.164054 0.528014 0.360617 -0.227285
C47   C     C_2   0.648590 0.476449 0.638191 -0.273811
C48   C     C_R   0.535245 0.457357 0.978307 0.020633
C49   C     C_R   0.283516 0.521807 0.963388 0.020851
C50   C     C_R   0.431383 0.490649 0.945874 0.052447
C51   C     C_R   0.672577 0.420128 0.957462 -0.108303
C52   C     C_3   0.052408 0.309215 0.360410 0.416880
C53   C     C_R   0.707859 0.417437 0.906746 -0.062856
C54   C     C_R   0.611921 0.454596 0.875442 -0.030687
C55   C     C_R   0.475970 0.492927 0.895490 -0.080955
C56   C     C_3   0.881591 0.723229 0.277263 -0.239078
C57   C     C_R   0.384669 0.533623 0.865281 -0.026640
C58   C     C_R   0.436951 0.539462 0.816870 0.587241
C59   C     C_R   0.647442 0.452997 0.824176 0.581675
C60   C     C_2   0.757543 0.489765 0.727530 -0.063423
C61   C     C_3   0.794726 0.488415 0.672332 -0.053320
C62   C     C_1   0.516323 0.508459 0.655574 0.065216
C63   C     C_2   0.477442 0.506190 0.702633 -0.109721
C64   C     C_3   0.122002 0.232757 0.359292 0.400233
C65   C     C_2   0.604502 0.497431 0.742625 0.186525
C66   C     C_R   0.497848 0.462112 0.030193 0.016925
C67   C     C_3   0.338464 0.729926 0.342870 0.917908
C68   C     C_R   0.344389 0.487631 0.046319 0.057051
C69   C     C_R   0.233629 0.513727 0.012079 0.023389
C70   C     C_R   0.609349 0.443237 0.066847 -0.099488
C71   C     C_R   0.032701 0.525227 0.076572 -0.057606
C72   C     C_R   0.192294 0.561252 0.931865 -0.096404
C73   C     C_R   0.244035 0.568457 0.884359 -0.053494
C74   C     C_R   0.076532 0.530508 0.027803 -0.100036
C75   C     C_3   0.310524 0.688521 0.603511 0.346676
C76   C     C_3   0.214643 0.747349 0.637166 -0.004474
C77   C     C_3   0.659964 0.730186 0.719511 -0.146770
C78   C     C_3   0.293829 0.806184 0.335371 -0.190008
C79   C     C_3   0.932193 0.382646 0.300682 -0.066887
C80   C     C_3   0.220560 0.834325 0.716143 -0.184979
C81   C     C_3   0.548105 0.178878 0.702434 -0.280204
C82   C     C_3   0.005064 0.090118 0.634544 -0.254812
C83   C     C_R   0.964634 0.800966 0.528178 -0.139376
H1    H     H_    0.560852 0.257043 0.634568 -0.043285
H2    H     H_    0.122468 0.721050 0.653458 0.089341
H3    H     H_    0.158268 0.785045 0.614218 0.092291
H4    H     H_    0.276863 0.325372 0.696571 0.141308
H5    H     H_    0.647826 0.337907 0.359895 0.050388
H6    H     H_    0.540677 0.351928 0.275951 0.085840
H7    H     H_    0.624611 0.263829 0.269464 0.155724
H8    H     H_    0.412397 0.277543 0.272904 0.133145
H9    H     H_    0.393817 0.370894 0.658783 0.088972
H10   H     H_    0.976605 0.714227 0.352945 -0.157539
H11   H     H_    0.815248 0.768454 0.264304 0.179044
H12   H     H_    0.958212 0.694466 0.706220 0.104587
H13   H     H_    0.008158 0.728550 0.270249 0.085964
H14   H     H_    0.838116 0.674007 0.252965 0.131106
H15   H     H_    0.232539 0.704044 0.352681 -0.460300
H16   H     H_    0.164989 0.811429 0.326674 0.089548
H17   H     H_    0.355935 0.821102 0.303426 0.166787
H18   H     H_    0.048179 0.289888 0.606852 0.090418
H19   H     H_    0.325859 0.845456 0.369816 0.078414
H20   H     H_    0.902773 0.823380 0.562272 0.081850
H21   H     H_    0.149641 0.836825 0.426201 0.069240
H22   H     H_    0.652096 0.164665 0.572343 0.076800
H23   H     H_    0.950880 0.603460 0.709100 0.049132
H24   H     H_    0.935291 0.177185 0.443479 0.108636
H25   H     H_    0.149924 0.643362 0.481042 0.058892
H26   H     H_    0.646761 0.353226 0.510440 0.059062
H27   H     H_    0.285305 0.909883 0.477398 0.104987
H28   H     H_    0.427962 0.986221 0.435717 0.127045
H29   H     H_    0.349262 0.113339 0.448671 0.152392
H30   H     H_    0.836334 0.285205 0.612908 -0.046137
H31   H     H_    0.119552 0.154912 0.498223 0.093188
H32   H     H_    0.532769 0.089320 0.516882 0.097430
H33   H     H_    0.392815 0.022212 0.567016 0.090646
H34   H     H_    0.134841 0.348726 0.380915 0.004057
H35   H     H_    0.703465 0.849084 0.518005 0.159427
H36   H     H_    0.305945 0.405426 0.270747 0.049915
H37   H     H_    0.660883 0.434488 0.144156 0.150089
H38   H     H_    0.856226 0.489483 0.754872 0.119123
H39   H     H_    0.813052 0.387111 0.892382 0.122148
H40   H     H_    0.751868 0.390117 0.979050 0.073852
H41   H     H_    0.090569 0.224472 0.680998 0.121780
H42   H     H_    0.730589 0.427223 0.057930 0.071953
H43   H     H_    0.030547 0.592990 0.251355 0.118954
H44   H     H_    0.910668 0.538548 0.086696 0.124663
H45   H     H_    0.114140 0.216123 0.396457 -0.004595
H46   H     H_    0.083321 0.589749 0.944010 0.074601
H47   H     H_    0.171248 0.600422 0.862072 0.116232
H48   H     H_    0.353923 0.507213 0.711634 0.153303
H49   H     H_    0.983638 0.545810 0.002464 0.073240
H50   H     H_    0.152772 0.536537 0.401482 0.075728
H51   H     H_    0.653830 0.446861 0.599551 0.054790
H52   H     H_    0.879432 0.214476 0.680264 0.095858
H53   H     H_    0.739037 0.607399 0.626041 0.025859
H54   H     H_    0.948601 0.584275 0.622610 0.031891
H55   H     H_    0.736218 0.646703 0.755036 0.207254
H56   H     H_    0.248387 0.233760 0.352465 0.095516
H57   H     H_    0.540986 0.732702 0.735982 0.143010
H58   H     H_    0.646464 0.740700 0.680120 0.178278
H59   H     H_    0.733386 0.771713 0.742962 0.085790
H60   H     H_    0.137408 0.317791 0.289648 0.156504
H61   H     H_    0.953217 0.396374 0.263047 0.088712
H62   H     H_    0.955013 0.428815 0.331138 0.056250
H63   H     H_    0.806660 0.369502 0.301013 0.130851
H64   H     H_    0.849779 0.152909 0.253982 0.360091
H65   H     H_    0.409445 0.806609 0.668732 0.292790
H66   H     H_    0.302267 0.858523 0.747609 0.117045
H67   H     H_    0.226843 0.654843 0.577394 -0.085202
H68   H     H_    0.129032 0.805940 0.732414 0.100501
H69   H     H_    0.162396 0.877361 0.698243 0.130782
H70   H     H_    0.367861 0.153145 0.648177 0.213071
H71   H     H_    0.509844 0.141472 0.726352 0.138014
H72   H     H_    0.593819 0.226800 0.727901 0.131446
H73   H     H_    0.643878 0.152097 0.677978 0.106438
H74   H     H_    0.563453 0.144077 0.293009 0.363345
H75   H     H_    0.084496 0.160598 0.591817 0.216864
H76   H     H_    0.014733 0.045509 0.601734 0.108484
H77   H     H_    0.896081 0.083708 0.654788 0.127691
H78   H     H_    0.390339 0.712360 0.579953 0.111270
H79   H     H_    0.111061 0.087346 0.660372 0.114424
H80   H     H_    0.781004 0.756874 0.430667 0.311372
H81   H     H_    0.454803 0.595792 0.328726 0.320495
H82   H     H_    0.289809 0.952754 0.631031 0.325329
H83   H     H_    0.485955 0.337360 0.711885 0.074984
N1    N     N_R   0.220307 0.492801 0.199136 -0.418749
N2    N     N_R   0.563715 0.497078 0.795389 -0.425084
N3    N     N_2   0.733094 0.660432 0.719488 -0.439592
N4    N     N_2   0.032811 0.322287 0.308649 -0.400506
N5    N     N_2   0.309427 0.785173 0.679094 -0.403548
N6    N     N_2   0.414686 0.197452 0.670986 -0.429403
N7    N     N_2   0.996488 0.157191 0.616680 -0.450394
O1    O     O_2   0.103290 0.325410 0.465600 -0.484355
O2    O     O_2   0.752895 0.529535 0.325246 -0.430958
O3    O     O_3   0.753174 0.668972 0.339262 -0.540489
O4    O     O_3   0.857760 0.414170 0.470020 -0.472207
O5    O     O_3   0.459840 0.537690 0.560170 -0.483138
O6    O     O_2   0.582520 0.462630 0.379680 -0.461674
O7    O     O_3   0.405619 0.341841 0.367698 -0.685235
O8    O     O_2   0.504614 0.758313 0.479324 -0.412468
O9    O     O_3   0.462528 0.730785 0.380165 -0.549901
O10   O     O_2   0.479714 0.465991 0.215779 -0.549871
O11   O     O_2   0.751179 0.411235 0.805082 -0.595276
O12   O     O_3   0.402901 0.650814 0.635163 -0.624887
O13   O     O_2   0.964620 0.511381 0.173661 -0.599857
O14   O     O_2   0.370517 0.583217 0.794300 -0.606142
O15   O     O_3   0.374170 0.371120 0.556000 -0.466860
O16   O     O_2   0.309671 0.246763 0.504331 -0.452024
O17   O     O_3   0.906717 0.319736 0.384654 -0.620551
O18   O     O_3   0.328193 0.249412 0.602091 -0.636959
O19   O     O_2   0.227790 0.537410 0.620340 -0.482585
O20   O     O_3   0.969630 0.407570 0.582610 -0.503458
O21   O     O_2   0.118863 0.453796 0.670781 -0.490808
O22   O     O_2   0.169920 0.140583 0.271885 -0.247515
O23   O     O_3   0.951541 0.345751 0.673338 -0.604805
O24   O     O_2   0.000162 0.102758 0.333034 -0.225433
O25   O     O_3   0.883685 0.194539 0.279324 -0.498807
O26   O     O_2   0.738596 0.201333 0.369268 -0.272052
O27   O     O_2   0.490328 0.223294 0.412918 -0.314963
O28   O     O_3   0.482367 0.158700 0.318904 -0.464127
O29   O     O_2   0.911855 0.861651 0.367970 -0.312723
O30   O     O_2   0.643990 0.831865 0.336320 -0.242157
O31   O     O_3   0.734886 0.802920 0.423949 -0.490770
O32   O     O_2   0.268038 0.670793 0.245011 -0.337625
O33   O     O_2   0.533931 0.714071 0.263750 -0.254514
O34   O     O_2   0.707020 0.674640 0.534420 -0.424498
O35   O     O_3   0.468472 0.596690 0.292335 -0.434734
O36   O     O_2   0.320586 0.847025 0.556084 -0.384116
O37   O     O_2   0.572137 0.823089 0.600119 -0.325419
O38   O     O_3   0.393041 0.931461 0.640922 -0.541851
O39   O     O_3   0.952550 0.585840 0.530020 -0.503400
O40   O     O_3   0.436140 0.628890 0.444040 -0.472467
O41   O     O_3   0.880932 0.686850 0.614647 -0.651173
O42   O     O_3   0.350480 0.462320 0.439870 -0.444535
O43   O     O_3   0.840680 0.592440 0.417430 -0.477616
P1    P     P_3+3 0.926760 0.336170 0.451740 1.008315
P2    P     P_3+3 0.399470 0.558680 0.614150 1.014134
P3    P     P_3+3 0.957924 0.424531 0.648998 0.948150
P4    P     P_3+3 0.883550 0.663840 0.548300 0.994206
P5    P     P_3+3 0.855757 0.591372 0.352198 0.994441
P6    P     P_3+3 0.410693 0.279833 0.551496 0.957958
P7    P     P_3+3 0.406159 0.435423 0.376980 0.942908
P8    P     P_3+3 0.391604 0.716990 0.438403 1.028870
S1    S     S_3+6 0.043940 0.164864 0.309869 0.007623
S2    S     S_3+6 0.566624 0.221619 0.363079 -0.063163
S3    S     S_3+6 0.786404 0.807630 0.365030 -0.030593
S4    S     S_3+6 0.402760 0.678038 0.283859 -0.016419
S5    S     S_3+6 0.458542 0.880521 0.587221 -0.145819

loop_
_geom_bond_atom_site_label_1
_geom_bond_atom_site_label_2
_ccdc_geom_bond_type
C76   H2    S    
C75   H78   S    
O26   S2    D    
C53   C54   A    
C15   H27   S    
Ba1   O1    S    
C28   H53   S    
C9    P1    S    
C16   H52   S    
C61   P3    S    
C46   H50   S    
O30   S3    D    
C17   C18   A    
C56   H13   S    
C49   C72   A    
O9    P8    S    
O43   P5    S    
C64   H56   S    
C75   C76   S    
C25   C31   A    
C2    C83   A    
C38   H36   S    
C23   H5    S    
C11   H25   S    
C52   O17   S    
C10   C83   A    
C78   H19   S    
C47   C61   S    
Ba1   O20   S    
C7    C14   A    
C22   C24   A    
C45   O3    S    
C8    C13   A    
C69   C74   A    
C30   S5    S    
Ba1   O5    S    
C55   C57   A    
C77   H57   S    
C17   H28   S    
C41   C68   A    
Ba2   P4    S    
C54   C55   A    
C75   H67   S    
C8    H24   S    
Ba1   Ba2   S    
O29   S3    D    
C79   N4    S    
C77   N3    S    
C2    C11   A    
C63   H48   S    
C56   H11   S    
C73   H47   S    
C60   H38   S    
O39   P4    S    
C80   H68   S    
C34   H8    S    
O18   P6    S    
C77   H58   S    
C29   C30   A    
C6    C7    A    
C63   C65   S    
O1    P1    D    
C64   S1    S    
Ba2   O42   S    
C48   C50   A    
C68   C69   A    
C1    H9    S    
C82   N7    S    
H80   O31   S    
C36   C46   S    
O21   P3    D    
C82   H79   S    
C3    H21   S    
C35   H43   S    
Ba1   O15   S    
C34   H7    S    
H60   N4    S    
C57   C58   A    
C47   C62   D    
C52   H34   S    
O31   S3    S    
O34   P4    D    
C72   H46   S    
C49   C69   A    
C19   H31   S    
C83   H20   S    
O8    P8    D    
O28   S2    S    
C40   H23   S    
C1    H83   S    
C3    C5    A    
O12   P2    S    
C51   C53   A    
C65   N2    S    
C4    C16   S    
C71   H44   S    
C48   C51   A    
C72   C73   A    
C62   P2    S    
C70   H42   S    
C49   C50   A    
C52   N4    S    
O23   P3    S    
C32   C42   A    
C12   H1    S    
C3    C10   A    
C50   C55   A    
C40   H12   S    
C37   C38   D    
C4    O23   S    
O37   S5    D    
C74   H49   S    
C58   O14   D    
O19   P2    D    
C81   H71   S    
H64   O25   S    
O6    P7    D    
C4    H18   S    
C39   N1    S    
C78   H17   S    
O25   S1    S    
C36   P5    S    
C32   O10   D    
C41   C42   A    
C29   H33   S    
C35   C36   S    
O15   P6    S    
C76   N5    S    
C9    C14   A    
H74   O28   S    
C77   H59   S    
C81   H72   S    
C80   N5    S    
C5    C11   A    
C66   C70   A    
C79   H63   S    
C18   C19   A    
C60   C61   S    
O35   S4    S    
Ba1   P1    S    
C15   C21   A    
C21   C26   A    
O2    P5    D    
C1    C12   S    
C32   N1    Am   
C51   H40   S    
C31   H35   S    
C52   C64   S    
C60   C65   D    
H70   N6    S    
C66   C68   A    
C38   C39   S    
C47   H51   S    
C10   C26   S    
Ba2   O39   S    
H55   N3    S    
C8    C9    A    
O24   S1    D    
O7    P7    S    
C24   C25   A    
C75   O12   S    
H75   N7    S    
C20   C22   A    
O3    P5    S    
O5    P2    S    
Ba2   O4    S    
H82   O38   S    
C6    H22   S    
C57   C73   A    
C25   C26   A    
C82   H77   S    
C23   O7    S    
C34   H6    S    
O20   P3    S    
C76   H3    S    
C53   H39   S    
C13   C22   S    
Ba2   O34   S    
C28   H54   S    
C42   C43   A    
O4    P1    S    
C23   C34   S    
C54   C59   A    
C12   O18   S    
C56   H14   S    
C80   H66   S    
O38   S5    S    
C16   N7    S    
O27   S2    D    
O32   S4    D    
C45   S3    S    
C5    P8    S    
C43   H37   S    
C6    C13   A    
O22   S1    D    
C23   S2    S    
Ba2   O5    S    
C78   H16   S    
C1    H4    S    
O40   P8    S    
C58   N2    Am   
C30   C31   A    
Ba1   O19   S    
O36   S5    D    
C27   C29   A    
C67   S4    S    
C16   H41   S    
C45   C56   S    
C18   H29   S    
Ba1   O4    S    
C7    P6    S    
C79   H62   S    
C81   H73   S    
C27   H32   S    
C2    P4    S    
C62   C63   D    
C59   O11   D    
C15   C17   A    
C33   N1    Am   
Ba1   P2    S    
C35   C39   D    
C41   C44   A    
O41   P4    S    
C4    H30   S    
C37   P7    S    
C40   N3    S    
C67   O9    S    
C28   O41   S    
C80   H69   S    
C67   H15   S    
Ba2   O40   S    
H65   N5    S    
C71   C74   A    
C24   C27   A    
C12   N6    S    
C79   H61   S    
C33   O13   D    
C81   N6    S    
O42   P7    S    
Ba1   O39   S    
Ba2   O43   S    
C45   H10   S    
C20   C21   A    
C28   C40   S    
C67   C78   S    
Ba1   O42   S    
C59   N2    Am   
O17   P1    S    
C64   H45   S    
C19   C20   A    
C33   C44   A    
C48   C66   A    
O16   P6    D    
Ba2   O6    S    
C44   C71   A    
H81   O35   S    
C82   H76   S    
C14   H26   S    
O33   S4    D    
C37   C46   D    
C43   C70   A    
