data_mof_unit_2099.cif
_audit_creation_date              2013-03-05T16:23:15-0500
_audit_creation_method            fapswitch 2.2
_symmetry_space_group_name_H-M    P1
_symmetry_Int_Tables_number       1
_space_group_crystal_system       triclinic
_cell_length_a                    27.26514
_cell_length_b                    10.537945
_cell_length_c                    9.768285
_cell_angle_alpha                 89.019691
_cell_angle_beta                  90.605964
_cell_angle_gamma                 89.645886
_cell_volume                      2805.98490936

loop_
_atom_site_label
_atom_site_type_symbol
_atom_site_description
_atom_site_fract_x
_atom_site_fract_y
_atom_site_fract_z
_atom_type_partial_charge
O1    O     O_R   0.500000 0.313960 0.616610 -0.633467
O2    O     O_R   0.500000 0.686040 0.383390 -0.590059
O3    O     O_R   0.500020 0.313950 0.383350 -0.589154
O4    O     O_R   0.499980 0.686050 0.616650 -0.597940
C1    C     C_R   0.500803 0.258105 0.501242 0.986038
C2    C     C_R   0.499711 0.741950 0.498628 1.009031
O5    O     O_R   0.428750 0.500030 0.616610 -0.603398
O6    O     O_R   0.571250 0.499970 0.383390 -0.604336
O7    O     O_R   0.428770 0.500020 0.383360 -0.597545
O8    O     O_R   0.571230 0.499980 0.616640 -0.585797
C3    C     C_R   0.405993 0.496285 0.499575 1.014998
C4    C     C_R   0.594034 0.498509 0.500869 0.970893
Zn1   Zn    Zn3+2 0.499990 0.500010 0.655740 1.020681
Zn2   Zn    Zn3+2 0.500010 0.499990 0.344260 1.044506
C5    C     C_R   0.179514 0.312207 0.449513 0.626166
C6    C     C_R   0.821286 0.423760 0.650011 0.587083
O9    O     O_2   0.205383 0.260325 0.347470 -0.560447
O10   O     O_2   0.796247 0.489928 0.743759 -0.543790
N1    N     N_R   0.202024 0.396951 0.532930 -0.299754
N2    N     N_R   0.798094 0.391069 0.531466 -0.332378
C7    C     C_R   0.177312 0.461360 0.630712 0.717414
C8    C     C_R   0.821751 0.330264 0.429040 0.630418
C9    C     C_R   0.269537 0.523284 0.444019 0.380462
C10   C     C_R   0.713766 0.337915 0.581943 0.430170
C11   C     C_R   0.320341 0.546103 0.430812 0.273124
C12   C     C_R   0.663163 0.363122 0.571070 0.346746
C13   C     C_R   0.337675 0.357630 0.574710 0.261759
C14   C     C_R   0.680194 0.558891 0.440037 0.379320
C15   C     C_R   0.287393 0.333927 0.586255 -0.098620
C16   C     C_R   0.730706 0.528738 0.443682 -0.125336
C17   C     C_R   0.253615 0.417108 0.519812 0.131916
C18   C     C_R   0.746846 0.418817 0.516290 0.043193
C19   C     C_R   0.102686 0.354530 0.562885 -0.118062
C20   C     C_R   0.897426 0.342448 0.560288 -0.129965
C21   C     C_R   0.129698 0.281967 0.468421 -0.151332
C22   C     C_R   0.871126 0.393021 0.671420 -0.160157
C23   C     C_R   0.106064 0.181887 0.398080 -0.097407
C24   C     C_R   0.895725 0.412159 0.798381 -0.104994
C25   C     C_R   0.126568 0.444273 0.646239 -0.106794
C26   C     C_R   0.872577 0.307137 0.439074 -0.101690
C27   C     C_R   0.353825 0.466335 0.500851 -0.212330
C28   C     C_R   0.646787 0.475341 0.504789 -0.246461
C29   C     C_R   0.975476 0.274207 0.462742 -0.034151
C30   C     C_R   0.024594 0.405346 0.671004 -0.028733
C31   C     C_R   0.973836 0.380106 0.683337 -0.020596
C32   C     C_R   0.027018 0.259146 0.479628 -0.023486
C33   C     C_R   0.948787 0.330126 0.569546 -0.032650
C34   C     C_R   0.051581 0.338583 0.572463 -0.027637
C35   C     C_R   0.950894 0.245633 0.338714 0.325478
C36   C     C_R   0.047794 0.502560 0.745268 0.312801
C37   C     C_R   0.899070 0.253497 0.330480 0.387872
C38   C     C_R   0.099312 0.515625 0.740612 0.365686
O11   O     O_2   0.796019 0.295802 0.317077 -0.449606
O12   O     O_2   0.202149 0.542373 0.711019 -0.453029
C39   C     C_R   0.054893 0.168394 0.407612 0.525527
C40   C     C_R   0.947191 0.403355 0.804391 0.522540
C41   C     C_3   0.499202 0.036159 0.631298 -0.127288
C42   C     C_3   0.501499 0.964006 0.367992 -0.140817
C43   C     C_3   0.539032 0.953532 0.566383 0.301171
C44   C     C_3   0.461715 0.046708 0.432761 0.310263
C45   C     C_3   0.499175 0.876147 0.495471 -0.119325
C46   C     C_3   0.501530 0.124010 0.503753 -0.122626
C47   C     C_3   0.458965 0.958683 0.559383 -0.132831
C48   C     C_3   0.541702 0.041530 0.439698 -0.150134
C49   C     C_3   0.499204 0.385058 0.050894 -0.119332
C50   C     C_3   0.500741 0.615041 0.949020 -0.060109
C51   C     C_3   0.537507 0.441088 0.954731 -0.000026
C52   C     C_3   0.462466 0.558858 0.045243 0.007014
H1    H     H_    0.498955 0.288457 0.098125 0.175229
H2    H     H_    0.500967 0.711633 0.901782 0.173403
N3    N     N_3   0.499960 0.500030 0.863290 -0.120646
N4    N     N_3   0.500040 0.499970 0.136710 -0.106826
C53   C     C_3   0.461170 0.444720 0.950972 -0.136894
C54   C     C_3   0.538863 0.555300 0.049021 0.010452
H3    H     H_    0.428472 0.399082 0.904870 0.197513
H4    H     H_    0.571566 0.600894 0.095119 0.193262
O13   O     O_3   0.370123 0.272948 0.637511 -0.754804
H5    H     H_    0.401435 0.273380 0.587479 0.356601
O14   O     O_3   0.665075 0.670628 0.375346 -0.661713
H6    H     H_    0.630595 0.690187 0.397712 0.335002
C55   C     C_2   0.499195 0.073902 0.778549 0.424703
H7    H     H_    0.530829 0.053170 0.843533 0.076415
O15   O     O_2   0.463941 0.129499 0.825428 -0.570624
C56   C     C_2   0.502070 0.928078 0.220247 0.510346
H8    H     H_    0.472202 0.957348 0.152408 0.111811
O16   O     O_2   0.536183 0.866461 0.175518 -0.583024
C57   C     C_2   0.411677 0.916936 0.622308 0.486374
H9    H     H_    0.386905 0.987302 0.663301 0.122959
O17   O     O_2   0.400668 0.804953 0.627321 -0.556041
C58   C     C_2   0.588467 0.082442 0.373242 0.467843
H10   H     H_    0.615515 0.011534 0.346220 0.131729
O18   O     O_2   0.596184 0.194200 0.347823 -0.545267
C59   C     C_2   0.579996 0.369305 0.898993 0.527879
H11   H     H_    0.573526 0.284381 0.840652 0.081668
O19   O     O_2   0.621845 0.405128 0.919675 -0.523358
C60   C     C_2   0.418394 0.625013 0.099820 0.515075
H12   H     H_    0.382312 0.584077 0.085902 0.065516
O20   O     O_2   0.422814 0.723988 0.161479 -0.547959
C61   C     C_2   0.271454 0.221081 0.668688 0.531852
H13   H     H_    0.298101 0.149875 0.702079 0.128918
O21   O     O_2   0.228917 0.206269 0.702777 -0.578630
C62   C     C_2   0.767520 0.613107 0.377074 0.626840
H14   H     H_    0.806441 0.595648 0.392488 0.026597
O22   O     O_2   0.755226 0.702622 0.303230 -0.450795
C63   C     C_2   0.134362 0.082844 0.325530 0.619973
H15   H     H_    0.169764 0.051053 0.365042 0.082653
O23   O     O_2   0.118274 0.035254 0.221291 -0.466251
C64   C     C_2   0.868288 0.429220 0.927894 0.627673
H16   H     H_    0.833141 0.383467 0.942262 0.117384
O24   O     O_2   0.884711 0.493794 0.020128 -0.473071
O25   O     O_3   0.628687 0.278625 0.620260 -0.766956
H17   H     H_    0.642785 0.191811 0.621239 0.335211
O26   O     O_3   0.338328 0.645833 0.353134 -0.717319
H18   H     H_    0.315023 0.664613 0.276946 0.352100
O27   O     O_3   0.732505 0.236286 0.657339 -0.726782
H19   H     H_    0.709827 0.216539 0.733217 0.359893
O28   O     O_3   0.234240 0.604000 0.388384 -0.723587
H20   H     H_    0.247737 0.690892 0.382615 0.357441
O29   O     O_3   0.874050 0.210986 0.216520 -0.692769
H21   H     H_    0.892836 0.140028 0.176680 0.347881
O30   O     O_3   0.123269 0.598431 0.826392 -0.671843
H22   H     H_    0.104188 0.606662 0.911631 0.362428
O31   O     O_3   0.978450 0.223400 0.223352 -0.700684
H23   H     H_    0.958924 0.245720 0.140347 0.374513
O32   O     O_3   0.019018 0.591129 0.810489 -0.698437
H24   H     H_    0.036695 0.672861 0.814289 0.363385
O33   O     O_3   0.033947 0.058921 0.357751 -0.664983
H25   H     H_    0.003171 0.041916 0.407762 0.337167
O34   O     O_3   0.970066 0.406674 0.931358 -0.679272
H26   H     H_    0.001785 0.360554 0.926897 0.343580
O35   O     O_3   0.579402 0.899404 0.635567 -0.749204
H27   H     H_    0.598946 0.972053 0.668287 0.336024
O36   O     O_3   0.421379 0.100701 0.363268 -0.763209
H28   H     H_    0.401743 0.027976 0.331133 0.356973

loop_
_geom_bond_atom_site_label_1
_geom_bond_atom_site_label_2
_geom_bond_distance
_ccdc_geom_bond_type
C50   C52   1.527216 S    
C57   H9    1.084461 S    
C59   H11   1.083545 S    
C13   C15   1.400400 A    
O25   H17   0.989976 S    
C48   C58   1.499265 S    
N1    C17   1.430643 S    
C55   H7    1.084405 S    
C41   C46   1.541516 S    
C50   H2    1.110449 S    
O13   H5    0.988173 S    
O5    C3    1.296288 A    
C63   O23   1.221256 D    
C43   O35   1.398893 S    
C43   C48   1.536257 S    
C52   C60   1.493338 S    
C54   H4    1.110360 S    
C37   O29   1.382035 S    
C44   C47   1.536064 S    
O1    C1    1.280623 A    
C2    C45   1.413961 S    
N1    C7    1.362781 A    
C56   O16   1.220014 D    
O26   H18   0.990039 S    
C42   C56   1.498515 S    
C7    O12   1.349675 S    
C41   C43   1.536669 S    
C42   C44   1.535619 S    
O27   H19   0.990458 S    
C50   C54   1.542825 S    
C49   C53   1.540421 S    
C64   H16   1.084778 S    
C44   C46   1.528815 S    
C14   C28   1.417013 A    
O4    Zn1   1.990893 S    
C45   C47   1.539301 S    
C14   O14   1.385188 S    
C4    C28   1.457412 S    
C61   H13   1.084977 S    
C31   C40   1.418446 A    
C49   C51   1.526761 S    
C60   O20   1.219279 D    
C32   C39   1.418606 A    
C36   C38   1.413358 A    
C46   C48   1.538805 S    
C40   O34   1.383406 S    
C6    N2    1.363921 A    
C47   C57   1.499390 S    
C42   C45   1.541048 S    
C25   C38   1.413774 A    
C59   O19   1.219956 D    
C53   H3    1.110463 S    
O2    C2    1.279518 A    
C5    C21   1.410356 A    
C55   O15   1.219991 D    
C41   C47   1.542087 S    
C8    O11   1.349362 S    
C31   C33   1.409886 A    
C42   C48   1.540751 S    
C32   C34   1.411273 A    
C43   C45   1.529742 S    
C15   C61   1.494112 S    
O31   H23   0.989424 S    
C56   H8    1.084396 S    
N4    C54   1.484536 S    
C11   C27   1.402046 A    
N3    C53   1.483763 S    
C29   C35   1.416159 A    
Zn1   N3    2.027419 S    
C35   C37   1.416270 A    
C52   C53   1.527640 S    
C52   N4    1.478755 S    
C9    C17   1.404614 A    
C5    N1    1.363542 A    
O7    Zn2   1.983520 S    
C10   C18   1.398079 A    
C23   C63   1.487886 S    
C11   O26   1.381183 S    
C38   O30   1.382276 S    
C13   C27   1.418216 A    
C58   O18   1.219455 D    
C50   N3    1.485032 S    
C7    C25   1.405758 A    
O6    C4    1.298944 A    
C8    C26   1.407660 A    
C60   H12   1.084823 S    
C16   C62   1.492087 S    
C36   O32   1.383629 S    
C19   C25   1.415655 A    
C62   O22   1.220731 D    
O7    C3    1.299863 A    
O30   H22   0.991236 S    
O3    Zn2   1.990895 S    
O8    C4    1.296557 A    
O4    C2    1.285572 A    
C61   O21   1.220232 D    
C39   O33   1.384090 S    
O35   H27   0.990970 S    
C57   O17   1.219743 D    
O32   H24   0.990623 S    
C20   C26   1.414441 A    
O1    Zn1   2.003905 S    
O33   H25   0.991149 S    
C49   N4    1.484676 S    
O3    C1    1.284173 A    
C30   C31   1.416857 A    
C12   C28   1.406473 A    
O34   H26   0.991143 S    
N2    C18   1.431419 S    
C30   C36   1.414062 A    
C5    O9    1.348608 S    
O6    Zn2   1.975651 S    
C21   C23   1.422476 A    
Zn2   N4    2.027420 S    
C10   C12   1.405993 A    
N2    C8    1.363135 A    
C13   O13   1.383991 S    
O8    Zn1   1.983523 S    
C9    O28   1.381316 S    
O29   H21   0.991157 S    
C26   C37   1.413575 A    
C63   H15   1.084716 S    
C22   C24   1.421695 A    
C15   C17   1.412683 A    
O28   H20   0.989883 S    
C6    C22   1.407663 A    
C51   C54   1.528402 S    
C16   C18   1.413307 A    
C58   H10   1.084403 S    
O36   H28   0.991084 S    
C29   C32   1.420795 A    
C49   H1    1.110519 S    
C12   O25   1.382972 S    
C14   C16   1.411422 A    
C19   C21   1.417805 A    
C20   C22   1.417108 A    
C64   O24   1.221286 D    
C1    C46   1.412894 S    
C3    C27   1.458998 S    
C51   N3    1.478332 S    
C9    C11   1.414226 A    
C24   C64   1.489501 S    
C62   H14   1.084387 S    
O2    Zn2   2.003903 S    
C41   C55   1.498912 S    
O14   H6    0.988686 S    
C23   C39   1.407174 A    
O5    Zn1   1.975646 S    
C24   C40   1.406259 A    
C10   O27   1.381557 S    
C6    O10   1.349099 S    
C51   C59   1.492413 S    
C19   C34   1.408406 A    
C20   C33   1.407410 A    
C29   C33   1.413160 A    
C44   O36   1.399028 S    
C30   C34   1.412327 A    
C35   O31   1.383481 S    
