data_mof_unit_4796.cif
_audit_creation_date              2012-12-10T19:49:23-0500
_audit_creation_method            fapswitch 2.2
_symmetry_space_group_name_H-M    P1
_symmetry_Int_Tables_number       1
_space_group_crystal_system       triclinic
_cell_length_a                    15.033644
_cell_length_b                    14.133192
_cell_length_c                    14.970351
_cell_angle_alpha                 90.438003
_cell_angle_beta                  90.53302
_cell_angle_gamma                 90.043586
_cell_volume                      3180.56935456

loop_
_atom_site_label
_atom_site_type_symbol
_atom_type_description
_atom_site_fract_x
_atom_site_fract_y
_atom_site_fract_z
_atom_type_partial_charge
C1    C     C_R   0.327623 0.499867 0.502885 1.052702
C2    C     C_R   0.672490 0.499839 0.500274 1.048890
C3    C     C_R   0.343662 0.545044 0.047377 0.446918
C4    C     C_R   0.665578 0.491558 0.954167 0.422455
C5    C     C_R   0.089292 0.571398 0.479940 0.442860
C6    C     C_R   0.907566 0.416189 0.487821 0.423596
C7    C     C_R   0.904536 0.570782 0.563528 0.454557
C8    C     C_R   0.097945 0.422572 0.562650 0.440357
C9    C     C_R   0.181533 0.575684 0.478261 0.334046
C10   C     C_R   0.815142 0.416516 0.481692 0.311586
C11   C     C_R   0.813166 0.575315 0.549667 0.341482
C12   C     C_R   0.189524 0.420450 0.550262 0.339429
C13   C     C_R   0.231616 0.498869 0.510713 -0.442748
C14   C     C_R   0.768469 0.498174 0.508977 -0.437464
C15   C     C_R   0.047900 0.495989 0.524548 -0.185079
C16   C     C_R   0.951784 0.492577 0.529351 -0.178053
C17   C     C_R   0.528839 0.104390 0.425183 -0.291361
C18   C     C_R   0.524489 0.895718 0.576924 -0.276705
C19   C     C_R   0.471990 0.105500 0.575054 -0.294249
C20   C     C_R   0.475950 0.894589 0.423190 -0.276043
C21   C     C_R   0.528459 0.203848 0.426664 0.003371
C22   C     C_R   0.524224 0.796259 0.575337 0.037474
C23   C     C_R   0.472024 0.204915 0.573492 -0.007208
C24   C     C_R   0.475900 0.795150 0.424683 0.037408
C25   C     C_R   0.500417 0.053316 0.500111 0.143342
C26   C     C_R   0.500317 0.946792 0.500071 0.143341
C27   C     C_R   0.501536 0.499710 0.327010 1.013523
C28   C     C_R   0.499405 0.500534 0.673207 1.009688
C29   C     C_R   0.578730 0.482173 0.814318 0.337085
C30   C     C_R   0.423064 0.504529 0.185390 0.348511
C31   C     C_R   0.499898 0.502938 0.768896 -0.306543
C32   C     C_R   0.503430 0.500042 0.231686 -0.313717
C33   C     C_R   0.423787 0.533548 0.813360 0.481753
C34   C     C_R   0.585090 0.502164 0.188336 0.473293
C35   C     C_R   0.422112 0.530492 0.906945 -0.138143
C36   C     C_R   0.586227 0.500749 0.094479 -0.114437
C37   C     C_R   0.503686 0.515902 0.953888 -0.151979
C38   C     C_R   0.504791 0.515314 0.047282 -0.156722
C39   C     C_R   0.583560 0.497874 0.907163 -0.108822
C40   C     C_R   0.423439 0.523591 0.093728 -0.131305
C41   C     C_R   0.341452 0.542485 0.953767 0.381431
C42   C     C_R   0.666499 0.485717 0.048078 0.373327
H1    H     H_    0.552557 0.067838 0.366243 0.140317
H2    H     H_    0.544852 0.932268 0.637555 0.130117
H3    H     H_    0.448423 0.069836 0.634040 0.139120
H4    H     H_    0.455692 0.930259 0.362596 0.130467
H5    H     H_    0.551389 0.242125 0.369004 0.152627
H6    H     H_    0.543693 0.758134 0.634645 0.105052
H7    H     H_    0.449080 0.243974 0.631204 0.149996
H8    H     H_    0.456348 0.756199 0.365267 0.114406
N1    N     N_R   0.500000 0.252470 0.500000 -0.101054
N2    N     N_R   0.500000 0.747530 0.500000 -0.088754
O1    O     O_R   0.369060 0.579480 0.500010 -0.571290
O2    O     O_R   0.630940 0.420520 0.499990 -0.597694
O3    O     O_R   0.630940 0.579480 0.499990 -0.590439
O4    O     O_R   0.369060 0.420520 0.500010 -0.605503
O5    O     O_R   0.499980 0.579490 0.367850 -0.661160
O6    O     O_R   0.500020 0.420510 0.632150 -0.642992
O7    O     O_R   0.500020 0.579490 0.632150 -0.655303
O8    O     O_R   0.499980 0.420510 0.367850 -0.635664
Zn1   Zn    Zn3+2 0.500000 0.606140 0.500000 0.974773
Zn2   Zn    Zn3+2 0.500000 0.393860 0.500000 0.966878
O9    O     O_3   0.652876 0.456190 0.765620 -0.642183
C43   C     C_3   0.663810 0.357015 0.768908 0.171380
H9    H     H_    0.613446 0.321855 0.725023 0.133835
H10   H     H_    0.657142 0.329250 0.838095 0.144793
C44   C     C_3   0.756898 0.332714 0.735557 -0.313092
H11   H     H_    0.765858 0.362146 0.667717 0.203325
H12   H     H_    0.807623 0.365834 0.780332 0.253557
C45   C     C_3   0.772136 0.226038 0.732884 -1.005004
H13   H     H_    0.767572 0.196351 0.801173 0.274218
H14   H     H_    0.839449 0.211060 0.706344 0.277717
H15   H     H_    0.721958 0.190969 0.688887 0.259189
O10   O     O_3   0.344512 0.491070 0.231169 -0.638363
C46   C     C_3   0.320306 0.394748 0.223324 0.155785
H16   H     H_    0.373535 0.348545 0.251516 0.129624
H17   H     H_    0.308223 0.374874 0.152027 0.156704
C47   C     C_3   0.234866 0.377964 0.275158 -0.344083
H18   H     H_    0.245323 0.399630 0.345815 0.204581
H19   H     H_    0.180354 0.421739 0.246587 0.228888
C48   C     C_3   0.207875 0.273921 0.271728 -0.996589
H20   H     H_    0.191019 0.252438 0.202082 0.274012
H21   H     H_    0.148922 0.262766 0.314293 0.265044
H22   H     H_    0.262742 0.228654 0.297241 0.262644
O11   O     O_3   0.351427 0.565370 0.764207 -0.571344
C49   C     C_3   0.356748 0.665123 0.758778 -0.315124
H23   H     H_    0.351628 0.699143 0.825704 0.118880
H24   H     H_    0.300638 0.690754 0.716862 0.196454
H25   H     H_    0.419229 0.689221 0.727353 0.173065
O12   O     O_3   0.662972 0.501918 0.238590 -0.558783
C50   C     C_3   0.689769 0.596593 0.253418 -0.305856
H26   H     H_    0.704748 0.632767 0.189608 0.135695
H27   H     H_    0.751216 0.596792 0.295002 0.184215
H28   H     H_    0.638934 0.637690 0.290520 0.174218
O13   O     O_3   0.260495 0.527684 0.909756 -0.565588
C51   C     C_3   0.207327 0.610527 0.906756 0.244483
H29   H     H_    0.196960 0.629728 0.835697 0.149664
H30   H     H_    0.237971 0.673585 0.939351 0.031447
C52   C     C_3   0.115083 0.592588 0.946238 -0.360720
H31   H     H_    0.120290 0.575975 0.018224 0.265508
H32   H     H_    0.074844 0.658171 0.939801 0.152081
C53   C     C_3   0.066340 0.512043 0.898193 -0.850397
H33   H     H_    0.996887 0.507529 0.922343 0.230955
H34   H     H_    0.100178 0.443583 0.910965 0.292214
H35   H     H_    0.064506 0.525252 0.825472 0.232246
O14   O     O_3   0.737114 0.442954 0.093474 -0.586392
C54   C     C_3   0.818570 0.491742 0.084092 0.182871
H36   H     H_    0.809709 0.569889 0.086618 0.090580
H37   H     H_    0.851155 0.469890 0.021141 0.191507
C55   C     C_3   0.881324 0.462909 0.159910 -0.330730
H38   H     H_    0.856357 0.491358 0.224229 0.231643
H39   H     H_    0.883343 0.384420 0.163905 0.237921
C56   C     C_3   0.975600 0.499179 0.145013 -1.044838
H40   H     H_    0.002657 0.468940 0.082332 0.288508
H41   H     H_    0.019368 0.476330 0.200738 0.262237
H42   H     H_    0.976211 0.577661 0.141607 0.265143
O15   O     O_3   0.265499 0.561959 0.092731 -0.572906
C57   C     C_3   0.267954 0.655029 0.128164 -0.345107
H43   H     H_    0.282956 0.708814 0.076710 0.122474
H44   H     H_    0.317747 0.662027 0.182957 0.187834
H45   H     H_    0.201655 0.671893 0.155950 0.173385
O16   O     O_3   0.744600 0.484840 0.908303 -0.596854
C58   C     C_3   0.771138 0.576914 0.883748 -0.362225
H46   H     H_    0.783489 0.622844 0.943116 0.124021
H47   H     H_    0.721032 0.611404 0.839807 0.182590
H48   H     H_    0.834301 0.571596 0.846500 0.181611
O17   O     O_3   0.040849 0.645717 0.444334 -0.507995
C59   C     C_3   0.007079 0.618870 0.359569 -0.301203
H49   H     H_    0.948279 0.571991 0.365843 0.152304
H50   H     H_    0.058294 0.584281 0.317253 0.120788
H51   H     H_    0.984724 0.683437 0.324252 0.194381
O18   O     O_3   0.954695 0.339701 0.454382 -0.552567
C60   C     C_3   0.968983 0.352701 0.362484 -0.282907
H52   H     H_    0.020358 0.407827 0.351750 0.133638
H53   H     H_    0.906602 0.370127 0.325910 0.190977
H54   H     H_    0.993842 0.285380 0.333759 0.188667
O19   O     O_3   0.947246 0.649804 0.599018 -0.504259
C61   C     C_3   0.984188 0.628379 0.683434 -0.304507
H55   H     H_    0.050809 0.595713 0.676163 0.162810
H56   H     H_    0.940284 0.582403 0.724012 0.105758
H57   H     H_    0.993533 0.695455 0.721303 0.190585
O20   O     O_3   0.056839 0.347964 0.605331 -0.550622
C62   C     C_3   0.050007 0.369577 0.696918 -0.278505
H58   H     H_    0.998453 0.424412 0.707991 0.135185
H59   H     H_    0.115016 0.391735 0.726706 0.195278
H60   H     H_    0.028266 0.305033 0.732324 0.191773
O21   O     O_3   0.222634 0.658297 0.451397 -0.538374
C63   C     C_3   0.232260 0.658063 0.357791 -0.220563
H61   H     H_    0.178464 0.700814 0.326975 0.171992
H62   H     H_    0.296354 0.692623 0.341914 0.169718
H63   H     H_    0.233083 0.586160 0.326830 0.163712
O22   O     O_3   0.772289 0.344694 0.434407 -0.557945
C64   C     C_3   0.766706 0.263006 0.487848 -0.182744
H64   H     H_    0.744011 0.203118 0.445068 0.171057
H65   H     H_    0.716477 0.272628 0.540939 0.163951
H66   H     H_    0.831579 0.242346 0.518137 0.190232
O23   O     O_3   0.769647 0.659718 0.567034 -0.533637
C65   C     C_3   0.742190 0.660929 0.656686 -0.224699
H67   H     H_    0.697702 0.600315 0.671293 0.177986
H68   H     H_    0.703941 0.726722 0.668840 0.161367
H69   H     H_    0.800048 0.662043 0.703144 0.154429
O24   O     O_3   0.238836 0.347847 0.587824 -0.560078
C66   C     C_3   0.232633 0.266987 0.532087 -0.189508
H70   H     H_    0.271984 0.209259 0.562882 0.168540
H71   H     H_    0.261131 0.280652 0.465216 0.157883
H72   H     H_    0.163097 0.241157 0.524740 0.198787

loop_
_geom_bond_atom_site_label_1
_geom_bond_atom_site_label_2
_ccdc_geom_bond_type
O6    Zn2   S    
C62   H60   S    
C22   H6    S    
C29   O9    S    
C24   N2    A    
O23   C65   S    
C36   C42   A    
O13   C51   S    
C18   C26   A    
C63   H63   S    
O21   C63   S    
C59   H49   S    
C27   O5    A    
C17   H1    S    
C48   H20   S    
C58   H46   S    
C41   O13   S    
O11   C49   S    
C7    C11   A    
C4    C42   A    
C66   H71   S    
C1    O4    A    
C63   H62   S    
O24   C66   S    
N2    Zn1   S    
C30   O10   S    
C11   C14   A    
C47   H19   S    
C58   H47   S    
O14   C54   S    
C15   C16   S    
C51   C52   S    
C53   H35   S    
O8    Zn2   S    
C9    C13   A    
C55   H38   S    
C1    O1    A    
C3    O15   S    
C65   H69   S    
C10   O22   S    
C57   H43   S    
O1    Zn1   S    
C66   H70   S    
O18   C60   S    
C51   H30   S    
C60   H54   S    
C54   H36   S    
C31   C33   A    
C45   H13   S    
C64   H65   S    
C34   C36   A    
C56   H42   S    
C38   C40   A    
C65   H68   S    
C54   H37   S    
C29   C39   A    
N1    Zn2   S    
C19   C25   A    
C48   H21   S    
C57   H44   S    
C24   H8    S    
O7    Zn1   S    
O10   C46   S    
C4    O16   S    
C44   H11   S    
C43   C44   S    
C20   C24   A    
C66   H72   S    
C63   H61   S    
C6    O18   S    
C2    O2    A    
C50   H26   S    
C7    O19   S    
C49   H23   S    
C58   H48   S    
O2    Zn2   S    
C25   C26   S    
C6    C16   A    
C9    O21   S    
C17   C21   A    
C44   H12   S    
C57   H45   S    
C43   H10   S    
C19   C23   A    
C46   H16   S    
C34   O12   S    
C5    C9    A    
C37   C38   A    
C18   H2    S    
C50   H27   S    
C46   H17   S    
C23   N1    A    
C52   H31   S    
C4    C39   A    
C8    C12   A    
C51   H29   S    
C5    O17   S    
C45   H15   S    
C30   C40   A    
C12   C13   A    
C64   H66   S    
C53   H34   S    
C42   O14   S    
C55   C56   S    
C35   C41   A    
C61   H56   S    
C7    C16   A    
C52   H32   S    
C3    C40   A    
C8    C15   A    
C10   C14   A    
C65   H67   S    
C54   C55   S    
O4    Zn2   S    
C1    C13   S    
O17   C59   S    
C61   H57   S    
C59   H51   S    
C21   N1    A    
C48   H22   S    
C11   O23   S    
C22   N2    A    
C56   H40   S    
C28   O7    A    
C62   H59   S    
C3    C41   A    
C33   O11   S    
C35   C37   A    
C27   C32   S    
C18   C22   A    
C28   C31   S    
C49   H25   S    
C59   H50   S    
C6    C10   A    
C8    O20   S    
C19   H3    S    
O5    Zn1   S    
C28   O6    A    
O19   C61   S    
C27   O8    A    
C44   C45   S    
C17   C25   A    
C43   H9    S    
C36   C38   A    
O16   C58   S    
C29   C31   A    
O15   C57   S    
C50   H28   S    
C30   C32   A    
C47   H18   S    
C47   C48   S    
O12   C50   S    
C60   H52   S    
C20   C26   A    
O3    Zn1   S    
C33   C35   A    
C2    O3    A    
C49   H24   S    
C53   H33   S    
C2    C14   S    
C46   C47   S    
C55   H39   S    
C5    C15   A    
C23   H7    S    
C61   H55   S    
C12   O24   S    
O9    C43   S    
C52   C53   S    
O22   C64   S    
C37   C39   A    
C60   H53   S    
O20   C62   S    
C45   H14   S    
C21   H5    S    
C64   H64   S    
C20   H4    S    
C62   H58   S    
C32   C34   A    
C56   H41   S    
