data_mof_unit_4814.cif
_audit_creation_date              2012-12-11T15:26:54-0500
_audit_creation_method            fapswitch 2.2
_symmetry_space_group_name_H-M    P1
_symmetry_Int_Tables_number       1
_space_group_crystal_system       triclinic
_cell_length_a                    13.953333
_cell_length_b                    13.94939
_cell_length_c                    27.41811
_cell_angle_alpha                 89.991309
_cell_angle_beta                  89.960086
_cell_angle_gamma                 119.938159
_cell_volume                      4624.57085649

loop_
_atom_site_label
_atom_site_type_symbol
_atom_type_description
_atom_site_fract_x
_atom_site_fract_y
_atom_site_fract_z
_atom_type_partial_charge
C1    C     C_R   0.234223 0.787268 0.568630 0.540802
C2    C     C_1   0.709649 0.862401 0.858385 -0.043226
C3    C     C_1   0.137925 0.847301 0.858419 -0.043196
C4    C     C_1   0.152757 0.290537 0.858401 -0.043282
C5    C     C_1   0.630367 0.815726 0.657947 -0.069631
C6    C     C_1   0.184121 0.814610 0.657948 -0.069604
C7    C     C_1   0.185317 0.369435 0.657934 -0.069554
C8    C     C_1   0.602013 0.797369 0.615942 -0.014535
C9    C     C_1   0.202475 0.804605 0.615931 -0.014412
C10   C     C_1   0.195330 0.397814 0.615922 -0.014140
C11   C     C_R   0.106896 0.220029 0.948896 0.555749
C12   C     C_R   0.212716 0.446922 0.568629 0.540673
C13   C     C_R   0.780061 0.886960 0.948876 0.555615
C14   C     C_R   0.113132 0.893156 0.948891 0.555838
C15   C     C_R   0.614380 0.806937 0.385549 0.024347
C16   C     C_R   0.212787 0.795055 0.379951 0.041886
C17   C     C_R   0.194015 0.387393 0.385191 0.025075
C18   C     C_R   0.611529 0.893820 0.360963 -0.137110
C19   C     C_R   0.109020 0.773420 0.363544 -0.131217
C20   C     C_R   0.285220 0.395443 0.359768 -0.125255
C21   C     C_R   0.638083 0.911699 0.311837 -0.129001
C22   C     C_R   0.090365 0.773604 0.313514 -0.115254
C23   C     C_R   0.553011 0.765729 0.568644 0.541364
C24   C     C_R   0.275985 0.368275 0.310743 -0.122099
C25   C     C_R   0.671029 0.845139 0.287012 0.036597
C26   C     C_R   0.174449 0.791811 0.280043 0.031103
C27   C     C_R   0.174895 0.330386 0.286715 0.035892
C28   C     C_R   0.235118 0.786460 0.430836 0.534551
C29   C     C_R   0.212669 0.445963 0.431489 0.541910
C30   C     C_R   0.554414 0.766785 0.431580 0.538410
C31   C     C_R   0.685810 0.766630 0.312919 -0.122167
C32   C     C_R   0.275730 0.807186 0.297057 -0.126780
C33   C     C_R   0.081014 0.311736 0.313275 -0.118421
C34   C     C_3   0.636133 0.725528 0.789938 -0.066348
C35   C     C_R   0.656907 0.747058 0.361896 -0.128031
C36   C     C_R   0.295158 0.810373 0.346529 -0.114972
C37   C     C_R   0.090644 0.340759 0.362255 -0.123163
C38   C     C_R   0.650517 0.758451 0.205564 -0.120206
C39   C     C_R   0.250678 0.890428 0.202208 -0.119466
C40   C     C_R   0.104881 0.347197 0.205678 -0.120240
C41   C     C_R   0.672983 0.767489 0.155890 -0.128711
C42   C     C_R   0.237329 0.913099 0.154406 -0.128459
C43   C     C_R   0.091547 0.324817 0.156027 -0.130707
C44   C     C_R   0.754253 0.966797 0.161486 -0.125506
C45   C     C_3   0.274629 0.910365 0.789845 -0.066404
C46   C     C_R   0.047002 0.762823 0.155997 -0.127796
C47   C     C_R   0.214629 0.249116 0.161017 -0.125970
C48   C     C_R   0.733969 0.957997 0.211261 -0.122692
C49   C     C_R   0.060710 0.739345 0.204021 -0.121271
C50   C     C_R   0.226329 0.269599 0.210768 -0.122127
C51   C     C_R   0.685097 0.854066 0.233908 0.033609
C52   C     C_R   0.161764 0.805328 0.227838 0.035477
C53   C     C_R   0.168777 0.315597 0.233686 0.034597
C54   C     C_R   0.728378 0.872034 0.134020 0.023989
C55   C     C_R   0.134337 0.852422 0.131679 0.022645
C56   C     C_3   0.089644 0.364314 0.789919 -0.066394
C57   C     C_R   0.143271 0.272116 0.133872 0.023582
C58   C     C_R   0.106552 0.221622 0.086076 0.547564
C59   C     C_R   0.778381 0.885089 0.086111 0.547832
C60   C     C_R   0.114959 0.893817 0.086146 0.551409
C61   C     C_3   0.584819 0.876488 0.735218 -0.220236
C62   C     C_3   0.123562 0.708385 0.735217 -0.220307
C63   C     C_3   0.291555 0.414840 0.735116 -0.220253
C64   C     C_3   0.776867 0.907722 0.721189 -0.222979
C65   C     C_3   0.092289 0.869308 0.721330 -0.223041
C66   C     C_3   0.130657 0.222949 0.721303 -0.223030
C67   C     C_3   0.617850 0.714807 0.733747 -0.220422
C68   C     C_3   0.797286 0.921378 0.776988 -0.225619
C69   C     C_3   0.078818 0.876134 0.777148 -0.225617
C70   C     C_3   0.123896 0.202647 0.777120 -0.225612
C71   C     C_1   0.735848 0.873013 0.900700 0.010894
C72   C     C_1   0.127276 0.862911 0.900733 0.010920
C73   C     C_1   0.137163 0.264327 0.900722 0.010821
C74   C     C_3   0.652648 0.829065 0.710625 0.055643
C75   C     C_3   0.170901 0.823573 0.710634 0.055694
C76   C     C_3   0.176382 0.347239 0.710617 0.055662
C77   C     C_3   0.605891 0.888978 0.791050 -0.229441
C78   C     C_3   0.285190 0.902821 0.733634 -0.220389
C79   C     C_3   0.111192 0.716985 0.791067 -0.229460
C80   C     C_3   0.282986 0.393891 0.790967 -0.229546
C81   C     C_3   0.687842 0.849348 0.805569 0.042699
C82   C     C_3   0.150879 0.838522 0.805597 0.042747
C83   C     C_3   0.161498 0.312258 0.805579 0.042786
C84   C     C_2   0.705060 0.675001 0.805733 0.218594
C85   C     C_2   0.325225 0.029734 0.805662 0.218536
C86   C     C_2   0.970312 0.295730 0.805811 0.218627
C87   C     C_3   0.097178 0.382460 0.733711 -0.220425
Cr1   Cr    Cr6+3 0.164410 0.584450 0.499910 1.024937
Cr2   Cr    Cr6+3 0.415550 0.579960 0.499910 1.018352
Cr3   Cr    Cr6+3 0.420040 0.835590 0.499910 1.018580
Cr4   Cr    Cr6+3 0.156760 0.076070 0.017830 1.042157
Cr5   Cr    Cr6+3 0.923930 0.080690 0.017830 1.043076
Cr6   Cr    Cr6+3 0.919310 0.843240 0.017830 1.044258
H1    H     H_    0.639845 0.977120 0.801628 0.148607
H2    H     H_    0.580174 0.942278 0.378443 0.128254
H3    H     H_    0.043850 0.758046 0.389229 0.106671
H4    H     H_    0.366119 0.430996 0.376527 0.133971
H5    H     H_    0.609038 0.676998 0.222028 0.104767
H6    H     H_    0.329097 0.943708 0.219847 0.103449
H7    H     H_    0.062844 0.386404 0.222385 0.107179
H8    H     H_    0.652100 0.693589 0.135076 0.121301
H9    H     H_    0.305781 0.982533 0.136242 0.125137
H10   H     H_    0.036566 0.343480 0.135471 0.121627
H11   H     H_    0.626246 0.972994 0.292779 0.099302
H12   H     H_    0.023091 0.662993 0.801730 0.148690
H13   H     H_    0.011700 0.762263 0.301118 0.106923
H14   H     H_    0.349600 0.383418 0.291093 0.101453
H15   H     H_    0.761618 0.032974 0.232277 0.102937
H16   H     H_    0.991725 0.672160 0.222944 0.101403
H17   H     H_    0.276021 0.244460 0.231580 0.105262
H18   H     H_    0.797937 0.048553 0.145321 0.131374
H19   H     H_    0.966810 0.714949 0.138873 0.123875
H20   H     H_    0.254749 0.207598 0.144626 0.128974
H21   H     H_    0.715352 0.717261 0.294842 0.100381
H22   H     H_    0.340568 0.817919 0.272079 0.110189
H23   H     H_    0.336985 0.359677 0.801572 0.148437
H24   H     H_    0.001211 0.278822 0.295714 0.102879
H25   H     H_    0.607817 0.958477 0.719138 0.128890
H26   H     H_    0.041566 0.649545 0.719213 0.128798
H27   H     H_    0.350347 0.391520 0.719050 0.128846
H28   H     H_    0.661731 0.680923 0.380339 0.126225
H29   H     H_    0.373876 0.821564 0.358797 0.125892
H30   H     H_    0.018861 0.332431 0.381325 0.129763
H31   H     H_    0.827033 0.874105 0.704798 0.108922
H32   H     H_    0.125836 0.953031 0.704930 0.109015
H33   H     H_    0.046937 0.172955 0.704973 0.108987
H34   H     H_    0.495022 0.820597 0.728313 0.107724
H35   H     H_    0.804567 0.990066 0.704331 0.115448
H36   H     H_    0.009918 0.814803 0.704569 0.115271
H37   H     H_    0.185116 0.194951 0.704467 0.115414
H38   H     H_    0.831693 0.009867 0.786881 0.111895
H39   H     H_    0.990385 0.822262 0.787148 0.111958
H40   H     H_    0.177792 0.167991 0.787043 0.111871
H41   H     H_    0.860785 0.899135 0.787196 0.098138
H42   H     H_    0.101122 0.961867 0.787371 0.098146
H43   H     H_    0.038205 0.139356 0.787406 0.098169
H44   H     H_    0.528919 0.656382 0.726076 0.103162
H45   H     H_    0.179439 0.674370 0.728217 0.107737
H46   H     H_    0.343595 0.872210 0.725844 0.103140
H47   H     H_    0.127798 0.471445 0.725940 0.103097
H48   H     H_    0.665231 0.679255 0.716187 0.115522
H49   H     H_    0.320659 0.985710 0.716085 0.115623
H50   H     H_    0.014307 0.335237 0.716216 0.115558
H51   H     H_    0.553634 0.677847 0.807868 0.139060
H52   H     H_    0.322313 0.875387 0.807670 0.138994
H53   H     H_    0.124589 0.446907 0.807756 0.138979
H54   H     H_    0.786565 0.704162 0.790286 0.097386
H55   H     H_    0.296044 0.082188 0.790316 0.097444
H56   H     H_    0.325593 0.504690 0.728111 0.107815
H57   H     H_    0.917906 0.214172 0.790486 0.097526
H58   H     H_    0.526137 0.839911 0.810808 0.114083
H59   H     H_    0.160265 0.686158 0.810742 0.114005
H60   H     H_    0.313793 0.473746 0.810638 0.113980
O1    O     O_R   0.137310 0.468260 0.552980 -0.509172
O2    O     O_R   0.139940 0.470480 0.446230 -0.515805
O3    O     O_R   0.529520 0.669460 0.446230 -0.521668
O4    O     O_R   0.330540 0.860060 0.446230 -0.520446
O5    O     O_R   0.176560 0.690850 0.450770 -0.496631
O6    O     O_R   0.309150 0.485710 0.450770 -0.507463
O7    O     O_R   0.514290 0.823440 0.450770 -0.510714
O8    O     O_3   0.333333 0.666667 0.499990 -0.268576
O9    O     O_3   0.000000 0.000000 0.017910 -0.229113
O10   O     O_R   0.149710 0.171070 0.967700 -0.496635
O11   O     O_R   0.828930 0.978640 0.967700 -0.496825
O12   O     O_R   0.531740 0.669050 0.552980 -0.508658
O13   O     O_R   0.021360 0.850290 0.967700 -0.497128
O14   O     O_R   0.178510 0.985930 0.071830 -0.522205
O15   O     O_R   0.014070 0.192580 0.071830 -0.518709
O16   O     O_R   0.807420 0.821490 0.071830 -0.515523
O17   O     O_R   0.147830 0.173300 0.066650 -0.501909
O18   O     O_R   0.826700 0.974530 0.066650 -0.502283
O19   O     O_R   0.025470 0.852170 0.066650 -0.499908
O20   O     O_2   0.669191 0.600176 0.835643 -0.488042
O21   O     O_2   0.400127 0.068494 0.835477 -0.488187
O22   O     O_2   0.931531 0.331934 0.835665 -0.488120
O23   O     O_R   0.330950 0.862690 0.552980 -0.507056
O24   O     O_R   0.180530 0.983530 0.965090 -0.493755
O25   O     O_R   0.016470 0.197000 0.965090 -0.494019
O26   O     O_R   0.803000 0.819470 0.965090 -0.494235
O27   O     O_R   0.174120 0.688790 0.549730 -0.499056
O28   O     O_R   0.311210 0.485330 0.549730 -0.498022
O29   O     O_R   0.514670 0.825880 0.549730 -0.497437

loop_
_geom_bond_atom_site_label_1
_geom_bond_atom_site_label_2
_ccdc_geom_bond_type
C25   C31   A    
C15   C18   A    
C44   C48   A    
C1    O23   A    
C26   C32   A    
C46   H19   S    
C7    C10   T    
C18   C21   A    
C17   C29   S    
C36   H29   S    
C45   C82   S    
C24   C27   A    
C87   H47   S    
C38   H5    S    
C78   H46   S    
C77   H58   S    
C6    C9    T    
Cr6   O26   S    
C80   H60   S    
Cr6   O19   S    
Cr3   O29   S    
C27   C33   A    
C30   O7    A    
C46   C49   A    
C34   H51   S    
C28   O5    A    
C13   O11   A    
C45   H52   S    
C68   C81   S    
C64   C68   S    
Cr4   O14   S    
C58   O17   A    
Cr1   O1    S    
C86   H57   S    
C1    O27   A    
C63   C76   S    
Cr5   O18   S    
Cr1   O8    S    
Cr3   O23   S    
C77   H1    S    
C50   H17   S    
C8    C23   S    
C79   H12   S    
C86   O22   D    
Cr2   O8    S    
C5    C74   S    
C63   H56   S    
C69   C82   S    
C13   O26   A    
C37   H30   S    
C21   H11   S    
C39   H6    S    
C40   C43   A    
C20   H4    S    
C80   H23   S    
C61   C77   S    
C64   H35   S    
C46   C55   A    
C70   H40   S    
C85   H55   S    
Cr4   O9    S    
Cr1   O27   S    
C45   C78   S    
C34   C81   S    
Cr1   O5    S    
C14   O13   A    
C58   O15   A    
C31   H21   S    
C15   C30   S    
C29   O2    A    
Cr5   O11   S    
C30   O3    A    
C39   C52   A    
C69   H42   S    
C23   O12   A    
C55   C60   S    
C70   H43   S    
C18   H2    S    
Cr4   O10   S    
C34   C84   S    
C80   C83   S    
C59   O18   A    
C42   H9    S    
C15   C35   A    
Cr2   O6    S    
C39   C42   A    
C54   C59   S    
C48   C51   A    
C16   C19   A    
C33   H24   S    
C50   C53   A    
Cr3   O8    S    
C60   O19   A    
Cr1   O2    S    
C20   C24   A    
C62   C79   S    
C35   H28   S    
C19   C22   A    
C1    C9    S    
C38   C41   A    
C29   O6    A    
C11   C73   S    
C11   O25   A    
Cr6   O16   S    
Cr2   O3    S    
C38   C51   A    
C13   C71   S    
C22   H13   S    
C33   C37   A    
C66   H33   S    
C65   H32   S    
C34   C67   S    
C68   H38   S    
C45   C85   S    
C25   C51   S    
C56   H53   S    
C26   C52   S    
C42   C55   A    
C47   C57   A    
Cr5   O15   S    
C56   C86   S    
C12   O28   A    
C77   C81   S    
C49   C52   A    
C66   C76   S    
C3    C82   S    
C11   O10   A    
C85   O21   D    
C4    C73   T    
C61   H34   S    
C24   H14   S    
C17   C37   A    
C62   H45   S    
C70   C83   S    
C76   C87   S    
Cr2   O12   S    
C62   H26   S    
C48   H15   S    
C10   C12   S    
C23   O29   A    
Cr5   O25   S    
Cr6   O13   S    
C31   C35   A    
C62   C75   S    
C5    C8    T    
C2    C71   T    
C67   H48   S    
C32   C36   A    
C56   C83   S    
C49   H16   S    
C84   H54   S    
Cr5   O9    S    
C47   H20   S    
C21   C25   A    
Cr4   O17   S    
C61   H25   S    
C14   C72   S    
C17   C20   A    
C12   O1    A    
C56   C87   S    
C60   O14   A    
C40   H7    S    
C79   C82   S    
C65   H36   S    
C27   C53   S    
C7    C76   S    
C61   C74   S    
C63   C80   S    
C47   C50   A    
C65   C75   S    
Cr3   O4    S    
C78   H49   S    
C3    C72   T    
C64   H31   S    
C16   C36   A    
C63   H27   S    
C57   C58   S    
C66   C70   S    
C4    C83   S    
Cr6   O9    S    
C69   H39   S    
C65   C69   S    
Cr4   O24   S    
C68   H41   S    
C28   O4    A    
C41   H8    S    
C67   C74   S    
C32   H22   S    
Cr3   O7    S    
C67   H44   S    
C75   C78   S    
C43   H10   S    
C41   C54   A    
C14   O24   A    
C43   C57   A    
C44   H18   S    
C44   C54   A    
C40   C53   A    
C22   C26   A    
C64   C74   S    
C16   C28   S    
C2    C81   S    
C87   H50   S    
C59   O16   A    
C19   H3    S    
C84   O20   D    
Cr2   O28   S    
C79   H59   S    
C66   H37   S    
C6    C75   S    
