data_mof_unit_2698.cif
_audit_creation_date              2012-12-10T20:48:47-0500
_audit_creation_method            fapswitch 2.2
_symmetry_space_group_name_H-M    P1
_symmetry_Int_Tables_number       1
_space_group_crystal_system       triclinic
_cell_length_a                    15.783509
_cell_length_b                    8.929291
_cell_length_c                    8.116957
_cell_angle_alpha                 90.009366
_cell_angle_beta                  89.733402
_cell_angle_gamma                 89.999683
_cell_volume                      1143.95535838

loop_
_atom_site_label
_atom_site_type_symbol
_atom_type_description
_atom_site_fract_x
_atom_site_fract_y
_atom_site_fract_z
_atom_type_partial_charge
C1    C     C_R   0.499995 0.218024 0.499992 0.935888
C2    C     C_3   0.051785 0.422602 0.324902 0.174682
C3    C     C_3   0.948024 0.368272 0.641844 0.205280
C4    C     C_3   0.950907 0.443401 0.317028 0.207330
C5    C     C_1   0.750656 0.494801 0.498702 -0.184028
C6    C     C_1   0.249389 0.492883 0.501557 -0.199854
C7    C     C_3   0.082836 0.476545 0.502782 0.222303
C8    C     C_3   0.917165 0.481505 0.499704 0.184632
C9    C     C_3   0.951261 0.639906 0.544915 -0.512260
C10   C     C_3   0.048612 0.638024 0.540888 -0.481193
C11   C     C_1   0.825671 0.488883 0.498600 -0.038664
C12   C     C_1   0.174417 0.485251 0.502618 -0.074368
C13   C     C_R   0.337904 0.499823 0.500405 0.903757
C14   C     C_R   0.662097 0.499997 0.499612 0.901790
C15   C     C_1   0.499993 0.934782 0.500012 -0.192836
C16   C     C_1   0.499993 0.065196 0.499988 -0.191868
C17   C     C_R   0.499997 0.781952 0.500008 0.931018
C18   C     C_3   0.050269 0.370462 0.648093 0.165115
H1    H     H_    0.072488 0.678329 0.661766 0.213654
H2    H     H_    0.152789 0.223190 0.639450 0.197392
H3    H     H_    0.040777 0.187367 0.354243 0.183108
H4    H     H_    0.075158 0.240649 0.170202 0.171423
H5    H     H_    0.155001 0.473125 0.171636 0.202379
H6    H     H_    0.099788 0.624746 0.222044 0.172268
H7    H     H_    0.061232 0.359922 0.902550 0.201043
H8    H     H_    0.145487 0.435788 0.811576 0.187135
H9    H     H_    0.864821 0.589951 0.204659 0.196980
H10   H     H_    0.962394 0.666497 0.223094 0.177588
H11   H     H_    0.846709 0.418566 0.802727 0.202506
H12   H     H_    0.071664 0.723004 0.451950 0.173812
H13   H     H_    0.935165 0.517673 0.847429 0.215953
H14   H     H_    0.928265 0.680081 0.666001 0.187910
H15   H     H_    0.926358 0.728738 0.462923 0.179725
H16   H     H_    0.952054 0.145956 0.546056 0.168197
H17   H     H_    0.903721 0.161076 0.724671 0.194138
H18   H     H_    0.907883 0.215669 0.315829 0.174596
H19   H     H_    0.931266 0.288458 0.129526 0.200836
H20   H     H_    0.066971 0.153221 0.732621 0.169702
N1    N     N_1   0.500000 0.500030 0.073640 -0.033263
N2    N     N_3   0.912894 0.415244 0.804186 -0.471820
N3    N     N_1   0.500000 0.500030 0.926360 -0.033413
N4    N     N_3   0.912730 0.216872 0.612527 -0.471512
N5    N     N_3   0.906756 0.312577 0.246477 -0.453697
N6    N     N_3   0.086713 0.218739 0.632700 -0.495296
N7    N     N_3   0.078534 0.265895 0.295813 -0.460104
N8    N     N_3   0.093315 0.511921 0.192804 -0.451258
N9    N     N_3   0.079331 0.432310 0.807476 -0.463828
N10   N     N_3   0.929771 0.566976 0.202139 -0.443518
O1    O     O_R   0.500000 0.285340 0.636850 -0.615613
O2    O     O_R   0.500000 0.285340 0.363150 -0.614248
O3    O     O_R   0.377140 0.500000 0.636930 -0.619216
O4    O     O_R   0.377140 0.500000 0.363070 -0.616437
O5    O     O_R   0.622860 0.500000 0.636930 -0.617292
O6    O     O_R   0.622860 0.500000 0.363070 -0.613170
O7    O     O_R   0.500000 0.714650 0.636900 -0.615749
O8    O     O_R   0.500000 0.714650 0.363100 -0.616236
Zn1   Zn    Zn3+2 0.500000 0.499990 0.682780 0.987905
Zn2   Zn    Zn3+2 0.500000 0.499990 0.317220 0.990697

loop_
_geom_bond_atom_site_label_1
_geom_bond_atom_site_label_2
_ccdc_geom_bond_type
H9    N10   S    
H19   N5    S    
C7    C10   S    
C2    C4    S    
C3    N4    S    
H20   N6    S    
O3    Zn1   S    
C4    N5    S    
C18   N6    S    
C13   O4    A    
C9    C10   S    
H7    N9    S    
C2    C7    S    
H16   N4    S    
C10   H1    S    
C4    C8    S    
C7    C18   S    
H6    N8    S    
C18   N9    S    
C14   O5    A    
N3    Zn1   S    
N1    N3    T    
C1    C16   S    
C13   O3    A    
C2    N8    S    
C6    C13   S    
C9    H15   S    
C17   O8    A    
C5    C14   S    
O4    Zn2   S    
H8    N9    S    
C8    C11   S    
H11   N2    S    
H2    N6    S    
O8    Zn2   S    
C3    N2    S    
C5    C11   T    
H3    N7    S    
O7    Zn1   S    
C2    N7    S    
O6    Zn2   S    
C7    C12   S    
C10   H12   S    
C15   C16   T    
O2    Zn2   S    
C6    C12   T    
H4    N7    S    
O1    Zn1   S    
H13   N2    S    
C3    C18   S    
C4    N10   S    
C3    C8    S    
C1    O2    A    
H5    N8    S    
H17   N4    S    
C17   O7    A    
H10   N10   S    
H18   N5    S    
O5    Zn1   S    
C9    H14   S    
C14   O6    A    
C15   C17   S    
N1    Zn2   S    
C1    O1    A    
C8    C9    S    
