data_mof_unit_1005.cif
_audit_creation_date              2012-12-11T15:55:04-0500
_audit_creation_method            fapswitch 2.2
_symmetry_space_group_name_H-M    P1
_symmetry_Int_Tables_number       1
_space_group_crystal_system       triclinic
_cell_length_a                    17.466029
_cell_length_b                    24.229039
_cell_length_c                    14.997444
_cell_angle_alpha                 89.969118
_cell_angle_beta                  125.497075
_cell_angle_gamma                 89.987561
_cell_volume                      5167.12902975

loop_
_atom_site_label
_atom_site_type_symbol
_atom_type_description
_atom_site_fract_x
_atom_site_fract_y
_atom_site_fract_z
_atom_type_partial_charge
C1    C     C_R   0.901308 0.876606 0.092059 -0.136625
C2    C     C_R   0.901209 0.123373 0.091943 -0.134877
C3    C     C_R   0.401303 0.376609 0.092055 -0.136636
C4    C     C_R   0.401214 0.623371 0.091950 -0.134879
C5    C     C_R   0.054169 0.846435 0.909099 -0.054101
C6    C     C_R   0.053908 0.153792 0.909496 -0.034773
C7    C     C_R   0.554164 0.346435 0.909096 -0.053958
C8    C     C_R   0.553898 0.653798 0.909503 -0.034665
C9    C     C_R   0.145007 0.153525 0.090905 -0.034762
C10   C     C_R   0.144077 0.846164 0.090476 -0.012272
C11   C     C_R   0.645001 0.653526 0.090909 -0.034689
C12   C     C_R   0.644073 0.346162 0.090473 -0.012284
C13   C     C_R   0.326267 0.000025 0.278793 -0.361701
C14   C     C_R   0.826267 0.500021 0.278794 -0.361756
C15   C     C_R   0.047157 0.999968 0.720455 -0.384520
C16   C     C_R   0.547166 0.499992 0.720460 -0.384518
C17   C     C_R   0.112269 0.814022 0.999729 -0.138096
C18   C     C_R   0.112746 0.185912 0.000292 -0.136517
C19   C     C_R   0.612262 0.314021 0.999723 -0.138138
C20   C     C_R   0.612734 0.685916 0.000300 -0.136623
C21   C     C_3   0.132095 0.051049 0.547478 -0.375856
C22   C     C_3   0.975349 0.001875 0.429866 -0.475863
C23   C     C_3   0.631738 0.551200 0.547191 -0.375241
C24   C     C_3   0.475334 0.501649 0.429825 -0.476008
C25   C     C_3   0.116118 0.053297 0.637929 -0.407394
C26   C     C_3   0.966525 0.997023 0.524505 -0.370368
C27   C     C_3   0.615985 0.553371 0.637822 -0.407801
C28   C     C_3   0.466538 0.496949 0.524505 -0.370134
C29   C     C_3   0.127059 0.947750 0.543852 -0.336183
C30   C     C_3   0.627446 0.447887 0.544140 -0.336337
C31   C     C_3   0.080183 0.000290 0.472576 0.397805
C32   C     C_3   0.580195 0.500301 0.472577 0.397697
C33   C     C_3   0.064710 0.000136 0.635189 0.466522
C34   C     C_3   0.564721 0.500168 0.635189 0.466438
C35   C     C_R   0.809488 0.123531 0.908103 -0.104798
C36   C     C_R   0.809594 0.876384 0.908215 -0.106564
C37   C     C_R   0.309488 0.623530 0.908108 -0.104851
C38   C     C_R   0.309592 0.376387 0.908211 -0.106545
C39   C     C_3   0.126323 0.950530 0.645843 -0.441230
C40   C     C_3   0.626483 0.450618 0.645982 -0.440820
C41   C     C_3   0.649711 0.177763 0.897501 -0.353882
C42   C     C_3   0.649905 0.822272 0.897933 -0.352210
C43   C     C_3   0.149711 0.677755 0.897527 -0.353864
C44   C     C_3   0.149910 0.322260 0.897906 -0.352228
C45   C     C_3   0.094277 0.727250 0.897368 -0.410846
C46   C     C_3   0.094686 0.272624 0.897584 -0.412172
C47   C     C_3   0.594275 0.227259 0.897341 -0.410864
C48   C     C_3   0.594670 0.772643 0.897619 -0.412172
C49   C     C_3   0.298259 0.735457 0.999525 -0.405431
C50   C     C_3   0.298505 0.264471 0.999725 -0.404791
C51   C     C_3   0.798266 0.235459 0.999545 -0.405454
C52   C     C_3   0.798485 0.764467 0.999700 -0.404802
C53   C     C_3   0.752576 0.177997 0.102995 -0.401468
C54   C     C_3   0.753023 0.821825 0.103423 -0.401809
C55   C     C_3   0.252604 0.678006 0.103021 -0.401481
C56   C     C_3   0.252995 0.321834 0.103394 -0.401804
C57   C     C_3   0.753520 0.180301 0.000037 0.365418
C58   C     C_3   0.753776 0.819625 0.000336 0.364042
C59   C     C_3   0.253526 0.680300 0.000047 0.365408
C60   C     C_3   0.253774 0.319626 0.000326 0.364053
C61   C     C_3   0.159755 0.763819 0.999855 0.395425
C62   C     C_3   0.160148 0.236107 0.000305 0.394569
C63   C     C_3   0.659747 0.263819 0.999846 0.395439
C64   C     C_3   0.660141 0.736111 0.000314 0.394579
C65   C     C_3   0.243339 0.784211 0.999167 -0.372220
C66   C     C_3   0.243905 0.215714 0.999944 -0.372937
C67   C     C_3   0.743347 0.284212 0.999188 -0.372192
C68   C     C_3   0.743870 0.715713 0.999898 -0.372909
C69   C     C_3   0.197563 0.727617 0.103190 -0.393541
C70   C     C_3   0.197657 0.272362 0.103409 -0.391028
C71   C     C_3   0.697534 0.227607 0.103165 -0.393548
C72   C     C_3   0.697696 0.772350 0.103447 -0.391019
C73   C     C_3   0.477638 0.946080 0.368230 -0.331328
C74   C     C_3   0.480660 0.049116 0.358097 -0.348755
C75   C     C_3   0.977634 0.446071 0.368242 -0.331315
C76   C     C_3   0.980660 0.549106 0.358084 -0.348714
C77   C     C_R   0.746174 0.954028 0.695560 -0.038006
C78   C     C_R   0.746212 0.045808 0.695009 -0.039741
C79   C     C_R   0.246180 0.454029 0.695557 -0.038051
C80   C     C_R   0.246214 0.545808 0.695008 -0.039666
C81   C     C_3   0.583238 0.948866 0.460047 -0.520932
C82   C     C_3   0.581925 0.052016 0.462249 -0.535302
C83   C     C_3   0.083222 0.448837 0.460102 -0.521068
C84   C     C_3   0.081951 0.551987 0.462191 -0.535183
C85   C     C_3   0.436261 0.003954 0.475328 -0.568113
C86   C     C_3   0.936263 0.503959 0.475326 -0.568121
C87   C     C_3   0.428006 0.999839 0.366943 0.309627
C88   C     C_3   0.928007 0.499834 0.366944 0.309587
C89   C     C_3   0.603481 0.999856 0.533609 0.117991
C90   C     C_3   0.103485 0.499854 0.533607 0.118023
C91   C     C_3   0.538532 0.998859 0.573324 1.313512
C92   C     C_3   0.038538 0.498910 0.573326 1.313538
C93   C     C_R   0.056489 0.045719 0.306939 0.596547
C94   C     C_R   0.056739 0.954605 0.307456 0.591988
C95   C     C_R   0.556524 0.545721 0.306949 0.596245
C96   C     C_R   0.556742 0.454608 0.307458 0.592093
C97   C     C_R   0.812051 0.863572 0.000216 -0.023902
C98   C     C_R   0.811897 0.136356 0.000048 -0.024742
C99   C     C_R   0.312046 0.363575 0.000210 -0.023898
C100  C     C_R   0.311900 0.636354 0.000056 -0.024702
C101  C     C_R   0.700222 0.999858 0.632204 0.031100
C102  C     C_R   0.200227 0.499858 0.632201 0.031057
C103  C     C_R   0.079615 0.000253 0.373846 -0.312250
C104  C     C_R   0.579645 0.500257 0.373857 -0.312074
C105  C     C_R   0.268507 0.954038 0.250091 0.645855
C106  C     C_R   0.268768 0.046065 0.251851 0.641914
C107  C     C_R   0.768504 0.454035 0.250094 0.645843
C108  C     C_R   0.768769 0.546062 0.251847 0.642023
C109  C     C_R   0.017637 0.045966 0.748762 0.621719
C110  C     C_R   0.016325 0.953952 0.747182 0.619647
C111  C     C_R   0.517621 0.545980 0.748759 0.621761
C112  C     C_R   0.516357 0.453966 0.747203 0.619580
H1    H     H_    0.929804 0.869500 0.176936 0.155545
H2    H     H_    0.929652 0.130531 0.176760 0.155236
H3    H     H_    0.429795 0.369501 0.176930 0.155593
H4    H     H_    0.429664 0.630522 0.176773 0.155022
H5    H     H_    0.105570 0.090425 0.501936 0.234861
H6    H     H_    0.942401 0.041269 0.385270 0.174036
H7    H     H_    0.604722 0.590496 0.501412 0.234539
H8    H     H_    0.442057 0.540901 0.384827 0.173547
H9    H     H_    0.073227 0.090583 0.621534 0.243335
H10   H     H_    0.920003 0.030685 0.517882 0.170559
H11   H     H_    0.573099 0.590641 0.621559 0.243363
H12   H     H_    0.419998 0.530639 0.517752 0.170439
H13   H     H_    0.184395 0.058260 0.719425 0.167873
H14   H     H_    0.931991 0.957110 0.517987 0.193310
H15   H     H_    0.684336 0.558342 0.719244 0.167942
H16   H     H_    0.432021 0.457057 0.518156 0.193318
H17   H     H_    0.200447 0.943389 0.568724 0.186391
H18   H     H_    0.087139 0.910300 0.497270 0.226270
H19   H     H_    0.700934 0.443758 0.569221 0.186012
H20   H     H_    0.587928 0.410311 0.497722 0.226503
H21   H     H_    0.199376 0.955510 0.720605 0.163932
H22   H     H_    0.100903 0.910290 0.653332 0.241242
H23   H     H_    0.699473 0.455612 0.720856 0.163844
H24   H     H_    0.601036 0.410356 0.653366 0.241141
H25   H     H_    0.645252 0.179348 0.820635 0.166378
H26   H     H_    0.645253 0.820959 0.820941 0.168724
H27   H     H_    0.145237 0.679333 0.820651 0.166424
H28   H     H_    0.145274 0.320948 0.820925 0.168683
H29   H     H_    0.616604 0.138455 0.897140 0.177262
H30   H     H_    0.616752 0.861497 0.897913 0.176616
H31   H     H_    0.116615 0.638446 0.897189 0.177254
H32   H     H_    0.116737 0.361481 0.897867 0.176634
H33   H     H_    0.533635 0.212411 0.896614 0.161570
H34   H     H_    0.533732 0.787337 0.896453 0.161168
H35   H     H_    0.033648 0.712403 0.896667 0.161576
H36   H     H_    0.033720 0.287309 0.896370 0.161166
H37   H     H_    0.065700 0.750993 0.820726 0.171126
H38   H     H_    0.066648 0.248867 0.821137 0.172283
H39   H     H_    0.565715 0.251007 0.820710 0.171131
H40   H     H_    0.566586 0.748897 0.821150 0.172270
H41   H     H_    0.299211 0.738022 0.926008 0.160074
H42   H     H_    0.299067 0.261901 0.925946 0.160699
H43   H     H_    0.799233 0.238030 0.926038 0.160080
H44   H     H_    0.799043 0.761906 0.925917 0.160698
H45   H     H_    0.753601 0.131125 0.823309 0.114060
H46   H     H_    0.753788 0.868655 0.823503 0.114677
H47   H     H_    0.253599 0.631124 0.823315 0.114109
H48   H     H_    0.253788 0.368661 0.823498 0.114658
H49   H     H_    0.217624 0.810010 0.925273 0.172322
H50   H     H_    0.218417 0.189727 0.926404 0.174998
H51   H     H_    0.717646 0.310017 0.925306 0.172350
H52   H     H_    0.718347 0.689744 0.926326 0.175009
H53   H     H_    0.824921 0.179622 0.179585 0.162702
H54   H     H_    0.825433 0.819933 0.179889 0.163261
H55   H     H_    0.324955 0.679637 0.179600 0.162674
H56   H     H_    0.325398 0.319944 0.179870 0.163270
H57   H     H_    0.719954 0.138761 0.103927 0.158636
H58   H     H_    0.720732 0.861141 0.104685 0.158611
H59   H     H_    0.219992 0.638770 0.103976 0.158625
H60   H     H_    0.220698 0.361151 0.104638 0.158610
H61   H     H_    0.638178 0.212906 0.105130 0.157842
H62   H     H_    0.638183 0.787204 0.104981 0.158619
H63   H     H_    0.138219 0.712916 0.105178 0.157840
H64   H     H_    0.138121 0.287219 0.104894 0.158624
H65   H     H_    0.245909 0.751609 0.179245 0.171195
H66   H     H_    0.245709 0.248388 0.179664 0.170145
H67   H     H_    0.745873 0.251593 0.179232 0.171189
H68   H     H_    0.745767 0.748366 0.179683 0.170172
H69   H     H_    0.372537 0.738248 0.072925 0.169620
H70   H     H_    0.372912 0.261689 0.072862 0.168819
H71   H     H_    0.872541 0.238244 0.072956 0.169626
H72   H     H_    0.872894 0.761675 0.072833 0.168823
H73   H     H_    0.291277 0.810444 0.072257 0.174274
H74   H     H_    0.291999 0.189668 0.073392 0.170819
H75   H     H_    0.791280 0.310439 0.072291 0.174276
H76   H     H_    0.791964 0.689649 0.073315 0.170815
H77   H     H_    0.450907 0.909467 0.386246 0.252589
H78   H     H_    0.447582 0.089533 0.348760 0.241937
H79   H     H_    0.950873 0.409457 0.386213 0.252551
H80   H     H_    0.947608 0.589526 0.348809 0.241947
H81   H     H_    0.466072 0.939666 0.287778 0.168363
H82   H     H_    0.481577 0.043545 0.285070 0.163488
H83   H     H_    0.966105 0.439666 0.287807 0.168377
H84   H     H_    0.981522 0.543548 0.285016 0.163469
H85   H     H_    0.623935 0.951909 0.424362 0.194997
H86   H     H_    0.632216 0.055382 0.439654 0.192681
H87   H     H_    0.123962 0.451825 0.424464 0.194995
H88   H     H_    0.132209 0.555294 0.439537 0.192668
H89   H     H_    0.733918 0.911278 0.670842 0.094980
H90   H     H_    0.733429 0.088444 0.669075 0.093173
H91   H     H_    0.233936 0.411279 0.670836 0.094917
H92   H     H_    0.233428 0.588445 0.669077 0.093213
H93   H     H_    0.603739 0.909552 0.506539 0.198932
H94   H     H_    0.588920 0.089985 0.508057 0.204190
H95   H     H_    0.103662 0.409538 0.506637 0.198948
H96   H     H_    0.089019 0.589981 0.507976 0.204173
H97   H     H_    0.393948 0.971065 0.479672 0.201275
H98   H     H_    0.407353 0.044205 0.478910 0.218811
H99   H     H_    0.893991 0.471052 0.479700 0.201260
H100  H     H_    0.907303 0.544197 0.478875 0.218854
H101  H     H_    0.009095 0.832526 0.825384 0.170159
H102  H     H_    0.007990 0.168148 0.826107 0.165940
H103  H     H_    0.509089 0.332530 0.825378 0.170102
H104  H     H_    0.507969 0.668159 0.826119 0.165957
H105  H     H_    0.183354 0.167423 0.174621 0.179711
H106  H     H_    0.181107 0.831806 0.173848 0.175227
H107  H     H_    0.683345 0.667422 0.174625 0.179735
H108  H     H_    0.681102 0.331803 0.173843 0.175230
H109  H     H_    0.208625 0.048529 0.584268 0.183534
H110  H     H_    0.935306 0.967550 0.371184 0.162477
H111  H     H_    0.708259 0.548958 0.583812 0.183794
H112  H     H_    0.435572 0.467161 0.371486 0.162854
N1    N     N_R   0.950530 0.896220 0.057200 -0.032812
N2    N     N_R   0.950530 0.103780 0.057200 -0.031604
N3    N     N_R   0.450530 0.396220 0.057200 -0.032815
N4    N     N_R   0.450530 0.603780 0.057200 -0.031597
N5    N     N_R   0.893330 0.103780 0.942800 -0.050271
N6    N     N_R   0.893330 0.896220 0.942800 -0.049248
N7    N     N_R   0.393330 0.603780 0.942800 -0.050277
N8    N     N_R   0.393330 0.396220 0.942800 -0.049260
N9    N     N_R   0.818150 0.971400 0.792440 -0.052028
N10   N     N_R   0.818150 0.028600 0.792440 -0.050996
N11   N     N_R   0.318150 0.471400 0.792440 -0.052022
N12   N     N_R   0.318150 0.528600 0.792440 -0.051007
N13   N     N_R   0.025710 0.028600 0.207560 -0.136599
N14   N     N_R   0.025710 0.971400 0.207560 -0.137285
N15   N     N_R   0.525710 0.528600 0.207560 -0.136573
N16   N     N_R   0.525710 0.471400 0.207560 -0.137288
N17   N     N_R   0.181850 0.971400 0.207560 -0.137499
N18   N     N_R   0.181850 0.028600 0.207560 -0.136006
N19   N     N_R   0.681850 0.471400 0.207560 -0.137510
N20   N     N_R   0.681850 0.528600 0.207560 -0.135947
N21   N     N_R   0.974290 0.028600 0.792440 -0.139157
N22   N     N_R   0.974290 0.971400 0.792440 -0.138147
N23   N     N_R   0.474290 0.528600 0.792440 -0.139147
N24   N     N_R   0.474290 0.471400 0.792440 -0.138164
N25   N     N_R   0.049470 0.896220 0.942800 -0.057099
N26   N     N_R   0.049470 0.103780 0.942800 -0.055778
N27   N     N_R   0.549470 0.396220 0.942800 -0.057091
N28   N     N_R   0.549470 0.603780 0.942800 -0.055770
N29   N     N_R   0.106670 0.103780 0.057200 -0.055118
N30   N     N_R   0.106670 0.896220 0.057200 -0.053595
N31   N     N_R   0.606670 0.603780 0.057200 -0.055122
N32   N     N_R   0.606670 0.396220 0.057200 -0.053593
Ni1   Ni    Ni4+2 0.065600 0.934400 0.131190 0.267953
Ni2   Ni    Ni4+2 0.065600 0.065600 0.131190 0.270487
Ni3   Ni    Ni4+2 0.565600 0.434400 0.131190 0.267956
Ni4   Ni    Ni4+2 0.565600 0.565600 0.131190 0.270564
Ni5   Ni    Ni4+2 0.934400 0.065600 0.868810 0.207492
Ni6   Ni    Ni4+2 0.934400 0.934400 0.868810 0.209039
Ni7   Ni    Ni4+2 0.434400 0.565600 0.868810 0.207511
Ni8   Ni    Ni4+2 0.434400 0.434400 0.868810 0.208986
F1    F     F_    0.550436 0.949797 0.627958 -0.726263
F2    F     F_    0.559655 0.042146 0.644887 -0.729974
F3    F     F_    0.050477 0.449889 0.628090 -0.726264
F4    F     F_    0.059638 0.542250 0.644779 -0.729979
F5    F     F_    0.086226 0.098164 0.340357 -0.716456
F6    F     F_    0.086158 0.902199 0.342233 -0.716934
F7    F     F_    0.586429 0.598143 0.340397 -0.716289
F8    F     F_    0.586113 0.402194 0.342217 -0.716969
F9    F     F_    0.294922 0.900757 0.276026 -0.737924
F10   F     F_    0.296181 0.098586 0.285915 -0.733962
F11   F     F_    0.794910 0.400753 0.276026 -0.737950
F12   F     F_    0.796186 0.598585 0.285892 -0.733924
F13   F     F_    0.016942 0.099155 0.721487 -0.752585
F14   F     F_    0.010003 0.901398 0.713369 -0.751011
F15   F     F_    0.516910 0.599177 0.721517 -0.752655
F16   F     F_    0.510120 0.401410 0.713443 -0.750997

loop_
_geom_bond_atom_site_label_1
_geom_bond_atom_site_label_2
_ccdc_geom_bond_type
N6    Ni6   S    
C65   H73   S    
N11   Ni8   S    
C12   N32   A    
C73   H81   S    
C50   C60   S    
C42   H26   S    
C96   N16   A    
C15   C109  A    
C77   C101  A    
N15   N16   A    
N20   Ni4   S    
C55   H55   S    
C60   C99   S    
N21   Ni5   S    
C85   H98   S    
C42   C58   S    
C51   C67   S    
C74   H82   S    
C77   N9    A    
C85   C91   S    
C61   C69   S    
C84   H88   S    
C40   H24   S    
C10   H106  S    
C8    C20   A    
C82   C89   S    
N17   Ni1   S    
C46   C62   S    
C34   C40   S    
C64   C68   S    
C49   H41   S    
C79   N11   A    
C86   H100  S    
C82   H86   S    
C15   C33   S    
C55   C59   S    
C81   H85   S    
C73   H77   S    
C86   C88   S    
C48   C64   S    
C5    C17   A    
C10   C17   A    
C1    N1    A    
C30   H19   S    
C94   F6    S    
C3    C99   A    
C66   H50   S    
N14   Ni1   S    
C37   N7    A    
N17   N18   A    
C26   H14   S    
C71   H67   S    
C49   C65   S    
C25   H13   S    
C90   C102  S    
C7    C19   A    
C21   H5    S    
C76   H84   S    
N28   Ni7   S    
C16   C34   S    
C74   H78   S    
C92   F3    S    
C43   H31   S    
N29   Ni2   S    
C94   N14   A    
N10   Ni5   S    
C73   C87   S    
C28   H12   S    
C93   N13   A    
C48   H34   S    
C42   H30   S    
C11   N31   A    
N11   N12   A    
C32   C104  S    
C79   C102  A    
C43   H27   S    
C36   C97   A    
C51   C57   S    
C72   H62   S    
C74   C87   S    
C89   C91   S    
C35   C98   A    
C107  F11   S    
N9    N10   A    
C76   C88   S    
C41   H25   S    
C80   N12   A    
N22   Ni6   S    
N24   Ni8   S    
C43   C59   S    
N27   Ni8   S    
C69   H65   S    
C110  N22   A    
N26   N29   A    
C14   C108  A    
N3    N8    A    
C109  N21   A    
N25   N30   A    
C44   H28   S    
C69   H63   S    
C45   H35   S    
N21   N22   A    
C56   H60   S    
C78   C101  A    
C29   C31   S    
N3    Ni3   S    
N18   Ni2   S    
C62   C70   S    
C56   H56   S    
C50   H70   S    
C58   C97   S    
C1    H1    S    
C106  N18   A    
N1    Ni1   S    
C55   H59   S    
C47   H33   S    
C67   H75   S    
C63   C67   S    
C23   C27   S    
C24   H112  S    
C27   C34   S    
C6    C18   A    
C40   H23   S    
C46   H36   S    
C76   C84   S    
C24   H8    S    
C22   C31   S    
C6    N26   A    
C85   C87   S    
C13   C106  A    
C5    N25   A    
N15   Ni4   S    
C65   H49   S    
C86   H99   S    
C45   H37   S    
C13   C105  A    
C59   C100  S    
C3    N3    A    
C19   C63   S    
C35   H45   S    
C62   C66   S    
C70   H66   S    
C42   C48   S    
C44   C46   S    
N30   Ni1   S    
C78   H90   S    
C52   C68   S    
C11   C20   A    
C83   H95   S    
C112  F16   S    
C71   H61   S    
C47   C63   S    
C7    N27   A    
C35   N5    A    
C44   C60   S    
C111  F15   S    
C20   C64   S    
C75   H79   S    
C24   C32   S    
N26   Ni5   S    
C41   H29   S    
C95   C104  A    
C76   H80   S    
C28   C34   S    
C61   C65   S    
N2    Ni2   S    
C33   C39   S    
C84   H96   S    
C26   C33   S    
C90   C92   S    
C29   H18   S    
C6    H102  S    
C16   C112  A    
C108  F12   S    
C78   N10   A    
C51   H43   S    
C70   H64   S    
C13   C87   S    
C54   C58   S    
C41   C47   S    
C30   C40   S    
C75   C88   S    
N19   Ni3   S    
C52   C58   S    
C50   C66   S    
C2    C98   A    
C21   C31   S    
C55   C69   S    
C21   H109  S    
C73   C81   S    
N28   N31   A    
C49   H69   S    
N5    Ni5   S    
C53   H53   S    
C14   C107  A    
C46   H38   S    
C23   H111  S    
C94   C103  A    
C56   C70   S    
C25   H9    S    
C96   C104  A    
C48   H40   S    
N25   Ni6   S    
N16   Ni3   S    
C29   H17   S    
C91   F1    S    
C52   H44   S    
C72   H68   S    
C17   C61   S    
C1    C97   A    
C53   C71   S    
C109  F13   S    
C11   H107  S    
C82   H94   S    
C74   C82   S    
C53   H57   S    
C2    N2    A    
C24   C28   S    
C81   H93   S    
C54   H54   S    
C84   C90   S    
C9    H105  S    
C29   C39   S    
C112  N24   A    
C83   C90   S    
C21   C25   S    
N31   Ni4   S    
C8    N28   A    
C27   H11   S    
N8    Ni8   S    
C108  N20   A    
C89   C101  S    
C10   N30   A    
C111  N23   A    
C4    H4    S    
C18   C62   S    
C52   H72   S    
C63   C71   S    
C38   C99   A    
C8    H104  S    
C85   H97   S    
C38   N8    A    
N23   N24   A    
N4    Ni4   S    
C95   F7    S    
C36   H46   S    
C96   F8    S    
N2    N5    A    
C39   H21   S    
C31   C103  S    
C51   H71   S    
N1    N6    A    
C49   C59   S    
C4    C100  A    
C79   H91   S    
C105  F9    S    
C23   C32   S    
C37   H47   S    
C77   H89   S    
C68   H52   S    
C38   H48   S    
C54   H58   S    
C43   C45   S    
C66   H74   S    
C3    H3    S    
C28   H16   S    
C81   C89   S    
C30   C32   S    
C106  F10   S    
C2    H2    S    
C75   C83   S    
N27   N32   A    
C80   H92   S    
C12   H108  S    
N7    Ni7   S    
C50   H42   S    
C30   H20   S    
C57   C98   S    
C12   C19   A    
C45   C61   S    
C95   N15   A    
C93   F5    S    
C53   C57   S    
C9    N29   A    
C4    N4    A    
C91   F2    S    
C107  N19   A    
N23   Ni7   S    
C27   H15   S    
C5    H101  S    
C64   C72   S    
C15   C110  A    
C47   H39   S    
C41   C57   S    
C92   F4    S    
C67   H51   S    
C56   C60   S    
C9    C18   A    
C54   C72   S    
N32   Ni3   S    
C68   H76   S    
N12   Ni7   S    
C36   N6    A    
C22   C26   S    
C22   H6    S    
C80   C102  A    
N13   Ni2   S    
N9    Ni6   S    
C23   H7    S    
C86   C92   S    
C44   H32   S    
C26   H10   S    
C22   H110  S    
C14   C88   S    
N13   N14   A    
C83   H87   S    
C105  N17   A    
N4    N7    A    
C7    H103  S    
C37   C100  A    
N19   N20   A    
C16   C111  A    
C25   C33   S    
C93   C103  A    
C110  F14   S    
C39   H22   S    
C75   H83   S    
