data_mof_unit_452.cif
_audit_creation_date              2012-12-11T16:35:23-0500
_audit_creation_method            fapswitch 2.2
_symmetry_space_group_name_H-M    P1
_symmetry_Int_Tables_number       1
_space_group_crystal_system       triclinic
_cell_length_a                    6.925705
_cell_length_b                    17.641893
_cell_length_c                    19.543483
_cell_angle_alpha                 109.044047
_cell_angle_beta                  90.933457
_cell_angle_gamma                 90.931766
_cell_volume                      2256.2917398

loop_
_atom_site_label
_atom_site_type_symbol
_atom_type_description
_atom_site_fract_x
_atom_site_fract_y
_atom_site_fract_z
_atom_type_partial_charge
O1    O     O_R   0.505700 0.440210 0.561730 -0.551664
O2    O     O_R   0.169350 0.406300 0.412660 -0.544261
O3    O     O_R   0.005650 0.559790 0.438270 -0.553069
C1    C     C_R   0.336665 0.382150 0.385474 0.705490
O4    O     O_R   0.175560 0.430650 0.559600 -0.516045
O5    O     O_R   0.011900 0.584320 0.586250 -0.536592
C2    C     C_R   0.344415 0.416861 0.582204 0.713731
O6    O     O_R   0.499450 0.415680 0.413750 -0.528801
O7    O     O_3   0.341370 0.550390 0.508570 -0.370048
V1    V     V_3+5 0.063940 0.490650 0.498410 1.441076
O8    O     O_R   0.682570 0.593700 0.587340 -0.541757
C3    C     C_R   0.854401 0.616619 0.614906 0.704252
O9    O     O_R   0.676370 0.569350 0.440400 -0.516911
C4    C     C_R   0.844578 0.583518 0.418119 0.714707
V2    V     V_3+5 0.564750 0.509350 0.501590 1.446805
O10   O     O_3   0.837190 0.449610 0.491430 -0.366959
C5    C     C_R   0.032283 0.725390 0.323008 -0.153075
H1    H     H_    0.159867 0.762948 0.326797 0.113774
C6    C     C_R   0.018799 0.679802 0.369531 -0.238609
H2    H     H_    0.136887 0.683164 0.407525 0.132893
C7    C     C_R   0.854125 0.631578 0.368165 -0.044032
C8    C     C_R   0.702772 0.628966 0.317929 0.195705
C9    C     C_R   0.717571 0.674967 0.271361 -0.202006
H3    H     H_    0.601302 0.671010 0.232514 0.107897
C10   C     C_R   0.881576 0.723884 0.273454 0.064167
C11   C     C_R   0.729705 0.809780 0.207305 -0.149849
H4    H     H_    0.591980 0.804118 0.230830 0.101308
C12   C     C_R   0.740694 0.855489 0.160847 -0.170671
H5    H     H_    0.610581 0.882954 0.149556 0.119037
C13   C     C_R   0.917096 0.866263 0.130076 -0.052568
C14   C     C_R   0.082421 0.830115 0.147234 -0.162507
H6    H     H_    0.220658 0.836941 0.124536 0.119762
C15   C     C_R   0.071207 0.784041 0.193540 -0.146023
H7    H     H_    0.200693 0.755969 0.204467 0.097770
C16   C     C_R   0.894557 0.773149 0.224190 0.104959
H8    H     H_    0.631678 0.652147 0.929804 0.126101
C17   C     C_R   0.004095 0.902688 0.741001 0.136376
C18   C     C_R   0.113202 0.905690 0.681998 -0.141070
C19   C     C_R   0.145388 0.836419 0.624741 -0.157130
C20   C     C_R   0.062476 0.764020 0.624141 -0.151527
C21   C     C_R   0.966651 0.757402 0.685438 0.040638
C22   C     C_R   0.958362 0.826371 0.748534 0.058288
C23   C     C_R   0.873757 0.684557 0.683910 -0.165566
C24   C     C_R   0.801347 0.676600 0.748692 0.053811
C25   C     C_R   0.819031 0.741852 0.814475 0.065293
C26   C     C_R   0.897093 0.816954 0.814696 -0.175586
C27   C     C_R   0.719169 0.603011 0.749798 -0.206668
C28   C     C_R   0.656178 0.592777 0.814012 0.174675
C29   C     C_R   0.677075 0.657226 0.878791 -0.112072
C30   C     C_R   0.757492 0.730246 0.879078 -0.188277
H9    H     H_    0.158262 0.962648 0.676849 0.115321
H10   H     H_    0.221843 0.839929 0.577939 0.121910
H11   H     H_    0.076352 0.713774 0.575103 0.123234
H12   H     H_    0.705537 0.551811 0.700807 0.122396
H13   H     H_    0.770777 0.777378 0.930873 0.115001
H14   H     H_    0.122123 0.465715 0.183198 0.128505
C31   C     C_R   0.456919 0.224297 0.382819 -0.130299
C32   C     C_R   0.523952 0.150556 0.383602 -0.118647
C33   C     C_R   0.556383 0.089687 0.318955 -0.121516
C34   C     C_R   0.523470 0.102242 0.252985 -0.143249
C35   C     C_R   0.457540 0.176799 0.250234 0.066699
C36   C     C_R   0.421757 0.238862 0.316753 0.070589
C37   C     C_R   0.429807 0.190126 0.182801 -0.190270
C38   C     C_R   0.370901 0.268017 0.183093 0.055097
C39   C     C_R   0.309205 0.324984 0.249400 0.047146
C40   C     C_R   0.346386 0.312937 0.316455 -0.181452
C41   C     C_R   0.377530 0.294275 0.120957 0.135571
C42   C     C_R   0.278415 0.363221 0.121188 -0.141669
C43   C     C_R   0.194524 0.411885 0.183525 -0.175951
C44   C     C_R   0.217239 0.395278 0.247700 -0.139726
H15   H     H_    0.430320 0.269278 0.434503 0.088603
H16   H     H_    0.549550 0.140422 0.434691 0.114327
H17   H     H_    0.607759 0.032377 0.319867 0.118456
H18   H     H_    0.552478 0.053023 0.204394 0.105736
H19   H     H_    0.274826 0.382213 0.073771 0.112610
H20   H     H_    0.160781 0.438175 0.295876 0.128186
C45   C     C_R   0.528503 0.279576 0.682246 -0.153544
H21   H     H_    0.653081 0.242573 0.679727 0.114383
C46   C     C_R   0.514896 0.323085 0.633973 -0.248427
H22   H     H_    0.630125 0.318956 0.596194 0.138096
C47   C     C_R   0.353602 0.370234 0.633377 -0.053160
C48   C     C_R   0.205793 0.373881 0.683407 0.195023
C49   C     C_R   0.221082 0.330254 0.731924 -0.198697
H23   H     H_    0.108104 0.335445 0.770756 0.108013
C50   C     C_R   0.381504 0.282279 0.731770 0.065701
C51   C     C_R   0.226066 0.199417 0.800339 -0.151814
H24   H     H_    0.086069 0.206663 0.778111 0.099967
C52   C     C_R   0.237044 0.152716 0.845908 -0.172577
H25   H     H_    0.104902 0.127450 0.858859 0.114515
C53   C     C_R   0.415905 0.137993 0.873601 -0.061540
C54   C     C_R   0.583060 0.174741 0.857359 -0.178174
H26   H     H_    0.723098 0.166009 0.878749 0.127403
C55   C     C_R   0.572014 0.222208 0.812259 -0.145938
H27   H     H_    0.703559 0.249620 0.801128 0.099854
C56   C     C_R   0.393527 0.234352 0.782262 0.102774
O11   O     O_R   0.273230 0.084330 0.086440 -0.532857
O12   O     O_R   0.596660 0.069390 0.940470 -0.540001
O13   O     O_R   0.760270 0.915710 0.913690 -0.536165
C57   C     C_R   0.427263 0.084131 0.918519 0.674916
O14   O     O_R   0.603330 0.093680 0.087390 -0.536459
O15   O     O_R   0.766990 0.940160 0.061660 -0.542633
C58   C     C_R   0.436074 0.119422 0.114006 0.703772
O16   O     O_R   0.266510 0.059870 0.938470 -0.543908
O17   O     O_3   0.431050 0.949630 0.991510 -0.365261
V3    V     V_3+5 0.708490 0.009340 0.001580 1.396865
O18   O     O_R   0.096270 0.930570 0.059390 -0.541389
C59   C     C_R   0.927720 0.915476 0.081053 0.686756
O19   O     O_R   0.089600 0.906290 0.912460 -0.538397
C60   C     C_R   0.917917 0.884017 0.884333 0.706553
V4    V     V_3+5 0.207670 0.990600 0.998190 1.407497
O20   O     O_3   0.935250 0.050360 0.008480 -0.368788
C61   C     C_3   0.892477 0.977458 0.779058 -0.376605
C62   C     C_3   0.677063 0.962125 0.759596 -0.711256
H28   H     H_    0.655258 0.933715 0.700145 0.223545
H29   H     H_    0.611809 0.922548 0.787358 0.227628
H30   H     H_    0.600148 0.019300 0.775563 0.212787
H31   H     H_    0.918025 0.999547 0.838269 0.181685
H32   H     H_    0.939233 0.027952 0.760471 0.167322
C63   C     C_3   0.568120 0.511913 0.809507 -0.350878
C64   C     C_3   0.509109 0.502671 0.881450 -0.776827
H33   H     H_    0.636423 0.511710 0.918777 0.224232
H34   H     H_    0.395523 0.545994 0.906803 0.225148
H35   H     H_    0.449423 0.441103 0.871547 0.228185
H36   H     H_    0.437957 0.500955 0.773453 0.190090
H37   H     H_    0.673112 0.464488 0.784107 0.181566
C65   C     C_3   0.514296 0.261139 0.059376 -0.382632
C66   C     C_3   0.725452 0.275047 0.085244 -0.682836
H38   H     H_    0.758071 0.340337 0.109516 0.218636
H39   H     H_    0.757675 0.245398 0.126084 0.230679
H40   H     H_    0.820989 0.249948 0.038501 0.207431
H41   H     H_    0.483025 0.197807 0.032256 0.172915
H42   H     H_    0.493926 0.289732 0.016845 0.175621
N1    N     N_3   0.043791 0.424541 0.687476 -0.669695
H43   H     H_    0.042325 0.466323 0.739660 0.219864
H44   H     H_    0.917927 0.389026 0.679959 0.220829
N2    N     N_3   0.536543 0.577633 0.312141 -0.663612
H45   H     H_    0.413896 0.612974 0.320332 0.224258
H46   H     H_    0.527795 0.537282 0.259314 0.227777

loop_
_geom_bond_atom_site_label_1
_geom_bond_atom_site_label_2
_ccdc_geom_bond_type
O15   C59   A    
C57   O16   A    
C55   H27   S    
O11   C58   A    
C13   C59   S    
C21   C22   A    
C6    H2    S    
C1    O6    A    
C47   C48   A    
C31   C32   A    
C31   C36   A    
C63   H36   S    
C64   H33   S    
C42   H19   S    
O14   V3    S    
C65   C66   S    
O13   V3    S    
O16   V4    S    
C65   H41   S    
C4    C7    S    
C12   H5    S    
C6    C7    A    
C3    C23   S    
O5    C3    A    
C61   H31   S    
C51   C52   A    
O18   C59   A    
V2    O10   S    
O19   C60   A    
C22   C26   A    
C17   C22   A    
C35   C37   A    
V4    O20   S    
O17   V3    S    
C17   C61   S    
C5    C6    A    
O8    V2    S    
C14   H6    S    
C42   C43   A    
C9    H3    S    
C14   C15   A    
O1    V2    S    
O7    V1    S    
C33   H17   S    
C24   C27   A    
C62   H30   S    
O12   V3    S    
C19   H10   S    
V3    O20   S    
C45   C50   A    
C33   C34   A    
C55   C56   A    
O13   C60   A    
O9    C4    A    
C21   C23   A    
C35   C36   A    
C37   C58   S    
C61   C62   S    
O12   C57   A    
C64   H34   S    
C15   H7    S    
C28   C63   S    
C45   C46   A    
O15   V3    S    
C36   C40   A    
C41   C42   A    
C38   C41   A    
N2    H46   S    
C41   C65   S    
C54   H26   S    
O4    C2    A    
C51   H24   S    
C18   H9    S    
C32   C33   A    
C45   H21   S    
O11   V4    S    
C48   C49   A    
C46   H22   S    
C8    N2    S    
C34   C35   A    
O2    C1    A    
C23   C24   A    
C66   H39   S    
C17   C18   A    
C54   C55   A    
C27   C28   A    
C65   H42   S    
C13   C14   A    
C63   C64   S    
O14   C58   A    
C5    H1    S    
C11   H4    S    
C31   H15   S    
O3    C4    A    
C10   C16   S    
C27   H12   S    
C63   H37   S    
C20   C21   A    
C49   C50   A    
C52   C53   A    
C29   C30   A    
O6    V2    S    
O9    V2    S    
C44   H20   S    
N1    H43   S    
C49   H23   S    
C66   H38   S    
O2    V1    S    
C53   C57   S    
C19   C20   A    
C24   C25   A    
C46   C47   A    
C62   H28   S    
O18   V4    S    
C28   C29   A    
C2    C47   S    
O1    C2    A    
N2    H45   S    
O5    V1    S    
O8    C3    A    
C64   H35   S    
C11   C12   A    
C30   H13   S    
C5    C10   A    
C38   C39   A    
C48   N1    S    
C12   C13   A    
O7    V2    S    
C66   H40   S    
O4    V1    S    
C39   C40   A    
O3    V1    S    
V1    O10   S    
O17   V4    S    
C50   C56   S    
C32   H16   S    
C53   C54   A    
C18   C19   A    
C25   C30   A    
C34   H18   S    
C15   C16   A    
O19   V4    S    
C9    C10   A    
C43   C44   A    
C51   C56   A    
C20   H11   S    
C37   C38   A    
C25   C26   A    
C11   C16   A    
C52   H25   S    
C1    C40   S    
H14   C43   S    
C26   C60   S    
N1    H44   S    
C61   H32   S    
C8    C9    A    
C7    C8    A    
H8    C29   S    
C39   C44   A    
C62   H29   S    
