data_mof_unit_767.cif
_audit_creation_date              2012-12-11T15:53:50-0500
_audit_creation_method            fapswitch 2.2
_symmetry_space_group_name_H-M    P1
_symmetry_Int_Tables_number       1
_space_group_crystal_system       triclinic
_cell_length_a                    10.643463
_cell_length_b                    10.657335
_cell_length_c                    16.950373
_cell_angle_alpha                 80.921774
_cell_angle_beta                  99.045465
_cell_angle_gamma                 118.296112
_cell_volume                      1664.21815408

loop_
_atom_site_label
_atom_site_type_symbol
_atom_type_description
_atom_site_fract_x
_atom_site_fract_y
_atom_site_fract_z
_atom_type_partial_charge
C1    C     C_R   0.360704 0.228009 0.627173 0.548580
C2    C     C_R   0.389930 0.831094 0.673426 -0.143076
C3    C     C_R   0.373730 0.852737 0.749671 -0.157557
C4    C     C_3   0.136512 0.458377 0.794576 -0.243247
C5    C     C_3   0.156136 0.434217 0.712511 -0.248906
C6    C     C_R   0.313814 0.693213 0.646507 0.015283
C7    C     C_1   0.851576 0.669846 0.702313 -0.033206
C8    C     C_1   0.898784 0.703937 0.769101 -0.037213
C9    C     C_1   0.344929 0.186797 0.709582 -0.051909
C10   C     C_1   0.320959 0.159803 0.778239 -0.055925
C11   C     C_1   0.319749 0.682688 0.280382 -0.038853
C12   C     C_R   0.369322 0.655247 0.585733 0.539841
C13   C     C_1   0.298643 0.706412 0.209746 -0.039904
C14   C     C_R   0.791643 0.642001 0.148342 -0.014400
C15   C     C_R   0.788487 0.524412 0.200253 0.057856
C16   C     C_R   0.746633 0.498205 0.275995 -0.006008
C17   C     C_R   0.683722 0.691522 0.247703 -0.137441
C18   C     C_R   0.723976 0.716224 0.169035 -0.152230
C19   C     C_3   0.907234 0.484824 0.228195 0.009052
C20   C     C_3   0.857227 0.450180 0.310844 -0.221766
C21   C     C_R   0.709971 0.591694 0.304056 -0.008559
C22   C     C_R   0.286049 0.095643 0.175644 -0.003811
C23   C     C_R   0.781794 0.621409 0.625982 0.561793
C24   C     C_R   0.172540 0.082381 0.213229 -0.011135
C25   C     C_R   0.189548 0.103128 0.292662 0.062409
C26   C     C_R   0.436809 0.152696 0.300779 -0.102054
C27   C     C_R   0.422287 0.136549 0.219769 0.203963
C28   C     C_3   0.029749 0.955950 0.221253 -0.234730
C29   C     C_3   0.050615 0.975930 0.309491 -0.025444
C30   C     C_R   0.320889 0.139692 0.336848 -0.056990
C31   C     C_R   0.948146 0.724798 0.851544 0.534475
C32   C     C_R   0.281988 0.750890 0.882982 0.546166
C33   C     C_R   0.284892 0.115177 0.857946 0.543101
C34   C     C_R   0.349250 0.218667 0.403883 0.549397
C35   C     C_R   0.879694 0.687396 0.081253 0.531215
C36   C     C_R   0.285187 0.738282 0.125698 0.545873
C37   C     C_R   0.253880 0.051102 0.095880 0.536629
C38   C     C_R   0.362819 0.657029 0.361810 0.532964
C39   C     C_R   0.699101 0.581493 0.389800 0.569601
C40   C     C_R   0.279900 0.737448 0.798580 -0.002371
C41   C     C_R   0.182953 0.611634 0.763494 0.007576
C42   C     C_R   0.200140 0.589441 0.688681 0.013428
Cr1   Cr    Cr6+3 0.608440 0.389080 0.519680 1.014866
Cr2   Cr    Cr6+3 0.288640 0.400090 0.490760 1.045582
Cr3   Cr    Cr6+3 0.602940 0.710800 0.489510 1.057141
Cr4   Cr    Cr6+3 0.052530 0.947560 0.964210 1.025802
Cr5   Cr    Cr6+3 0.059970 0.626800 0.992920 1.050008
Cr6   Cr    Cr6+3 0.373320 0.938440 0.995370 1.048750
H1    H     H_    0.473226 0.917573 0.640092 0.146292
H2    H     H_    0.808168 0.334166 0.331676 0.183996
H3    H     H_    0.939785 0.521099 0.354668 0.136274
H4    H     H_    0.542122 0.187949 0.333300 0.168713
H5    H     H_    0.030347 0.856283 0.210377 0.088386
H6    H     H_    0.943940 0.978706 0.186832 0.189465
H7    H     H_    0.064565 0.888645 0.348975 0.121390
H8    H     H_    0.443029 0.955381 0.772729 0.141967
H9    H     H_    0.022755 0.402647 0.808265 0.156157
H10   H     H_    0.213541 0.443957 0.842980 0.167257
H11   H     H_    0.244944 0.406671 0.713761 0.157923
H12   H     H_    0.053842 0.363969 0.679016 0.153504
H13   H     H_    0.644018 0.758001 0.265967 0.180237
H14   H     H_    0.716272 0.801967 0.128329 0.158676
H15   H     H_    0.014186 0.579460 0.225034 0.104620
O1    O     O_R   0.754020 0.497590 0.609930 -0.504264
O2    O     O_R   0.295080 0.533620 0.397890 -0.490453
O3    O     O_R   0.485280 0.746620 0.388440 -0.505718
O4    O     O_R   0.720550 0.696220 0.420010 -0.474583
O5    O     O_3   0.500010 0.499990 0.499980 -0.280588
O6    O     O_R   0.163320 0.092900 0.874450 -0.507637
O7    O     O_R   0.934650 0.822080 0.882840 -0.478074
O8    O     O_R   0.915520 0.604140 0.893670 -0.499667
O9    O     O_R   0.191760 0.638110 0.923230 -0.498731
O10   O     O_R   0.406180 0.826930 0.920660 -0.493385
O11   O     O_R   0.358620 0.062870 0.901950 -0.512180
O12   O     O_R   0.481420 0.271390 0.600630 -0.497272
O13   O     O_R   0.163910 0.085460 0.050210 -0.490751
O14   O     O_R   0.935200 0.815170 0.045770 -0.512292
O15   O     O_R   0.916120 0.596690 0.069430 -0.491326
O16   O     O_R   0.192310 0.631200 0.086170 -0.466890
O17   O     O_R   0.406770 0.819480 0.096420 -0.474698
O18   O     O_R   0.359170 0.055960 0.064880 -0.483790
O19   O     O_3   0.161940 0.837600 0.984160 -0.341457
O20   O     O_R   0.263810 0.254550 0.589590 -0.509730
O21   O     O_R   0.300820 0.531200 0.560890 -0.501862
O22   O     O_R   0.491480 0.744020 0.564270 -0.514971
O23   O     O_R   0.726290 0.693800 0.583010 -0.481481
O24   O     O_R   0.747830 0.500190 0.434090 -0.525538
O25   O     O_R   0.475680 0.273800 0.437630 -0.533510
O26   O     O_R   0.257620 0.257160 0.413750 -0.468347
I1    I     I_    0.886802 0.305576 0.175048 -0.251833
O27   O     O_3   0.543056 0.164315 0.186005 -0.644382
H16   H     H_    0.549730 0.232413 0.137720 0.353573
I2    I     I_    0.905663 0.035337 0.348019 -0.297638

loop_
_geom_bond_atom_site_label_1
_geom_bond_atom_site_label_2
_ccdc_geom_bond_type
C5    C42   S    
C16   C21   A    
C41   C42   A    
C14   C18   A    
C19   C20   S    
Cr5   O16   S    
Cr2   O20   S    
Cr4   O13   S    
C7    C8    T    
C32   O9    A    
C15   C19   S    
C30   C34   S    
C26   C27   A    
C12   O22   A    
Cr1   O25   S    
C28   C29   S    
C20   H3    S    
C6    C12   S    
C4    C41   S    
C15   C16   A    
Cr6   O18   S    
C12   O21   A    
Cr5   O19   S    
Cr4   O6    S    
C20   H2    S    
C17   H13   S    
Cr4   O19   S    
C31   O7    A    
C38   O3    A    
C19   H15   S    
Cr1   O5    S    
C23   O23   A    
C4    H9    S    
Cr3   O4    S    
C27   O27   S    
C39   O24   A    
C9    C10   T    
C33   O6    A    
C31   O8    A    
Cr1   O12   S    
C37   O18   A    
Cr2   O2    S    
C2    C6    A    
Cr1   O1    S    
C25   C29   S    
C5    H11   S    
C1    O12   A    
Cr6   O11   S    
C1    C9    S    
C24   C25   A    
C13   C36   S    
C36   O17   A    
O27   H16   S    
C28   H6    S    
C18   H14   S    
C29   H7    S    
C22   C37   S    
C35   O14   A    
C17   C21   A    
C11   C38   S    
Cr3   O22   S    
C2    H1    S    
C26   H4    S    
C3    H8    S    
C21   C39   S    
C38   O2    A    
C16   C20   S    
Cr3   O5    S    
C17   C18   A    
C34   O25   A    
Cr5   O8    S    
C23   O1    A    
C37   O13   A    
C3    C40   A    
C26   C30   A    
C22   C27   A    
C22   C24   A    
Cr2   O5    S    
C14   C35   S    
C25   C30   A    
C40   C41   A    
C5    H12   S    
C8    C31   S    
C39   O4    A    
Cr6   O10   S    
C24   C28   S    
C4    C5    S    
Cr2   O21   S    
C36   O16   A    
Cr4   O14   S    
C28   H5    S    
C1    O20   A    
C35   O15   A    
Cr1   O24   S    
Cr6   O17   S    
C2    C3    A    
C34   O26   A    
C19   I1    S    
C29   I2    S    
C11   C13   T    
C7    C23   S    
Cr6   O19   S    
Cr3   O23   S    
C10   C33   S    
C32   C40   S    
Cr5   O9    S    
Cr4   O7    S    
C33   O11   A    
C6    C42   A    
C4    H10   S    
Cr3   O3    S    
C14   C15   A    
Cr5   O15   S    
C32   O10   A    
Cr2   O26   S    
