data_mof_unit_3281.cif
_audit_creation_date              2012-12-10T17:03:54-0500
_audit_creation_method            fapswitch 2.2
_symmetry_space_group_name_H-M    P1
_symmetry_Int_Tables_number       1
_space_group_crystal_system       triclinic
_cell_length_a                    9.80994
_cell_length_b                    11.059
_cell_length_c                    15.749061
_cell_angle_alpha                 94.908488
_cell_angle_beta                  78.625532
_cell_angle_gamma                 111.731774
_cell_volume                      1555.83186834

loop_
_atom_site_label
_atom_site_type_symbol
_atom_type_description
_atom_site_fract_x
_atom_site_fract_y
_atom_site_fract_z
_atom_type_partial_charge
C1    C     C_R   0.556647 0.745609 0.506201 0.740240
C2    C     C_R   0.443331 0.254388 0.493831 0.701015
C3    C     C_R   0.326636 0.485497 0.079380 0.009036
C4    C     C_R   0.678180 0.529537 0.919255 -0.027750
C5    C     C_R   0.219851 0.428010 0.026737 -0.140486
C6    C     C_R   0.784300 0.584762 0.972730 -0.135797
C7    C     C_2   0.589326 0.885203 0.509632 0.487627
C8    C     C_2   0.410607 0.114791 0.490456 0.479944
C9    C     C_2   0.485346 0.930498 0.498599 -0.207469
C10   C     C_2   0.514567 0.069490 0.501512 -0.217413
C11   C     C_2   0.923867 0.490814 0.492430 0.115669
C12   C     C_2   0.075795 0.508620 0.507915 0.155249
C13   C     C_R   0.409281 0.482661 0.663144 0.815139
C14   C     C_R   0.590770 0.516162 0.336648 0.845462
C15   C     C_R   0.350457 0.461276 0.757053 -0.247451
C16   C     C_R   0.650522 0.536899 0.242526 -0.230043
C17   C     C_R   0.154257 0.368297 0.881605 -0.001493
C18   C     C_R   0.849204 0.629203 0.118759 -0.016662
C19   C     C_R   0.201093 0.381913 0.790422 -0.171369
C20   C     C_R   0.801752 0.611621 0.209311 -0.167691
C21   C     C_R   0.451133 0.516518 0.813813 0.545975
C22   C     C_R   0.548931 0.489210 0.185472 0.605072
C23   C     C_R   0.414689 0.478193 0.900433 -0.080365
C24   C     C_R   0.588431 0.529067 0.098891 -0.023612
C25   C     C_R   0.261945 0.420289 0.936611 0.058729
C26   C     C_R   0.741969 0.584169 0.063160 -0.012410
C27   C     C_R   0.524926 0.505643 0.953732 -0.004179
C28   C     C_R   0.479451 0.506311 0.045319 0.084290
Cu1   Cu    Cu3+1 0.362980 0.479380 0.485080 1.122530
Cu2   Cu    Cu3+1 0.637020 0.520620 0.514920 1.113339
H1    H     H_    0.103402 0.403696 0.055628 0.174824
H2    H     H_    0.900504 0.615756 0.943041 0.226671
H3    H     H_    0.623255 0.136026 0.512902 0.208876
H4    H     H_    0.376666 0.863960 0.487199 0.209795
H5    H     H_    0.120499 0.574601 0.559111 0.152054
H6    H     H_    0.878799 0.424223 0.441584 0.129602
N1    N     N_2   0.842890 0.551600 0.537350 0.094496
N2    N     N_2   0.157110 0.448400 0.462650 0.082620
O1    O     O_R   0.426810 0.668300 0.492040 -0.651308
O2    O     O_R   0.573190 0.331700 0.507960 -0.654688
O3    O     O_R   0.658240 0.703130 0.517240 -0.468547
O4    O     O_R   0.341760 0.296870 0.482760 -0.482500
O5    O     O_R   0.319390 0.472820 0.610170 -0.623797
O6    O     O_R   0.680610 0.527180 0.389830 -0.641385
O7    O     O_R   0.550820 0.507640 0.635370 -0.482171
O8    O     O_R   0.449180 0.492360 0.364630 -0.460047
F1    F     F_    0.413773 0.395725 0.213189 -0.627396
F2    F     F_    0.581426 0.615561 0.785729 -0.604815
C29   C     C_2   0.912692 0.665239 0.267580 0.430249
H7    H     H_    0.935465 0.600466 0.306062 0.088035
O9    O     O_2   0.979168 0.782466 0.272873 -0.474151
C30   C     C_2   0.099728 0.306501 0.729870 0.476931
H8    H     H_    0.142177 0.259343 0.673152 0.099414
O10   O     O_2   0.970105 0.298693 0.741026 -0.513273
C31   C     C_2   0.995925 0.293218 0.918558 0.439845
H9    H     H_    0.906469 0.311999 0.898136 0.127024
O11   O     O_2   0.964373 0.208484 0.971681 -0.514533
C32   C     C_2   0.010785 0.695282 0.084104 0.377441
H10   H     H_    0.071074 0.791560 0.107807 0.160827
O12   O     O_2   0.079037 0.640410 0.032020 -0.578408
C33   C     C_2   0.274191 0.538012 0.164386 0.556995
H11   H     H_    0.158470 0.495178 0.195892 0.070217
O13   O     O_2   0.356986 0.633764 0.197643 -0.522663
C34   C     C_2   0.728892 0.481188 0.832100 0.564492
H12   H     H_    0.650028 0.405286 0.799080 0.055373
O14   O     O_2   0.859551 0.524129 0.796706 -0.463114
F3    F     F_    0.274038 0.032538 0.476089 -0.582786
F4    F     F_    0.725879 0.967462 0.524022 -0.583949
F5    F     F_    0.102719 0.368717 0.398573 -0.512977
F6    F     F_    0.898074 0.632640 0.600672 -0.478399

loop_
_geom_bond_atom_site_label_1
_geom_bond_atom_site_label_2
_ccdc_geom_bond_type
Cu1   N2    S    
C6    H2    S    
C11   C12   S    
Cu2   O3    S    
C7    C9    D    
Cu1   Cu2   S    
C14   C16   S    
C23   C27   A    
Cu1   O4    S    
C9    C10   S    
C17   C31   S    
Cu2   O7    S    
C18   C26   A    
C13   O5    A    
Cu1   O8    S    
C16   C20   A    
C21   F2    S    
C17   C25   A    
C34   H12   S    
Cu1   O1    S    
C31   H9    S    
C31   O11   D    
C22   F1    S    
C32   H10   S    
N2    F5    S    
Cu2   O2    S    
C14   O8    A    
C6    C26   A    
N1    F6    S    
Cu1   O5    S    
C12   H5    S    
C15   C19   A    
Cu2   O6    S    
C20   C29   S    
C2    O4    A    
C5    C25   A    
C14   O6    A    
C3    C28   A    
C17   C19   A    
C30   O10   D    
C9    H4    S    
C10   H3    S    
C18   C20   A    
C13   C15   S    
C21   C23   A    
C12   N2    D    
C33   H11   S    
C22   C24   A    
C4    C6    A    
C1    O1    A    
C3    C33   S    
C32   O12   D    
C2    O2    A    
C15   C21   A    
C23   C25   A    
C30   H8    S    
C13   O7    A    
C8    F3    S    
C8    C10   D    
C29   H7    S    
C1    O3    A    
C27   C28   A    
C11   N1    D    
C4    C34   S    
C11   H6    S    
C16   C22   A    
C4    C27   A    
C3    C5    A    
C5    H1    S    
C7    F4    S    
C1    C7    S    
C19   C30   S    
C18   C32   S    
C33   O13   D    
C2    C8    S    
C24   C28   A    
Cu2   N1    S    
C24   C26   A    
C29   O9    D    
C34   O14   D    
