data_mof_unit_3384.cif
_audit_creation_date              2012-12-10T17:32:12-0500
_audit_creation_method            fapswitch 2.2
_symmetry_space_group_name_H-M    P1
_symmetry_Int_Tables_number       1
_space_group_crystal_system       triclinic
_cell_length_a                    12.356472
_cell_length_b                    13.237221
_cell_length_c                    15.052866
_cell_angle_alpha                 77.020709
_cell_angle_beta                  101.680145
_cell_angle_gamma                 116.749221
_cell_volume                      2127.88627088

loop_
_atom_site_label
_atom_site_type_symbol
_atom_type_description
_atom_site_fract_x
_atom_site_fract_y
_atom_site_fract_z
_atom_type_partial_charge
C1    C     C_R   0.854870 0.286863 0.506278 0.813815
C2    C     C_R   0.109315 0.522898 0.106784 0.108132
C3    C     C_R   0.784655 0.461187 0.018161 -0.204320
C4    C     C_R   0.784649 0.461095 0.925517 -0.198590
C5    C     C_R   0.892291 0.482301 0.892446 0.109427
C6    C     C_R   0.001071 0.503719 0.952870 0.057789
C7    C     C_R   0.110141 0.526254 0.920027 0.098193
C8    C     C_R   0.217685 0.547130 0.980568 -0.180333
C9    C     C_R   0.217159 0.544978 0.073548 -0.211961
C10   C     C_R   0.893016 0.481926 0.800038 -0.249044
C11   C     C_R   0.001100 0.503222 0.767521 -0.081479
C12   C     C_R   0.000610 0.501154 0.670997 0.840727
C13   C     C_R   0.109626 0.527323 0.827152 -0.173435
C14   C     C_R   0.272047 0.024677 0.384105 -0.184498
C15   C     C_R   0.227897 0.834734 0.468179 -0.044170
C16   C     C_R   0.817219 0.083492 0.554330 -0.148852
C17   C     C_R   0.739153 0.968105 0.569168 -0.145888
C18   C     C_R   0.614912 0.931535 0.541144 -0.183934
C19   C     C_R   0.566404 0.010120 0.493389 0.082986
C20   C     C_R   0.648643 0.125871 0.468792 0.078149
C21   C     C_R   0.439159 0.977194 0.467803 0.073761
C22   C     C_R   0.397307 0.056355 0.410216 0.165102
C23   C     C_R   0.145102 0.713384 0.486585 0.786305
C24   C     C_R   0.480956 0.165258 0.377417 -0.233621
C25   C     C_R   0.604726 0.199005 0.405016 -0.197855
C26   C     C_R   0.351884 0.868050 0.498512 -0.250471
C27   C     C_R   0.187669 0.914008 0.412386 -0.186946
C28   C     C_R   0.772904 0.164149 0.507315 -0.122453
C29   C     C_R   0.349698 0.325249 0.640374 -0.325035
C30   C     C_R   0.760669 0.646964 0.376323 0.073514
C31   C     C_R   0.664179 0.678734 0.348099 -0.256723
C32   C     C_R   0.559237 0.622333 0.392692 -0.199768
C33   C     C_R   0.549879 0.533077 0.466378 0.018411
C34   C     C_R   0.000152 0.500310 0.328842 0.791083
C35   C     C_R   0.651904 0.503937 0.492861 0.285061
C36   C     C_R   0.444753 0.472428 0.515820 -0.026291
C37   C     C_R   0.445473 0.383860 0.588050 0.089627
C38   C     C_R   0.544528 0.356261 0.611834 -0.257111
C39   C     C_R   0.646130 0.416267 0.566279 -0.182298
C40   C     C_R   0.339542 0.495753 0.498677 -0.073441
C41   C     C_R   0.251930 0.354046 0.625646 0.591314
C42   C     C_R   0.108042 0.520845 0.199577 -0.239357
C43   C     C_R   0.000323 0.500827 0.231918 -0.062904
C44   C     C_R   0.892864 0.481776 0.171515 -0.246916
C45   C     C_R   0.892133 0.481833 0.078776 0.106816
C46   C     C_R   0.000839 0.502820 0.046173 0.066444
Cu1   Cu    Cu3+1 0.098270 0.475420 0.521130 0.996920
Cu2   Cu    Cu3+1 0.901730 0.524580 0.478870 0.925956
H1    H     H_    0.191251 0.536461 0.246367 0.146466
H2    H     H_    0.450642 0.224796 0.330021 0.147195
H3    H     H_    0.239664 0.084666 0.339868 0.138868
H4    H     H_    0.377876 0.806486 0.545998 0.150891
H5    H     H_    0.912408 0.109518 0.581242 0.205757
H6    H     H_    0.560082 0.840701 0.555470 0.133241
H7    H     H_    0.774710 0.906724 0.604992 0.155389
H8    H     H_    0.665083 0.281877 0.372862 0.174199
H9    H     H_    0.545039 0.289003 0.668286 0.155834
H10   H     H_    0.355681 0.260705 0.697465 0.195709
H11   H     H_    0.809487 0.465518 0.196898 0.150938
H12   H     H_    0.331271 0.560499 0.443400 0.142897
H13   H     H_    0.841449 0.691166 0.341054 0.128938
H14   H     H_    0.487019 0.649879 0.368389 0.134985
H15   H     H_    0.670780 0.747275 0.291409 0.148901
H16   H     H_    0.718889 0.391664 0.592107 0.206697
H17   H     H_    0.700635 0.444837 0.042461 0.149314
H18   H     H_    0.700606 0.444566 0.879732 0.153598
H19   H     H_    0.809227 0.463922 0.753681 0.152725
H20   H     H_    0.193918 0.548152 0.801054 0.181049
H21   H     H_    0.301926 0.564448 0.956088 0.156373
H22   H     H_    0.301036 0.560778 0.119414 0.144632
H23   H     H_    0.091837 0.889419 0.388070 0.150892
N1    N     N_R   0.246280 0.438190 0.553160 -0.239558
N2    N     N_R   0.754320 0.561190 0.447410 -0.211799
O1    O     O_R   0.972510 0.318130 0.526570 -0.522395
O2    O     O_R   0.806530 0.359650 0.490890 -0.616795
O3    O     O_R   0.082980 0.479210 0.647590 -0.504930
O4    O     O_R   0.917000 0.520730 0.611900 -0.611426
O5    O     O_R   0.193470 0.640350 0.509110 -0.595123
O6    O     O_R   0.027490 0.681870 0.473430 -0.588380
O7    O     O_R   0.083000 0.479270 0.388100 -0.593584
O8    O     O_R   0.917020 0.520790 0.352410 -0.599631
S1    S     S_3+6 0.158309 0.290348 0.717866 0.003183
O9    O     O_2   0.164086 0.178476 0.760901 -0.319066
O10   O     O_2   0.214179 0.369051 0.788756 -0.326505
O11   O     O_3   0.009890 0.261731 0.693634 -0.532740
H24   H     H_    0.978435 0.238878 0.753988 0.361425

loop_
_geom_bond_atom_site_label_1
_geom_bond_atom_site_label_2
_ccdc_geom_bond_type
C16   C28   A    
C21   C26   A    
C40   H12   S    
C19   C20   A    
C25   H8    S    
C7    C8    A    
O11   H24   S    
C2    C46   A    
C39   H16   S    
C8    H21   S    
C1    O1    A    
Cu2   O6    S    
C36   C37   A    
C19   C21   A    
Cu1   O3    S    
C5    C6    A    
C20   C25   A    
C44   H11   S    
C33   C36   A    
Cu2   O8    S    
C18   C19   A    
C16   H5    S    
C34   O7    A    
Cu1   Cu2   S    
C8    C9    A    
C1    C28   S    
C34   O8    A    
C14   C27   A    
C40   N1    A    
C17   H7    S    
C15   C23   S    
C21   C22   A    
Cu2   O2    S    
C3    H17   S    
Cu1   O7    S    
C24   H2    S    
C38   C39   A    
C1    O2    A    
C31   H15   S    
C36   C40   A    
C24   C25   A    
C30   N2    A    
C16   C17   A    
C15   C26   A    
C20   C28   A    
C10   H19   S    
C3    C45   A    
Cu2   O4    S    
C35   C39   A    
C43   C44   A    
C37   C38   A    
C26   H4    S    
C38   H9    S    
C15   C27   A    
C14   H3    S    
C12   O4    A    
C17   C18   A    
C9    H22   S    
C41   N1    A    
S1    O10   D    
C12   O3    A    
C22   C24   A    
C42   C43   A    
C3    C4    A    
C27   H23   S    
C44   C45   A    
C35   N2    A    
C6    C46   A    
C29   C41   A    
Cu2   N2    S    
C31   C32   A    
C34   C43   S    
Cu1   O1    S    
C4    C5    A    
C11   C12   S    
C6    C7    A    
S1    O11   S    
C32   C33   A    
C14   C22   A    
C32   H14   S    
C5    C10   A    
C4    H18   S    
C11   C13   A    
C30   C31   A    
C2    C42   A    
C41   S1    S    
C33   C35   A    
C23   O5    A    
Cu1   N1    S    
C10   C11   A    
C18   H6    S    
C42   H1    S    
C45   C46   A    
C7    C13   A    
C29   H10   S    
S1    O9    D    
C30   H13   S    
C29   C37   A    
Cu1   O5    S    
C23   O6    A    
C2    C9    A    
C13   H20   S    
