data_mof_unit_1440.cif
_audit_creation_date              2012-12-11T16:06:24-0500
_audit_creation_method            fapswitch 2.2
_symmetry_space_group_name_H-M    P1
_symmetry_Int_Tables_number       1
_space_group_crystal_system       triclinic
_cell_length_a                    7.199526
_cell_length_b                    14.477379
_cell_length_c                    15.782758
_cell_angle_alpha                 89.999966
_cell_angle_beta                  90.003431
_cell_angle_gamma                 90.00002
_cell_volume                      1645.04106985

loop_
_atom_site_label
_atom_site_type_symbol
_atom_type_description
_atom_site_fract_x
_atom_site_fract_y
_atom_site_fract_z
_atom_type_partial_charge
O1    O     O_R   0.388780 0.834790 0.412340 -0.540366
O2    O     O_R   0.111220 0.165210 0.912340 -0.540366
O3    O     O_R   0.888780 0.665210 0.587660 -0.540363
O4    O     O_R   0.611220 0.334790 0.087660 -0.540369
O5    O     O_R   0.059040 0.845930 0.587040 -0.540287
O6    O     O_R   0.440960 0.154070 0.087040 -0.540295
O7    O     O_R   0.559040 0.654070 0.412960 -0.540291
O8    O     O_R   0.940960 0.345930 0.912960 -0.540291
C1    C     C_R   0.228074 0.868226 0.615141 0.654172
C2    C     C_R   0.271935 0.131788 0.115152 0.654213
C3    C     C_R   0.728064 0.631790 0.384846 0.654213
C4    C     C_R   0.771926 0.368228 0.884861 0.654173
O9    O     O_R   0.059070 0.845930 0.412970 -0.540100
O10   O     O_R   0.440930 0.154070 0.912970 -0.540097
O11   O     O_R   0.559070 0.654070 0.587030 -0.540102
O12   O     O_R   0.940930 0.345930 0.087030 -0.540096
O13   O     O_R   0.888760 0.665210 0.412340 -0.537154
O14   O     O_R   0.611240 0.334790 0.912340 -0.537153
O15   O     O_R   0.388760 0.834790 0.587660 -0.537160
O16   O     O_R   0.111240 0.165210 0.087660 -0.537149
C5    C     C_R   0.227675 0.867659 0.384461 0.655440
C6    C     C_R   0.272322 0.132338 0.884464 0.655459
C7    C     C_R   0.727678 0.632341 0.615538 0.655453
C8    C     C_R   0.772325 0.367661 0.115537 0.655444
O17   O     O_3   0.222280 0.690700 0.500000 -0.373635
O18   O     O_3   0.277720 0.309300 0.000000 -0.373643
O19   O     O_3   0.722280 0.809300 0.500000 -0.373642
O20   O     O_3   0.777720 0.190700 0.000000 -0.373635
V1    V     V_3+5 0.947430 0.761000 0.500000 1.386382
V2    V     V_3+5 0.552570 0.239000 0.000000 1.386374
V3    V     V_3+5 0.447430 0.739000 0.500000 1.386361
V4    V     V_3+5 0.052570 0.261000 0.000000 1.386393
C9    C     C_3   0.845322 0.603547 0.766314 -0.119435
C10   C     C_3   0.655207 0.396367 0.266411 -0.119403
C11   C     C_3   0.344930 0.896393 0.233615 -0.119388
C12   C     C_3   0.154825 0.103575 0.733660 -0.119448
H1    H     H_    0.989833 0.620261 0.746456 0.099806
H2    H     H_    0.510633 0.379571 0.246696 0.099797
H3    H     H_    0.489489 0.879629 0.253367 0.099805
H4    H     H_    0.010303 0.120323 0.753479 0.099799
C13   C     C_3   0.855492 0.531260 0.839698 -0.347923
C14   C     C_3   0.645253 0.468622 0.339828 -0.347955
C15   C     C_3   0.354912 0.968655 0.160204 -0.347952
C16   C     C_3   0.144680 0.031294 0.660269 -0.347927
H5    H     H_    0.789104 0.557802 0.898649 0.129774
H6    H     H_    0.712382 0.442171 0.398643 0.129850
H7    H     H_    0.287930 0.942186 0.101367 0.129841
H8    H     H_    0.211217 0.057817 0.601341 0.129783
H9    H     H_    0.003872 0.518113 0.855428 0.137208
H10   H     H_    0.496945 0.481532 0.355845 0.137087
H11   H     H_    0.503220 0.981617 0.144242 0.137119
H12   H     H_    0.996301 0.018201 0.644484 0.137177
H13   H     H_    0.986339 0.492975 0.637996 0.149287
H14   H     H_    0.513161 0.506733 0.138116 0.149294
H15   H     H_    0.486693 0.006805 0.361926 0.149282
H16   H     H_    0.013513 0.993052 0.861959 0.149304
H17   H     H_    0.005108 0.387529 0.745703 0.159563
H18   H     H_    0.494121 0.611994 0.245952 0.159611
H19   H     H_    0.505684 0.112097 0.254109 0.159559
H20   H     H_    0.994689 0.887634 0.754233 0.159619
C17   C     C_3   0.843653 0.474627 0.659274 -0.337440
C18   C     C_3   0.655810 0.525256 0.159338 -0.337438
C19   C     C_3   0.344046 0.025282 0.340677 -0.337450
C20   C     C_3   0.156198 0.974656 0.840708 -0.337431
C21   C     C_3   0.541419 0.531994 0.717637 -0.316486
C22   C     C_3   0.958567 0.468251 0.217453 -0.316530
C23   C     C_3   0.041440 0.968186 0.282493 -0.316540
C24   C     C_3   0.458585 0.031926 0.782419 -0.316476
C25   C     C_3   0.738287 0.562933 0.688246 0.063492
C26   C     C_3   0.761714 0.437075 0.188241 0.063462
C27   C     C_3   0.238286 0.937071 0.311755 0.063473
C28   C     C_3   0.261714 0.062929 0.811757 0.063464
H21   H     H_    0.465479 0.499723 0.663774 0.154683
H22   H     H_    0.034186 0.500520 0.163498 0.154643
H23   H     H_    0.965729 0.000443 0.336424 0.154666
H24   H     H_    0.534425 0.999644 0.836307 0.154663
H25   H     H_    0.458390 0.592746 0.738395 0.145103
H26   H     H_    0.041903 0.407608 0.238232 0.145177
H27   H     H_    0.958197 0.907516 0.261710 0.145159
H28   H     H_    0.541707 0.092651 0.761667 0.145127
C29   C     C_3   0.760140 0.439361 0.813711 0.084973
C30   C     C_3   0.739841 0.560661 0.313694 0.084850
C31   C     C_3   0.260159 0.060658 0.186303 0.084871
C32   C     C_3   0.239861 0.939358 0.686292 0.084947
C33   C     C_3   0.856480 0.402829 0.732327 -0.313195
C34   C     C_3   0.642779 0.597009 0.232419 -0.313114
C35   C     C_3   0.357046 0.097042 0.267601 -0.313190
C36   C     C_3   0.143340 0.902863 0.767652 -0.313106
C37   C     C_3   0.554261 0.461870 0.791075 -0.305673
C38   C     C_3   0.945715 0.538470 0.290814 -0.305694
C39   C     C_3   0.054297 0.038392 0.209123 -0.305705
C40   C     C_3   0.445750 0.961788 0.708990 -0.305661
H29   H     H_    0.481779 0.490552 0.847562 0.141283
H30   H     H_    0.018819 0.510012 0.347232 0.141398
H31   H     H_    0.981333 0.009896 0.152689 0.141373
H32   H     H_    0.518376 0.990431 0.652519 0.141311
H33   H     H_    0.479984 0.397607 0.772537 0.174735
H34   H     H_    0.019360 0.602844 0.272091 0.174921
H35   H     H_    0.980524 0.102735 0.227807 0.174941
H36   H     H_    0.519894 0.897494 0.727567 0.174712
H37   H     H_    0.771302 0.443062 0.604083 0.138728
H38   H     H_    0.727866 0.556934 0.104125 0.138767
H39   H     H_    0.271905 0.056933 0.395877 0.138774
H40   H     H_    0.228456 0.943065 0.895913 0.138721
H41   H     H_    0.790157 0.336993 0.712055 0.142131
H42   H     H_    0.708422 0.662977 0.212093 0.141994
H43   H     H_    0.291259 0.162974 0.287908 0.142063
H44   H     H_    0.209517 0.836990 0.787944 0.142054
C41   C     C_1   0.761877 0.690684 0.796658 0.257134
N1    N     N_1   0.696555 0.758889 0.820601 -0.402225
C42   C     C_1   0.739000 0.309276 0.296659 0.257120
N2    N     N_1   0.804568 0.241108 0.320539 -0.402302
C43   C     C_1   0.261256 0.809288 0.203342 0.257126
N3    N     N_1   0.195777 0.741109 0.179441 -0.402321
C44   C     C_1   0.238399 0.190694 0.703342 0.257132
N4    N     N_1   0.303819 0.258886 0.679421 -0.402208

loop_
_geom_bond_atom_site_label_1
_geom_bond_atom_site_label_2
_ccdc_geom_bond_type
C24   H28   S    
C31   C35   S    
O1    C5    A    
O19   V1    S    
C15   C31   S    
C7    C25   S    
O3    C7    A    
C42   N2    T    
C10   C14   S    
C40   H32   S    
O4    V2    S    
O15   V3    S    
H20   C36   S    
C23   H23   S    
C21   H21   S    
C22   C38   S    
O7    C3    A    
C14   C30   S    
C18   C34   S    
C5    C27   S    
O9    V1    S    
C36   H44   S    
C21   C25   S    
C44   N4    T    
C22   H22   S    
C2    C31   S    
O1    V3    S    
O13   V1    S    
C18   C26   S    
O2    V4    S    
C14   H6    S    
C6    C28   S    
O3    V1    S    
H13   C17   S    
C1    O15   A    
C2    O16   A    
H15   C19   S    
O2    C6    A    
H16   C20   S    
O14   V2    S    
C11   C15   S    
C10   C26   S    
C9    C25   S    
C29   C37   S    
C16   H12   S    
O11   C7    A    
C11   C27   S    
O12   C8    A    
C10   C42   S    
C34   H42   S    
O10   V2    S    
C33   H41   S    
H18   C34   S    
C13   H9    S    
C38   H30   S    
O5    V1    S    
C3    C30   S    
C22   H26   S    
O7    V3    S    
C8    C26   S    
O8    V4    S    
C12   H4    S    
C21   H25   S    
C19   H39   S    
O18   V4    S    
H14   C18   S    
C30   C34   S    
C9    H1    S    
C17   H37   S    
C37   H33   S    
C24   C28   S    
C11   H3    S    
O5    C1    A    
O8    C4    A    
C13   C29   S    
C23   C39   S    
O9    C5    A    
C24   H24   S    
C17   C33   S    
C14   H10   S    
O6    V2    S    
C19   C27   S    
C12   C16   S    
C9    C41   S    
C40   H36   S    
C43   N3    T    
O16   V4    S    
C17   C25   S    
C20   H40   S    
C3    O13   A    
C19   C35   S    
C10   H2    S    
O17   V3    S    
C32   C36   S    
C38   H34   S    
C16   C32   S    
O6    C2    A    
O11   V3    S    
O12   V4    S    
C31   C39   S    
C21   C37   S    
C30   C38   S    
C9    C13   S    
O10   C6    A    
O20   V2    S    
C41   N1    T    
C15   H11   S    
C22   C26   S    
O4    C8    A    
C24   C40   S    
H17   C33   S    
C4    C29   S    
C11   C43   S    
C23   C27   S    
C20   C28   S    
C37   H29   S    
H19   C35   S    
C1    C32   S    
C39   H31   S    
C16   H8    S    
C35   H43   S    
C4    O14   A    
C13   H5    S    
C32   C40   S    
C39   H35   S    
C12   C44   S    
C15   H7    S    
C20   C36   S    
C23   H27   S    
C29   C33   S    
C12   C28   S    
C18   H38   S    
