data_mof_unit_2997.cif
_audit_creation_date              2012-12-10T17:23:39-0500
_audit_creation_method            fapswitch 2.2
_symmetry_space_group_name_H-M    P1
_symmetry_Int_Tables_number       1
_space_group_crystal_system       triclinic
_cell_length_a                    10.177742
_cell_length_b                    10.576759
_cell_length_c                    15.724206
_cell_angle_alpha                 90.579691
_cell_angle_beta                  80.992012
_cell_angle_gamma                 97.89452
_cell_volume                      1655.83885757

loop_
_atom_site_label
_atom_site_type_symbol
_atom_type_description
_atom_site_fract_x
_atom_site_fract_y
_atom_site_fract_z
_atom_type_partial_charge
C1    C     C_R   0.559352 0.734469 0.492253 0.793467
C2    C     C_3   0.574592 0.414557 0.963781 0.484683
C3    C     C_3   0.553653 0.620640 0.968180 -0.487356
C4    C     C_3   0.447246 0.380991 0.031674 -0.486242
C5    C     C_1   0.500414 0.501919 0.750684 -0.161564
C6    C     C_1   0.499946 0.498928 0.249255 -0.166737
C7    C     C_3   0.375014 0.471911 0.984549 0.483930
C8    C     C_3   0.625888 0.529718 0.015317 0.484067
C9    C     C_3   0.501394 0.503289 0.916735 -0.083840
C10   C     C_3   0.499500 0.498336 0.083134 -0.083203
C11   C     C_1   0.500930 0.502792 0.825909 0.104152
C12   C     C_R   0.440719 0.265307 0.508247 0.810214
C13   C     C_1   0.499738 0.498528 0.173992 0.102941
C14   C     C_2   0.603450 0.871089 0.491308 0.282273
C15   C     C_2   0.397668 0.127992 0.513012 0.284772
C16   C     C_3   0.306625 0.753274 0.023058 -0.288274
C17   C     C_3   0.694308 0.248368 0.976762 -0.286046
C18   C     C_3   0.849667 0.596602 0.966734 -0.279889
C19   C     C_3   0.151215 0.405027 0.033072 -0.279230
C20   C     C_3   0.581721 0.148979 0.645036 -0.177323
C21   C     C_3   0.436181 0.854905 0.352357 -0.197491
C22   C     C_3   0.200817 0.994582 0.517034 -0.373718
C23   C     C_2   0.517943 0.948943 0.471572 0.347308
C24   C     C_3   0.808637 0.984731 0.492318 -0.375659
C25   C     C_3   0.066752 0.268867 0.467330 -0.256635
C26   C     C_3   0.884182 0.687365 0.578722 -0.202760
C27   C     C_2   0.487472 0.053791 0.531377 0.342922
C28   C     C_2   0.924728 0.496674 0.516019 0.387516
C29   C     C_2   0.070176 0.480019 0.497614 0.425787
C30   C     C_R   0.500147 0.500785 0.661815 0.873734
C31   C     C_R   0.499936 0.499456 0.338168 0.892651
C32   C     C_3   0.426304 0.587073 0.036083 0.484207
H1    H     H_    0.596023 0.716138 0.940025 0.178382
H2    H     H_    0.764027 0.187930 0.940325 0.186582
H3    H     H_    0.832448 0.690263 0.942353 0.162716
H4    H     H_    0.849789 0.524540 0.914738 0.202019
H5    H     H_    0.951054 0.609632 0.985809 0.189957
H6    H     H_    0.151040 0.477100 0.085060 0.199864
H7    H     H_    0.168431 0.311375 0.057469 0.164010
H8    H     H_    0.049852 0.391976 0.013961 0.190141
H9    H     H_    0.672891 0.182145 0.597658 0.172359
H10   H     H_    0.616882 0.123471 0.705093 0.201251
H11   H     H_    0.518914 0.226258 0.661324 0.127784
H12   H     H_    0.404876 0.285481 0.059808 0.179651
H13   H     H_    0.405086 0.881226 0.291112 0.203886
H14   H     H_    0.343067 0.815623 0.396033 0.173058
H15   H     H_    0.504957 0.782272 0.336530 0.122933
H16   H     H_    0.155187 0.041145 0.576084 0.161160
H17   H     H_    0.243335 0.908994 0.534897 0.177989
H18   H     H_    0.119436 0.960897 0.479476 0.175473
H19   H     H_    0.778920 0.070496 0.463992 0.176658
H20   H     H_    0.856526 0.925830 0.440462 0.165670
H21   H     H_    0.884548 0.018167 0.533962 0.180185
H22   H     H_    0.956167 0.247032 0.472659 0.097349
H23   H     H_    0.124451 0.613106 0.581204 0.143020
H24   H     H_    0.096876 0.251681 0.530791 0.181136
H25   H     H_    0.110131 0.201061 0.420433 0.234185
H26   H     H_    0.901215 0.718898 0.509881 0.139549
H27   H     H_    0.965081 0.738319 0.610980 0.117804
H28   H     H_    0.789278 0.718580 0.610811 0.239990
H29   H     H_    0.882976 0.412103 0.407794 0.158396
H30   H     H_    0.251665 0.698042 0.975826 0.188986
H31   H     H_    0.393925 0.818133 0.989182 0.166692
H32   H     H_    0.236870 0.813699 0.059470 0.187034
H33   H     H_    0.607027 0.183522 0.010670 0.166262
H34   H     H_    0.749324 0.303604 0.023965 0.188738
N1    N     N_2   0.842700 0.448880 0.465440 -0.228787
N2    N     N_2   0.157300 0.551120 0.534560 -0.225055
O1    O     O_R   0.431060 0.692470 0.506960 -0.643023
O2    O     O_3   0.653552 0.328868 0.918032 -0.602921
O3    O     O_3   0.754562 0.555778 0.039566 -0.606600
O4    O     O_3   0.246362 0.445857 0.960266 -0.606078
O5    O     O_3   0.504831 0.040158 0.616870 -0.625739
O6    O     O_3   0.503006 0.965366 0.385744 -0.622919
O7    O     O_3   0.297838 0.081625 0.465451 -0.590289
O8    O     O_3   0.698457 0.912187 0.543335 -0.600439
O9    O     O_3   0.115012 0.394078 0.436494 -0.584314
O10   O     O_3   0.875493 0.554147 0.591667 -0.600348
O11   O     O_R   0.568940 0.307530 0.493040 -0.639880
O12   O     O_R   0.651120 0.659650 0.484770 -0.592508
O13   O     O_R   0.348880 0.340350 0.515230 -0.557893
O14   O     O_R   0.389990 0.516420 0.634310 -0.602917
O15   O     O_R   0.610010 0.483580 0.365690 -0.603992
O16   O     O_R   0.610050 0.483600 0.612130 -0.554224
O17   O     O_R   0.389950 0.516400 0.387870 -0.559036
O18   O     O_3   0.347333 0.672771 0.081809 -0.605319
Zn1   Zn    Zn3+2 0.353060 0.521920 0.514810 0.983807
Zn2   Zn    Zn3+2 0.646940 0.478080 0.485190 0.968948

loop_
_geom_bond_atom_site_label_1
_geom_bond_atom_site_label_2
_ccdc_geom_bond_type
C24   H20   S    
C15   O7    S    
C31   O17   A    
C22   H16   S    
C25   H24   S    
C20   H9    S    
N1    Zn2   S    
C26   O10   S    
C25   H25   S    
C25   O9    S    
C28   C29   S    
C18   H5    S    
C5    C11   T    
C3    H1    S    
O14   Zn1   S    
C12   O11   A    
C31   O15   A    
C12   O13   A    
C16   H31   S    
C23   C27   S    
C28   O10   S    
C18   H3    S    
O1    Zn1   S    
C22   H18   S    
C24   H19   S    
C6    C31   S    
C17   O2    S    
C16   O18   S    
C19   O4    S    
C16   H30   S    
C22   O7    S    
C4    C7    S    
O11   Zn2   S    
H23   N2    S    
C21   H13   S    
O17   Zn1   S    
N2    Zn1   S    
C28   N1    D    
C25   H22   S    
C3    C8    S    
C7    O4    S    
C24   O8    S    
C4    H12   S    
C24   H21   S    
C21   O6    S    
C1    O1    A    
C14   O8    S    
C14   C23   D    
C30   O14   A    
C2    C4    S    
C3    C9    S    
C19   H6    S    
C29   N2    D    
C26   H26   S    
H29   N1    S    
C15   C27   D    
C12   C15   S    
C32   O18   S    
C17   H34   S    
C9    C11   S    
O13   Zn1   S    
C19   H7    S    
C22   H17   S    
C17   H2    S    
C23   O6    S    
C4    C10   S    
C20   H11   S    
C21   H14   S    
C26   H27   S    
C18   O3    S    
C7    C9    S    
C8    O3    S    
C7    C32   S    
C2    C8    S    
O16   Zn2   S    
C10   C13   S    
C20   H10   S    
C17   H33   S    
O12   Zn2   S    
C27   O5    S    
C6    C13   T    
C18   H4    S    
C20   O5    S    
O15   Zn2   S    
C30   O16   A    
C3    C32   S    
C19   H8    S    
C10   C32   S    
C29   O9    S    
C8    C10   S    
C5    C30   S    
C1    O12   A    
C1    C14   S    
C16   H32   S    
C2    O2    S    
C2    C9    S    
C26   H28   S    
C21   H15   S    
