data_mof_unit_2661.cif
_audit_creation_date              2012-12-10T16:46:45-0500
_audit_creation_method            fapswitch 2.2
_symmetry_space_group_name_H-M    P1
_symmetry_Int_Tables_number       1
_space_group_crystal_system       triclinic
_cell_length_a                    15.861465
_cell_length_b                    8.688194
_cell_length_c                    7.450136
_cell_angle_alpha                 103.021804
_cell_angle_beta                  94.003328
_cell_angle_gamma                 92.223011
_cell_volume                      996.270785677

loop_
_atom_site_label
_atom_site_type_symbol
_atom_type_description
_atom_site_fract_x
_atom_site_fract_y
_atom_site_fract_z
_atom_type_partial_charge
C1    C     C_R   0.497486 0.199720 0.453243 0.881658
C2    C     C_3   0.953139 0.459731 0.679828 -0.382458
C3    C     C_3   0.917125 0.503351 0.499548 0.192216
C4    C     C_3   0.955951 0.668286 0.486444 -0.141254
C5    C     C_3   0.054223 0.665961 0.494408 -0.458983
C6    C     C_1   0.824667 0.501843 0.493472 -0.069051
C7    C     C_1   0.175469 0.499882 0.509328 -0.103456
C8    C     C_1   0.250965 0.499887 0.508045 -0.167617
C9    C     C_2   0.496287 0.031801 0.426980 -0.362081
C10   C     C_2   0.503732 0.968200 0.573020 -0.358465
C11   C     C_R   0.340359 0.499712 0.502657 0.823162
C12   C     C_R   0.502522 0.800280 0.546756 0.884577
C13   C     C_R   0.659644 0.500334 0.497381 0.829402
C14   C     C_3   0.051565 0.463639 0.688983 -0.110004
C15   C     C_3   0.041691 0.378138 0.335940 -0.338547
C16   C     C_3   0.944020 0.377248 0.333839 -0.373745
C17   C     C_1   0.749077 0.500834 0.492574 -0.136425
C18   C     C_3   0.083156 0.500008 0.507810 0.253486
Cu1   Cu    Cu3+1 0.509300 0.517380 0.684380 0.962174
Cu2   Cu    Cu3+1 0.490700 0.482620 0.315620 0.959265
H1    H     H_    0.925859 0.340916 0.685079 0.221834
H2    H     H_    0.075854 0.562757 0.806271 0.080421
H3    H     H_    0.932695 0.543292 0.803245 0.124775
H4    H     H_    0.933228 0.689829 0.349622 0.165376
H5    H     H_    0.489272 0.960160 0.286261 0.179444
H6    H     H_    0.510748 0.039841 0.713739 0.180125
H7    H     H_    0.434912 0.376802 0.948700 0.225530
H8    H     H_    0.565083 0.623205 0.051301 0.229728
H9    H     H_    0.061723 0.409091 0.207527 0.145969
H10   H     H_    0.063101 0.257567 0.334016 0.213295
H11   H     H_    0.918504 0.257556 0.340191 0.209517
H12   H     H_    0.917354 0.401308 0.201256 0.160864
H13   H     H_    0.084500 0.756911 0.613955 0.177761
H14   H     H_    0.076577 0.696849 0.367816 0.177092
N1    N     N_2   0.476670 0.456430 0.038530 -0.216206
N2    N     N_2   0.523330 0.543570 0.961470 -0.214064
O1    O     O_R   0.506050 0.286130 0.619770 -0.584518
O2    O     O_R   0.490330 0.256780 0.308370 -0.585876
O3    O     O_R   0.387300 0.514690 0.655770 -0.586303
O4    O     O_R   0.371580 0.485340 0.344370 -0.577126
O5    O     O_R   0.509670 0.743220 0.691630 -0.584816
O6    O     O_R   0.493950 0.713870 0.380230 -0.585350
O7    O     O_R   0.628420 0.514660 0.655630 -0.572692
O8    O     O_R   0.612700 0.485310 0.344230 -0.582856
C19   C     C_2   0.085557 0.314844 0.733457 0.342174
H15   H     H_    0.134996 0.324758 0.844426 0.060633
O9    O     O_2   0.059627 0.183649 0.644731 -0.538197
C20   C     C_2   0.928790 0.802524 0.634431 0.416611
H16   H     H_    0.947784 0.809856 0.778994 0.066079
O10   O     O_2   0.885991 0.904836 0.592561 -0.533079

loop_
_geom_bond_atom_site_label_1
_geom_bond_atom_site_label_2
_ccdc_geom_bond_type
C15   C18   S    
Cu2   O6    S    
C12   O5    A    
C1    O1    A    
C16   H12   S    
Cu2   O2    S    
C9    C10   D    
C14   C18   S    
Cu1   Cu2   S    
C13   C17   S    
C7    C18   S    
C5    H14   S    
C10   H6    S    
C2    H1    S    
C20   O10   D    
C2    C3    S    
C2    C14   S    
C9    H5    S    
C7    C8    T    
C19   H15   S    
C16   H11   S    
C11   O3    A    
C14   H2    S    
C10   C12   S    
C1    O2    A    
C8    C11   S    
Cu2   O4    S    
Cu1   O3    S    
C20   H16   S    
Cu2   O8    S    
Cu1   O7    S    
C15   H9    S    
C14   C19   S    
Cu1   N2    S    
C19   O9    D    
C11   O4    A    
C4    H4    S    
C3    C16   S    
C15   C16   S    
Cu1   O5    S    
C13   O7    A    
C1    C9    S    
H8    N2    S    
C15   H10   S    
C4    C20   S    
C3    C6    S    
C2    H3    S    
C6    C17   T    
C12   O6    A    
C5    C18   S    
Cu1   O1    S    
H7    N1    S    
Cu2   N1    S    
C13   O8    A    
C3    C4    S    
N1    N2    D    
C4    C5    S    
C5    H13   S    
