data_mof_unit_2304.cif
_audit_creation_date              2012-12-11T19:42:23-0500
_audit_creation_method            fapswitch 2.2
_symmetry_space_group_name_H-M    P1
_symmetry_Int_Tables_number       1
_space_group_crystal_system       triclinic
_cell_length_a                    8.188141
_cell_length_b                    15.168451
_cell_length_c                    26.92204
_cell_angle_alpha                 98.651517
_cell_angle_beta                  92.586496
_cell_angle_gamma                 81.034375
_cell_volume                      3264.51437971

loop_
_atom_site_label
_atom_site_type_symbol
_atom_type_description
_atom_site_fract_x
_atom_site_fract_y
_atom_site_fract_z
_atom_type_partial_charge
Ba1   Ba    Ba6+2 0.860050 0.456430 0.522530 1.671851
Ba2   Ba    Ba6+2 0.329780 0.543490 0.477460 1.660716
C1    C     C_3   0.671542 0.139509 0.649453 -0.014061
C2    C     C_R   0.940275 0.596660 0.183853 0.600755
C3    C     C_2   0.763238 0.566055 0.273740 -0.091685
C4    C     C_3   0.221129 0.264451 0.653373 0.421486
C5    C     C_3   0.736086 0.591820 0.329508 -0.060758
C6    C     C_1   0.985516 0.484789 0.342830 0.042426
C7    C     C_2   0.028741 0.478918 0.295040 -0.077657
C8    C     C_2   0.911070 0.520194 0.257160 0.210557
C9    C     C_R   0.043922 0.514349 0.103742 -0.082407
C10   C     C_R   0.068899 0.434417 0.125713 -0.029566
C11   C     C_R   0.138781 0.353869 0.096605 -0.050555
C12   C     C_3   0.691921 0.228625 0.632531 0.385993
C13   C     C_R   0.980053 0.595874 0.133192 -0.058159
C14   C     C_2   0.846775 0.532801 0.361145 -0.277067
C15   C     C_2   0.357540 0.483086 0.640320 -0.273652
C16   C     C_3   0.236964 0.241256 0.706729 -0.095776
C17   C     C_R   0.213280 0.432325 0.974157 0.020919
C18   C     C_R   0.068560 0.587459 0.977126 0.030915
C19   C     C_R   0.159634 0.509184 0.950099 0.053078
C20   C     C_R   0.315193 0.358660 0.946945 -0.096367
C21   C     C_R   0.357916 0.359812 0.897406 -0.053212
C22   C     C_R   0.297255 0.433356 0.872289 -0.030299
C23   C     C_3   0.413608 0.789528 0.636443 0.422147
C24   C     C_R   0.195201 0.507485 0.898371 -0.078146
C25   C     C_R   0.128055 0.579865 0.872818 -0.040579
C26   C     C_R   0.166134 0.577904 0.821780 0.600383
C27   C     C_R   0.336634 0.434178 0.821669 0.573074
C28   C     C_3   0.221872 0.264807 0.410710 0.306928
C29   C     C_2   0.467998 0.492090 0.728726 -0.080878
C30   C     C_3   0.508164 0.493178 0.674114 -0.026037
C31   C     C_1   0.210633 0.519753 0.657247 0.039209
C32   C     C_2   0.173144 0.519633 0.704806 -0.111828
C33   C     C_2   0.308632 0.504854 0.743820 0.197044
C34   C     C_3   0.454033 0.881990 0.660288 -0.354134
C35   C     C_R   0.162470 0.431737 0.024249 0.026758
C36   C     C_R   0.084737 0.513045 0.052474 0.033736
C37   C     C_R   0.050355 0.593428 0.030105 -0.002829
C38   C     C_R   0.186031 0.352589 0.047238 -0.093857
C39   C     C_R   0.965015 0.676141 0.112320 -0.044395
C40   C     C_3   0.282498 0.164794 0.391990 -0.133421
C41   C     C_R   0.989621 0.654457 0.949410 -0.063572
C42   C     C_R   0.020859 0.651711 0.898607 -0.044071
C43   C     C_R   0.004202 0.676290 0.062367 0.138262
C44   C     C_R   0.844169 0.830591 0.463515 -0.015998
C45   C     C_3   0.945267 0.796195 0.347382 0.283527
C46   C     C_R   0.777432 0.923730 0.467844 -0.018894
C47   C     C_R   0.641643 0.110794 0.479558 -0.030260
C48   C     C_R   0.786806 0.076889 0.452407 -0.039766
C49   C     C_R   0.855198 0.985821 0.447555 -0.125655
C50   C     C_R   0.576092 0.204286 0.486855 0.039827
C51   C     C_R   0.430886 0.233236 0.513824 -0.308746
C52   C     C_3   0.972066 0.737794 0.592060 0.314571
C53   C     C_R   0.617862 0.802743 0.511424 0.024528
C54   C     C_R   0.547547 0.894211 0.514665 -0.031190
C55   C     C_R   0.627565 0.955553 0.493736 0.041401
C56   C     C_3   0.975086 0.821102 0.296329 -0.287707
C57   C     C_R   0.398393 0.925539 0.538493 -0.090075
C58   C     C_R   0.329434 0.015229 0.545079 0.104284
C59   C     C_R   0.408553 0.079637 0.526250 -0.026874
C60   C     C_R   0.559500 0.048949 0.500034 -0.023522
C61   C     C_R   0.343017 0.172683 0.531766 0.005462
C62   C     C_R   0.760225 0.771507 0.483977 -0.246405
C63   C     C_3   0.925287 0.836635 0.614797 -0.159475
C64   C     C_3   0.695893 0.344208 0.372196 0.292683
C65   C     C_3   0.709082 0.321547 0.315402 -0.362267
C66   C     C_3   0.476653 0.783385 0.363968 0.428264
C67   C     C_3   0.429267 0.870878 0.342067 -0.337391
C68   C     C_R   0.023119 0.436686 0.176252 0.597100
H1    H     H_    0.817493 0.222951 0.617662 0.117474
H2    H     H_    0.818136 0.269221 0.305649 0.130979
H3    H     H_    0.722839 0.382642 0.298933 0.070036
H4    H     H_    0.595460 0.296004 0.299037 0.136050
H5    H     H_    0.599883 0.240034 0.601870 -0.069057
H6    H     H_    0.667092 0.087339 0.615978 0.018148
H7    H     H_    0.302834 0.799794 0.611779 0.027256
H8    H     H_    0.502691 0.916685 0.632078 0.084663
H9    H     H_    0.341016 0.924712 0.676627 0.110732
H10   H     H_    0.549861 0.874649 0.690545 0.139596
H11   H     H_    0.554433 0.146453 0.669744 0.083527
H12   H     H_    0.395775 0.158591 0.369669 0.118277
H13   H     H_    0.344092 0.269210 0.726101 0.124129
H14   H     H_    0.912721 0.727111 0.342067 0.025430
H15   H     H_    0.841093 0.845814 0.364244 -0.024517
H16   H     H_    0.076654 0.772265 0.277354 0.169407
H17   H     H_    0.860380 0.820379 0.272766 0.123490
H18   H     H_    0.009076 0.889988 0.300857 0.099160
H19   H     H_    0.613800 0.770148 0.366510 -0.157458
H20   H     H_    0.427504 0.792771 0.402498 0.078386
H21   H     H_    0.482856 0.925993 0.366054 0.064177
H22   H     H_    0.293004 0.889702 0.340504 0.151987
H23   H     H_    0.315646 0.128325 0.424573 0.053076
H24   H     H_    0.162380 0.335690 0.654258 0.044083
H25   H     H_    0.478070 0.862979 0.303569 0.116880
H26   H     H_    0.151011 0.445792 0.283350 0.122079
H27   H     H_    0.158585 0.291032 0.112088 0.130546
H28   H     H_    0.569007 0.485059 0.756076 0.108372
H29   H     H_    0.437706 0.301864 0.878550 0.132334
H30   H     H_    0.368040 0.299974 0.963587 0.080311
H31   H     H_    0.236589 0.287678 0.027310 0.081384
H32   H     H_    0.673639 0.596110 0.247817 0.110130
H33   H     H_    0.928611 0.740363 0.135621 0.150877
H34   H     H_    0.861414 0.710666 0.575367 0.018892
H35   H     H_    0.896752 0.707716 0.966093 0.121343
H36   H     H_    0.347221 0.256995 0.638553 -0.134763
H37   H     H_    0.959440 0.706088 0.879478 0.134267
H38   H     H_    0.044958 0.530924 0.715787 0.126661
H39   H     H_    0.825174 0.544193 0.401235 0.076833
H40   H     H_    0.370165 0.446910 0.602333 0.071229
H41   H     H_    0.850932 0.120183 0.434810 0.096386
H42   H     H_    0.969047 0.964657 0.427304 0.096861
H43   H     H_    0.329709 0.881161 0.553056 0.080979
H44   H     H_    0.381368 0.304319 0.518983 0.070118
H45   H     H_    0.065747 0.731166 0.562757 0.048206
H46   H     H_    0.811863 0.700886 0.481382 0.052090
H47   H     H_    0.261262 0.166727 0.705423 0.133926
H48   H     H_    0.328337 0.296482 0.427268 -0.018248
H49   H     H_    0.128090 0.270234 0.439866 0.049202
H50   H     H_    0.044036 0.138397 0.379330 0.182864
H51   H     H_    0.142612 0.146616 0.326948 0.222237
H52   H     H_    0.001537 0.885726 0.555424 0.169877
H53   H     H_    0.871840 0.960616 0.592990 0.209999
H54   H     H_    0.348071 0.678216 0.659166 0.159114
H55   H     H_    0.474773 0.729871 0.699786 0.186303
H56   H     H_    0.813027 0.844091 0.637591 0.145126
H57   H     H_    0.085590 0.012189 0.547238 0.187212
H58   H     H_    0.186331 0.009243 0.604089 0.178780
H59   H     H_    0.079780 0.348269 0.741853 0.183049
H60   H     H_    0.099216 0.255240 0.769351 0.211986
H61   H     H_    0.027023 0.858927 0.640100 0.129979
H62   H     H_    0.812615 0.365408 0.388119 0.007214
H63   H     H_    0.592563 0.400367 0.380837 0.082893
I1    I     I_    0.871672 0.094125 0.697539 -0.429991
I2    I     I_    0.036453 0.806495 0.046754 -0.432093
N1    N     N_R   0.958336 0.517372 0.204907 -0.421701
N2    N     N_R   0.269996 0.505588 0.796545 -0.427439
N3    N     N_3   0.157188 0.121496 0.361243 -0.490247
N4    N     N_3   0.893371 0.893635 0.575722 -0.546441
N5    N     N_3   0.371223 0.741668 0.676113 -0.460966
N6    N     N_3   0.176741 0.037895 0.570873 -0.450258
N7    N     N_3   0.086414 0.278119 0.734428 -0.417256
O1    O     O_2   0.906480 0.548660 0.619050 -0.455560
O2    O     O_2   0.185782 0.821984 0.470369 -0.498608
O3    O     O_3   0.089717 0.799353 0.377138 -0.578148
O4    O     O_3   0.138490 0.548590 0.558870 -0.490744
O5    O     O_3   0.572560 0.389960 0.472890 -0.487065
O6    O     O_2   0.345660 0.723580 0.528500 -0.485128
O7    O     O_3   0.553755 0.739193 0.611509 -0.641649
O8    O     O_2   0.417297 0.536941 0.323590 -0.484059
O9    O     O_3   0.410441 0.712786 0.333472 -0.564670
O10   O     O_2   0.039409 0.366630 0.194424 -0.593696
O11   O     O_2   0.429943 0.370872 0.799955 -0.595102
O12   O     O_3   0.667357 0.267440 0.391502 -0.646071
O13   O     O_2   0.890917 0.668614 0.209445 -0.622536
O14   O     O_2   0.108954 0.641506 0.800129 -0.579390
O15   O     O_3   0.686300 0.382310 0.585700 -0.485500
O16   O     O_2   0.851623 0.423458 0.670475 -0.488799
O17   O     O_3   0.037317 0.692068 0.631171 -0.630590
O18   O     O_3   0.665222 0.299536 0.672840 -0.580770
O19   O     O_2   0.844040 0.276390 0.471470 -0.474270
O20   O     O_3   0.101510 0.335500 0.560330 -0.491254
O21   O     O_2   0.993933 0.181787 0.533007 -0.478682
O22   O     O_3   0.126202 0.206374 0.623501 -0.563889
O23   O     O_2   0.283210 0.451310 0.380920 -0.456818
O24   O     O_3   0.051220 0.451340 0.441120 -0.497859
O25   O     O_3   0.503410 0.617620 0.414290 -0.476040
O26   O     O_3   0.153684 0.307024 0.370272 -0.636141
O27   O     O_3   0.617150 0.609960 0.527100 -0.447658
O28   O     O_3   0.088210 0.664420 0.439670 -0.461177
P1    P     P_3+3 0.071950 0.575820 0.612140 1.016165
P2    P     P_3+3 0.664370 0.290050 0.457240 0.968851
P3    P     P_3+3 0.141430 0.221522 0.560785 0.979540
P4    P     P_3+3 0.117760 0.424110 0.387850 0.992088
P5    P     P_3+3 0.049482 0.780777 0.437618 0.952857
P6    P     P_3+3 0.679304 0.401830 0.651246 1.005328
P7    P     P_3+3 0.532533 0.723136 0.545349 0.943306
P8    P     P_3+3 0.516206 0.610991 0.349210 0.978884

loop_
_geom_bond_atom_site_label_1
_geom_bond_atom_site_label_2
_ccdc_geom_bond_type
C21   H29   S    
C53   C54   A    
C45   O3    S    
O6    P7    D    
C62   H46   S    
C40   N3    S    
C40   H23   S    
C53   P7    S    
C12   H1    S    
C40   H12   S    
C19   C24   A    
C56   H17   S    
C50   P2    S    
C46   C55   A    
O20   P3    S    
C28   H48   S    
C50   C51   A    
Ba2   O23   S    
O26   P4    S    
C30   P6    S    
C24   C25   A    
C49   H42   S    
O17   P1    S    
C23   H7    S    
C45   H15   S    
C52   H34   S    
C17   C19   A    
C8    N1    S    
H52   N4    S    
C65   H2    S    
C35   C38   A    
H57   N6    S    
C36   C37   A    
C6    P4    S    
C28   H49   S    
Ba2   O6    S    
H53   N4    S    
C54   C55   A    
C23   O7    S    
C32   C33   S    
C41   H35   S    
C29   H28   S    
C59   C61   A    
C22   C27   A    
C11   C38   A    
C17   C35   A    
C38   H31   S    
O19   P2    D    
C9    C13   A    
C25   C42   A    
C46   C49   A    
O3    P5    S    
C66   C67   S    
C4    H24   S    
C1    H11   S    
C66   H20   S    
C21   C22   A    
C65   H3    S    
C67   H22   S    
H58   N6    S    
Ba2   O24   S    
C37   C43   A    
C64   C65   S    
C52   O17   S    
Ba1   O19   S    
C57   C58   A    
C6    C14   D    
O4    P1    S    
C15   H40   S    
C68   N1    Am   
O18   P6    S    
Ba1   O4    S    
C15   C31   D    
C56   H16   S    
O27   P7    S    
C63   H61   S    
C14   H39   S    
C61   P3    S    
C64   H62   S    
O28   P5    S    
H55   N5    S    
C4    C16   S    
C44   C46   A    
C43   I2    S    
O24   P4    S    
O12   P2    S    
C16   N7    S    
C23   N5    S    
C20   H30   S    
C13   C39   A    
C34   H10   S    
C52   C63   S    
C18   C37   A    
C6    C7    D    
O9    P8    S    
H59   N7    S    
C23   C34   S    
C55   C60   A    
O23   P4    D    
Ba1   P1    S    
C39   H33   S    
C5    P8    S    
C12   O18   S    
C58   C59   A    
H51   N3    S    
C9    C36   A    
C64   O12   S    
C41   C42   A    
C35   C36   A    
Ba1   O1    S    
C58   N6    S    
C64   H63   S    
C29   C30   S    
C16   H47   S    
C57   H43   S    
C47   C50   A    
C52   H45   S    
C17   C20   A    
O7    P7    S    
C16   H13   S    
C4    H36   S    
C68   O10   D    
O22   P3    S    
C48   C49   A    
C65   H4    S    
C45   H14   S    
C18   C19   A    
C1    H6    S    
C7    H26   S    
C1    C12   S    
Ba2   O28   S    
O16   P6    D    
C5    C14   S    
C4    O22   S    
Ba1   O20   S    
C47   C48   A    
C29   C33   D    
Ba1   O5    S    
H50   N3    S    
O21   P3    D    
C18   C41   A    
C51   H44   S    
C3    C5    S    
C7    C8    S    
C42   H37   S    
C10   C68   A    
C3    H32   S    
C47   C60   A    
C44   P5    S    
H54   N5    S    
C26   N2    Am   
C22   C24   A    
C67   H25   S    
C34   H9    S    
C56   H18   S    
C9    C10   A    
C53   C62   A    
Ba2   O4    S    
C27   N2    Am   
Ba1   P2    S    
C54   C57   A    
C2    N1    Am   
C1    I1    S    
C32   H38   S    
C63   H56   S    
C2    C13   A    
Ba1   O15   S    
Ba2   O5    S    
C27   O11   D    
O1    P1    D    
C3    C8    D    
C66   O9    S    
C34   H8    S    
O8    P8    D    
C33   N2    S    
C45   C56   S    
C51   C61   A    
Ba1   O24   S    
Ba1   Ba2   S    
O2    P5    D    
Ba1   O27   S    
C48   H41   S    
C31   C32   D    
C11   H27   S    
C59   C60   A    
H60   N7    S    
Ba2   O27   S    
O15   P6    S    
C28   O26   S    
C63   N4    S    
O25   P8    S    
C10   C11   A    
O5    P2    S    
C2    O13   D    
C44   C62   A    
C25   C26   A    
C26   O14   D    
C15   C30   S    
C39   C43   A    
C20   C21   A    
C28   C40   S    
C66   H19   S    
C67   H21   S    
Ba2   O25   S    
Ba2   P4    S    
C12   H5    S    
C31   P1    S    
