data_mof_unit_1137.cif
_audit_creation_date              2012-12-10T18:11:08-0500
_audit_creation_method            fapswitch 2.2
_symmetry_space_group_name_H-M    P1
_symmetry_Int_Tables_number       1
_space_group_crystal_system       triclinic
_cell_length_a                    10.738785
_cell_length_b                    9.416112
_cell_length_c                    10.63288
_cell_angle_alpha                 89.888646
_cell_angle_beta                  90.172279
_cell_angle_gamma                 89.911458
_cell_volume                      1075.16314676

loop_
_atom_site_label
_atom_site_type_symbol
_atom_type_description
_atom_site_fract_x
_atom_site_fract_y
_atom_site_fract_z
_atom_type_partial_charge
C1    C     C_R   0.259694 0.499974 0.501059 0.824157
C2    C     C_3   0.501790 0.500226 0.122313 -0.010367
C3    C     C_3   0.072457 0.583992 0.616721 -0.430132
C4    C     C_3   0.070814 0.346064 0.517988 -0.471898
C5    C     C_3   0.928428 0.587830 0.614196 -0.384912
C6    C     C_3   0.928435 0.345639 0.513864 -0.398548
C7    C     C_3   0.070847 0.575743 0.376994 0.944066
C8    C     C_3   0.121664 0.500233 0.500489 0.056223
C9    C     C_3   0.877873 0.499559 0.501665 0.068355
C10   C     C_3   0.925212 0.566038 0.376937 -0.461920
C11   C     C_3   0.619652 0.083444 0.550712 -0.186952
C12   C     C_3   0.619611 0.915985 0.550858 -0.188293
C13   C     C_3   0.399923 0.083797 0.583535 -0.191611
C14   C     C_3   0.399805 0.916160 0.583389 -0.193068
C15   C     C_3   0.480921 0.083862 0.374726 -0.183771
C16   C     C_3   0.481074 0.916690 0.374712 -0.187413
C17   C     C_R   0.500525 0.500126 0.259258 0.854710
C18   C     C_R   0.740021 0.499792 0.501687 0.810184
C19   C     C_R   0.500407 0.499817 0.740702 0.789799
C20   C     C_3   0.506935 0.634657 0.040455 -0.170986
C21   C     C_3   0.397046 0.437935 0.041385 -0.181508
C22   C     C_3   0.401849 0.572225 0.957646 -0.152385
C23   C     C_3   0.501330 0.499379 0.877341 -0.009004
C24   C     C_3   0.606573 0.561649 0.957665 -0.182691
C25   C     C_3   0.496317 0.364980 0.958732 -0.174080
C26   C     C_3   0.600676 0.427713 0.041370 0.171271
Cu1   Cu    Cu3+1 0.499860 0.642410 0.500060 0.913050
Cu2   Cu    Cu3+1 0.499860 0.357590 0.500060 0.905708
H1    H     H_    0.320158 0.631315 0.920250 0.124236
H2    H     H_    0.884252 0.674267 0.367951 0.165656
H3    H     H_    0.887921 0.507854 0.294767 0.170418
H4    H     H_    0.638246 0.123319 0.647380 0.143950
H5    H     H_    0.637964 0.875867 0.647652 0.140565
H6    H     H_    0.698135 0.120248 0.491129 0.149478
H7    H     H_    0.698286 0.878990 0.491569 0.145785
H8    H     H_    0.410799 0.122591 0.681648 0.139826
H9    H     H_    0.410404 0.876709 0.681467 0.139286
H10   H     H_    0.391296 0.123449 0.335084 0.134067
H11   H     H_    0.391616 0.877398 0.334920 0.152428
H12   H     H_    0.555728 0.121699 0.310819 0.174248
H13   H     H_    0.556053 0.878942 0.310954 0.144126
H14   H     H_    0.307480 0.121899 0.550442 0.141872
H15   H     H_    0.307392 0.878647 0.550006 0.167645
H16   H     H_    0.511115 0.745241 0.076266 0.133715
H17   H     H_    0.312206 0.385314 0.076916 0.147361
H18   H     H_    0.692435 0.611798 0.920424 0.135177
H19   H     H_    0.492129 0.254354 0.922996 0.142636
H20   H     H_    0.109291 0.694302 0.618976 0.199487
H21   H     H_    0.108726 0.269010 0.449677 0.175922
H22   H     H_    0.104859 0.532639 0.705423 0.156832
H23   H     H_    0.101533 0.304132 0.611130 0.182617
H24   H     H_    0.891609 0.544719 0.704249 0.164071
H25   H     H_    0.892564 0.295671 0.601592 0.181103
H26   H     H_    0.896488 0.700024 0.606341 0.176821
H27   H     H_    0.895506 0.279213 0.434102 0.183769
N1    N     N_3   0.500250 0.143650 0.502780 -0.116953
N2    N     N_3   0.500250 0.856350 0.502780 -0.117025
O1    O     O_R   0.317570 0.620260 0.500070 -0.562780
O2    O     O_R   0.317570 0.379740 0.500070 -0.608580
O3    O     O_R   0.499850 0.620240 0.316900 -0.595704
O4    O     O_R   0.499850 0.379760 0.316900 -0.582449
O5    O     O_R   0.682190 0.620260 0.500030 -0.603391
O6    O     O_R   0.682190 0.379740 0.500030 -0.589262
O7    O     O_R   0.499910 0.620280 0.683200 -0.597863
O8    O     O_R   0.499910 0.379720 0.683200 -0.595344
I1    I     I_    0.756339 0.306756 0.106361 -0.563351
O9    O     O_3   0.102300 0.722757 0.389231 -0.617233
C27   C     C_3   0.098604 0.797924 0.273813 -0.289768
H28   H     H_    0.016690 0.769418 0.214842 0.167509
H29   H     H_    0.185953 0.779475 0.220468 0.194927
H30   H     H_    0.092715 0.913187 0.294406 0.153400
O10   O     O_3   0.128541 0.523415 0.264234 -0.610586
C28   C     C_3   0.102516 0.382002 0.229040 -0.427652
H31   H     H_    0.015998 0.336852 0.267141 0.187844
H32   H     H_    0.182739 0.313308 0.254643 0.171384
H33   H     H_    0.092726 0.378559 0.125249 0.211796

loop_
_geom_bond_atom_site_label_1
_geom_bond_atom_site_label_2
_ccdc_geom_bond_type
C7    C10   S    
C22   H1    S    
C1    C8    S    
C28   H31   S    
C6    H27   S    
C4    C8    S    
C6    C9    S    
Cu2   N1    S    
C7    C8    S    
C24   C26   S    
Cu1   O3    S    
C1    O2    A    
C18   O6    A    
C15   C16   S    
C3    H20   S    
C17   O4    A    
C10   H3    S    
C20   C24   S    
C27   H28   S    
C23   C24   S    
C5    H24   S    
C9    C10   S    
C25   H19   S    
C13   N1    S    
Cu2   O4    S    
C13   C14   S    
C2    C17   S    
C28   H32   S    
C13   H14   S    
C20   H16   S    
C3    H22   S    
C21   H17   S    
C4    H23   S    
C2    C20   S    
O9    C27   S    
C26   I1    S    
C5    H26   S    
C13   H8    S    
C4    C6    S    
C3    C8    S    
Cu1   N2    S    
C7    O10   S    
C18   O5    A    
C17   O3    A    
C25   C26   S    
C19   C23   S    
C15   H10   S    
C5    C9    S    
Cu1   O5    S    
C10   H2    S    
C19   O7    A    
C2    C21   S    
C2    C26   S    
C12   H7    S    
C12   N2    S    
C20   C22   S    
C11   H4    S    
C28   H33   S    
C6    H25   S    
Cu2   O2    S    
C14   N2    S    
C21   C25   S    
C11   H6    S    
O10   C28   S    
C3    C5    S    
Cu1   O1    S    
C11   C12   S    
C4    H21   S    
C24   H18   S    
C15   N1    S    
Cu2   O8    S    
C1    O1    A    
C14   H9    S    
C27   H30   S    
C19   O8    A    
C16   N2    S    
C23   C25   S    
C15   H12   S    
Cu1   O7    S    
C16   H11   S    
C7    O9    S    
Cu2   O6    S    
C9    C18   S    
C27   H29   S    
Cu1   Cu2   S    
C22   C23   S    
C12   H5    S    
C21   C22   S    
C16   H13   S    
C11   N1    S    
C14   H15   S    
