data_mof_unit_3738.cif
_audit_creation_date              2013-03-05T16:01:26-0500
_audit_creation_method            fapswitch 2.2
_symmetry_space_group_name_H-M    P1
_symmetry_Int_Tables_number       1
_space_group_crystal_system       triclinic
_cell_length_a                    14.655936
_cell_length_b                    14.720248
_cell_length_c                    19.406223
_cell_angle_alpha                 74.784501
_cell_angle_beta                  102.98909
_cell_angle_gamma                 115.580004
_cell_volume                      3613.94178147

loop_
_atom_site_label
_atom_site_type_symbol
_atom_site_description
_atom_site_fract_x
_atom_site_fract_y
_atom_site_fract_z
_atom_type_partial_charge
O1    O     O_R   0.977910 0.338110 0.524620 -0.545589
O2    O     O_R   0.022090 0.661890 0.475380 -0.584037
O3    O     O_R   0.839850 0.379180 0.493080 -0.564215
O4    O     O_R   0.160150 0.620820 0.506920 -0.548890
C1    C     C_R   0.879797 0.311692 0.506381 0.861910
C2    C     C_R   0.120109 0.688593 0.487152 0.955585
O5    O     O_R   0.069040 0.479450 0.615630 -0.588705
O6    O     O_R   0.930960 0.520550 0.384370 -0.548106
O7    O     O_R   0.930990 0.520520 0.584090 -0.532570
O8    O     O_R   0.069010 0.479480 0.415910 -0.549454
C3    C     C_R   0.001936 0.503184 0.632399 0.867520
C4    C     C_R   0.997142 0.495584 0.367684 0.897827
Cu1   Cu    Cu3+1 0.081740 0.475680 0.518680 1.056567
Cu2   Cu    Cu3+1 0.918260 0.524320 0.481320 1.067554
C5    C     C_R   0.099038 0.529199 0.755783 0.297283
C6    C     C_R   0.951156 0.544868 0.233605 0.335002
C7    C     C_R   0.098480 0.518694 0.829706 -0.186405
C8    C     C_R   0.959610 0.546332 0.163249 -0.159460
H1    H     H_    0.169632 0.535050 0.865518 0.205471
H2    H     H_    0.928128 0.591762 0.119427 0.201772
C9    C     C_R   0.008426 0.494181 0.856919 -0.079484
C10   C     C_R   0.005880 0.489377 0.148632 -0.077312
C11   C     C_R   0.917943 0.479285 0.809868 -0.170621
C12   C     C_R   0.042842 0.428264 0.205546 -0.187591
H3    H     H_    0.848030 0.462332 0.830088 0.202531
H4    H     H_    0.073755 0.379845 0.193921 0.204429
C13   C     C_R   0.915536 0.486908 0.736419 0.324892
C14   C     C_R   0.033282 0.423111 0.277075 0.294298
C15   C     C_R   0.005755 0.508447 0.708471 -0.249377
C16   C     C_R   0.992226 0.486659 0.292177 -0.240096
N1    N     N_R   0.936251 0.509672 0.953047 -0.209612
N2    N     N_R   0.080037 0.469511 0.053904 -0.210264
N3    N     N_R   0.935864 0.508825 0.021523 -0.207789
N4    N     N_R   0.080898 0.471160 0.985020 -0.209416
C17   C     C_R   0.007586 0.488825 0.073267 0.461872
C18   C     C_R   0.008754 0.491163 0.933354 0.462141
C19   C     C_R   0.811352 0.202807 0.500952 -0.283496
C20   C     C_R   0.188096 0.798643 0.474927 -0.290220
C21   C     C_R   0.775023 0.018597 0.531563 0.045608
C22   C     C_R   0.229351 0.976918 0.480850 0.048117
C23   C     C_R   0.841868 0.121012 0.536277 0.344254
C24   C     C_R   0.164646 0.871220 0.495270 0.293610
C25   C     C_R   0.714786 0.179587 0.457989 0.199507
C26   C     C_R   0.278699 0.831557 0.444167 0.215840
C27   C     C_R   0.639673 0.077979 0.469020 -0.028738
C28   C     C_R   0.355006 0.929320 0.451726 -0.016598
C29   C     C_R   0.671927 0.996659 0.501758 0.047955
C30   C     C_R   0.324750 0.005660 0.457511 0.050160
C31   C     C_R   0.532759 0.055431 0.451822 0.105834
C32   C     C_R   0.461086 0.951896 0.459247 0.130760
C33   C     C_R   0.496847 0.873040 0.484448 -0.118947
C34   C     C_R   0.494488 0.132463 0.436824 -0.156623
C35   C     C_R   0.599768 0.894859 0.505631 -0.167834
C36   C     C_R   0.393678 0.108273 0.443476 -0.179401
H5    H     H_    0.620931 0.830230 0.528388 0.161417
H6    H     H_    0.371714 0.170892 0.439964 0.175004
H7    H     H_    0.444672 0.793248 0.493922 0.164568
H8    H     H_    0.542823 0.212351 0.427945 0.197529
N5    N     N_R   0.795420 0.560800 0.453240 -0.178361
N6    N     N_R   0.204580 0.439200 0.546760 -0.179214
C37   C     C_R   0.701854 0.650394 0.367911 -0.214695
C38   C     C_R   0.282399 0.324953 0.618387 -0.218776
C39   C     C_R   0.793168 0.638753 0.396172 0.381204
C40   C     C_R   0.207861 0.364109 0.606100 0.397414
C41   C     C_R   0.710893 0.502396 0.487678 0.094871
C42   C     C_R   0.279851 0.480988 0.502979 0.020771
C43   C     C_R   0.614726 0.509786 0.459936 -0.023552
C44   C     C_R   0.356273 0.440983 0.512393 -0.018688
C45   C     C_R   0.613208 0.586367 0.398719 0.058067
C46   C     C_R   0.355848 0.362468 0.572372 0.061236
C47   C     C_R   0.521859 0.449112 0.492026 0.043530
C48   C     C_R   0.435966 0.478822 0.467581 0.030982
C49   C     C_R   0.433658 0.543247 0.398831 0.120071
C50   C     C_R   0.508932 0.359494 0.546458 0.175136
C51   C     C_R   0.523220 0.599187 0.367501 -0.141846
C52   C     C_R   0.428286 0.320319 0.586819 -0.160397
H9    H     H_    0.521990 0.652254 0.316810 0.170959
H10   H     H_    0.421357 0.254563 0.630109 0.164592
H11   H     H_    0.280163 0.546587 0.462207 0.167116
H12   H     H_    0.721456 0.453009 0.537554 0.176034
H13   H     H_    0.700207 0.711226 0.322344 0.157282
H14   H     H_    0.284455 0.265863 0.665197 0.153206
N7    N     N_R   0.195667 0.567966 0.729354 0.131522
O9    O     O_R   0.215604 0.640710 0.672790 -0.323198
O10   O     O_R   0.269848 0.544627 0.768652 -0.347076
N8    N     N_R   0.896899 0.600297 0.243430 0.109256
O11   O     O_R   0.806267 0.549243 0.263257 -0.292375
O12   O     O_R   0.922791 0.696225 0.212461 -0.355025
C53   C     C_3   0.138620 0.325625 0.663418 -0.634435
H15   H     H_    0.058019 0.304955 0.641069 0.265237
H16   H     H_    0.142786 0.255293 0.700339 0.213059
H17   H     H_    0.163189 0.384188 0.697178 0.233083
C54   C     C_3   0.887735 0.719426 0.365438 -0.615786
H18   H     H_    0.935472 0.686832 0.353060 0.266798
H19   H     H_    0.869108 0.767645 0.314467 0.216993
H20   H     H_    0.932640 0.771517 0.403742 0.241663
C55   C     C_3   0.336961 0.543072 0.350881 -0.768999
H21   H     H_    0.339980 0.537470 0.295490 0.247449
H22   H     H_    0.268884 0.475631 0.368892 0.262319
H23   H     H_    0.328383 0.615346 0.347752 0.276246
C56   C     C_3   0.567464 0.292759 0.557784 -0.869546
H24   H     H_    0.514471 0.210613 0.564439 0.232712
H25   H     H_    0.606595 0.307567 0.511162 0.230167
H26   H     H_    0.622680 0.302983 0.607373 0.287818
N9    N     N_R   0.820528 0.473973 0.691475 0.115292
O13   O     O_R   0.808952 0.554261 0.649608 -0.320951
O14   O     O_R   0.739687 0.392510 0.708419 -0.386729
N10   N     N_R   0.056788 0.346573 0.332394 0.134918
O15   O     O_R   0.995775 0.291919 0.380925 -0.311872
O16   O     O_R   0.124884 0.316126 0.325414 -0.362368
N11   N     N_R   0.286323 0.775946 0.395276 0.112932
O17   O     O_R   0.363742 0.816023 0.358977 -0.345980
O18   O     O_R   0.205996 0.701948 0.371794 -0.403239
N12   N     N_R   0.703843 0.247021 0.390577 0.132477
O19   O     O_R   0.679063 0.212355 0.330933 -0.288517
O20   O     O_R   0.705098 0.336682 0.388108 -0.334214
N13   N     N_R   0.077846 0.836893 0.532658 0.128853
O21   O     O_R   0.071313 0.772437 0.593638 -0.315613
O22   O     O_R   0.003182 0.866041 0.504646 -0.376628
N14   N     N_R   0.940795 0.140947 0.576851 0.106861
O23   O     O_R   0.018539 0.165722 0.543678 -0.315309
O24   O     O_R   0.948260 0.110141 0.646366 -0.381022
C57   C     C_3   0.812598 0.932752 0.560779 -0.634840
H27   H     H_    0.896161 0.960294 0.576746 0.290065
H28   H     H_    0.774955 0.882341 0.608639 0.225903
H29   H     H_    0.794932 0.887067 0.518575 0.228077
C58   C     C_3   0.204502 0.057464 0.498754 -0.672915
H30   H     H_    0.136024 0.025827 0.526418 0.289316
H31   H     H_    0.268475 0.101731 0.535743 0.203062
H32   H     H_    0.192616 0.110594 0.448551 0.251645

loop_
_geom_bond_atom_site_label_1
_geom_bond_atom_site_label_2
_geom_bond_distance
_ccdc_geom_bond_type
C42   C44   1.433783 A    
C54   H18   1.096950 S    
C1    C19   1.496359 S    
C13   C15   1.418848 A    
N11   O17   1.301845 A    
C55   H21   1.111446 S    
C57   H27   1.107632 S    
C21   C23   1.413365 A    
Cu1   N6    2.016619 S    
C30   C36   1.402252 A    
Cu2   N5    2.016621 S    
N9    O14   1.300424 A    
C56   H24   1.110936 S    
C50   C52   1.390508 A    
O1    C1    1.305663 A    
C52   H10   1.086113 S    
C20   C24   1.419420 A    
N13   O22   1.301008 A    
C25   N12   1.443599 S    
N8    O12   1.301339 A    
C57   H28   1.110265 S    
C43   C47   1.441287 A    
C13   N9    1.431130 S    
C6    C16   1.419531 A    
C21   C57   1.518576 S    
N10   O15   1.301337 A    
C38   C46   1.386024 A    
C5    C7    1.403477 A    
O4    Cu1   1.918096 S    
C37   C39   1.392818 A    
C38   C40   1.391760 A    
C7    H1    1.083330 S    
C26   C28   1.410845 A    
C41   C43   1.431324 A    
C2    C20   1.477856 S    
C33   H7    1.082758 S    
C11   C13   1.393695 A    
C53   H16   1.111091 S    
C8    H2    1.083922 S    
C44   C48   1.439169 A    
C29   C35   1.406319 A    
C34   C36   1.390558 A    
C27   C29   1.419314 A    
C38   H14   1.085473 S    
N6    C42   1.370498 A    
C54   H19   1.110930 S    
C41   H12   1.072293 S    
Cu1   Cu2   2.684568 S    
C6    N8    1.429862 S    
C49   C51   1.390420 A    
C42   H11   1.074843 S    
O2    C2    1.297078 A    
C40   C53   1.506051 S    
C55   H22   1.105656 S    
N14   O24   1.301108 A    
C5    C15   1.423969 A    
C28   C30   1.411016 A    
C35   H5    1.081217 S    
C34   H8    1.069379 S    
C36   H6    1.082271 S    
N2    C17   1.358555 A    
O4    C2    1.300103 A    
C9    C18   1.471273 S    
N8    O11   1.301209 A    
C57   H29   1.110643 S    
C5    N7    1.438504 S    
C22   C58   1.518261 S    
C7    C9    1.397512 A    
C43   C45   1.410479 A    
N2    N4    1.333410 A    
C19   C25   1.420000 A    
C49   C55   1.509829 S    
O7    Cu2   1.949015 S    
C58   H31   1.110988 S    
C20   C26   1.415384 A    
C10   C17   1.470585 S    
C51   H9    1.085855 S    
O5    C3    1.302091 A    
N7    O9    1.301524 A    
C27   C31   1.432043 A    
O6    C4    1.300858 A    
C31   C34   1.409871 A    
N1    N3    1.326917 A    
C32   C33   1.404797 A    
N11   O18   1.300830 A    
C53   H17   1.106511 S    
O7    C3    1.300199 A    
O3    Cu2   1.918095 S    
O8    C4    1.302895 A    
C50   C56   1.509584 S    
C44   C46   1.407683 A    
N7    O10   1.301509 A    
C56   H26   1.106520 S    
C9    C11   1.396443 A    
C46   C52   1.390800 A    
C10   C12   1.397482 A    
O1    Cu1   1.930042 S    
C58   H30   1.104387 S    
C55   H23   1.108840 S    
N14   O23   1.301289 A    
C21   C29   1.416227 A    
C56   H25   1.103083 S    
C37   C45   1.389115 A    
C22   C30   1.418539 A    
C39   C54   1.505120 S    
O6    Cu2   1.949015 S    
C4    C16   1.488281 S    
C8    C10   1.394796 A    
C12   C14   1.405427 A    
C12   H4    1.083224 S    
C48   C49   1.422618 A    
O3    C1    1.302315 A    
O8    Cu1   1.949015 S    
C47   C50   1.426419 A    
N12   O20   1.300314 A    
C24   N13   1.437871 S    
N12   O19   1.301186 A    
C54   H20   1.103229 S    
N9    O13   1.301096 A    
C28   C32   1.423416 A    
N5    C39   1.376067 A    
N6    C40   1.379532 A    
C14   C16   1.425559 A    
C58   H32   1.110229 S    
C47   C48   1.448798 A    
C25   C27   1.418029 A    
C37   H13   1.085274 S    
N13   O21   1.301135 A    
N5    C41   1.367962 A    
C14   N10   1.440332 S    
C22   C24   1.419525 A    
N3    C17   1.355542 A    
N10   O16   1.301583 A    
C45   C51   1.392023 A    
N4    C18   1.359141 A    
C11   H3    1.083821 S    
C23   N14   1.431403 S    
C19   C23   1.419016 A    
O2    Cu2   1.930043 S    
C26   N11   1.455037 S    
O5    Cu1   1.949016 S    
C3    C15   1.485820 S    
C6    C8    1.392221 A    
C31   C32   1.420295 A    
N1    C18   1.355217 A    
C33   C35   1.385509 A    
C53   H15   1.097580 S    
