data_mof_unit_2977.cif
_audit_creation_date              2012-12-10T19:45:00-0500
_audit_creation_method            fapswitch 2.2
_symmetry_space_group_name_H-M    P1
_symmetry_Int_Tables_number       1
_space_group_crystal_system       triclinic
_cell_length_a                    15.05091
_cell_length_b                    11.043062
_cell_length_c                    13.885604
_cell_angle_alpha                 89.58648
_cell_angle_beta                  89.553364
_cell_angle_gamma                 85.247059
_cell_volume                      2299.84413194

loop_
_atom_site_label
_atom_site_type_symbol
_atom_type_description
_atom_site_fract_x
_atom_site_fract_y
_atom_site_fract_z
_atom_type_partial_charge
Br1   Br    Br    0.665733 0.348815 0.737384 -0.560840
Br2   Br    Br    0.334270 0.651173 0.262662 -0.561063
Br3   Br    Br    0.529295 0.165397 0.973125 -0.480433
Br4   Br    Br    0.470777 0.834653 0.026891 -0.480547
Br5   Br    Br    0.338269 0.230741 0.085517 -0.448500
Br6   Br    Br    0.661806 0.769393 0.914463 -0.448573
Br7   Br    Br    0.323606 0.212958 0.323329 -0.511997
Br8   Br    Br    0.676412 0.787058 0.676634 -0.511974
C1    C     C_R   0.504748 0.261846 0.499687 0.816588
C2    C     C_R   0.491362 0.883493 0.686518 -0.006797
C3    C     C_R   0.591258 0.084735 0.266265 0.102314
C4    C     C_R   0.408754 0.915257 0.733748 0.102314
C5    C     C_R   0.598696 0.099548 0.164861 0.093135
C6    C     C_R   0.401334 0.900457 0.835157 0.093141
C7    C     C_R   0.523984 0.148114 0.111811 0.252600
C8    C     C_R   0.476064 0.851917 0.888198 0.252568
C9    C     C_R   0.477152 0.941083 0.415587 0.057274
C10   C     C_R   0.522844 0.058920 0.584408 0.057255
C11   C     C_R   0.491826 0.873078 0.501795 -0.159865
C12   C     C_R   0.495249 0.738155 0.500312 0.816578
C13   C     C_R   0.508168 0.126924 0.498202 -0.159845
C14   C     C_R   0.507443 0.935332 0.588307 0.088287
C15   C     C_R   0.492552 0.064672 0.411689 0.088286
C16   C     C_R   0.329601 0.497912 0.500697 0.875248
C17   C     C_R   0.670400 0.502075 0.499303 0.875208
C18   C     C_R   0.575224 0.457691 0.795115 0.401690
C19   C     C_R   0.424780 0.542342 0.204890 0.401778
C20   C     C_R   0.426247 0.547785 0.795483 0.249411
C21   C     C_R   0.573749 0.452218 0.204511 0.249382
C22   C     C_R   0.422536 0.534731 0.897446 -0.010128
C23   C     C_R   0.058672 0.280186 0.525948 0.161349
C24   C     C_R   0.577460 0.465286 0.102548 -0.010076
C25   C     C_R   0.500757 0.501646 0.948577 0.040529
C26   C     C_R   0.499239 0.498398 0.051420 0.040570
C27   C     C_R   0.580501 0.473064 0.896971 -0.002249
C28   C     C_R   0.419498 0.527010 0.103027 -0.002314
C29   C     C_R   0.341859 0.552196 0.949071 -0.148205
C30   C     C_R   0.658136 0.447828 0.050918 -0.148407
C31   C     C_R   0.338583 0.543534 0.049743 0.228947
C32   C     C_R   0.661412 0.456570 0.950251 0.229019
C33   C     C_R   0.806682 0.606450 0.471208 0.100812
C34   C     C_R   0.941328 0.719783 0.474050 0.161325
C35   C     C_R   0.193324 0.393512 0.528768 0.100875
C36   C     C_R   0.766983 0.499967 0.496706 -0.055515
C37   C     C_R   0.233018 0.500007 0.503297 -0.055487
C38   C     C_R   0.818371 0.389660 0.513197 0.120458
C39   C     C_R   0.181626 0.610313 0.486818 0.120456
C40   C     C_R   0.912204 0.390574 0.521589 0.068546
C41   C     C_R   0.087796 0.609395 0.478417 0.068551
C42   C     C_R   0.952864 0.499937 0.500448 -0.087189
C43   C     C_R   0.047137 0.500031 0.499553 -0.087195
C44   C     C_R   0.899565 0.610018 0.482737 0.084784
C45   C     C_R   0.443180 0.182428 0.159539 0.206497
C46   C     C_R   0.100437 0.389950 0.517255 0.084769
C47   C     C_R   0.967443 0.284609 0.546259 0.155471
C48   C     C_R   0.032558 0.715359 0.453744 0.155479
C49   C     C_3   0.751369 0.705302 0.415747 -0.841991
C50   C     C_3   0.248636 0.294624 0.584183 -0.842198
C51   C     C_3   0.434198 0.886008 0.330461 -0.653063
C52   C     C_3   0.565804 0.113997 0.669530 -0.653042
C53   C     C_3   0.350078 0.621292 0.747134 -0.783932
C54   C     C_3   0.649925 0.378717 0.252856 -0.783939
C55   C     C_3   0.247202 0.534390 0.093771 -0.723218
C56   C     C_R   0.556866 0.817617 0.840455 0.206558
C57   C     C_3   0.752787 0.465888 0.906250 -0.723343
C58   C     C_3   0.774556 0.271187 0.500043 -0.846281
C59   C     C_3   0.225433 0.728791 0.499991 -0.846315
C60   C     C_3   0.935069 0.182434 0.607157 -0.822625
C61   C     C_3   0.064934 0.817527 0.392840 -0.822622
C62   C     C_3   0.104602 0.158277 0.496702 -0.833342
C63   C     C_3   0.895396 0.841695 0.503291 -0.833326
C64   C     C_3   0.671476 0.031805 0.322822 -0.846614
C65   C     C_3   0.328520 0.968164 0.677200 -0.846607
C66   C     C_3   0.685889 0.059002 0.114648 -0.692334
C67   C     C_R   0.436237 0.170524 0.260089 0.183058
C68   C     C_3   0.314145 0.940997 0.885386 -0.692328
C69   C     C_R   0.563789 0.829493 0.739899 0.183033
C70   C     C_R   0.508648 0.116507 0.313481 -0.006792
Cu1   Cu    Cu3+1 0.500010 0.499980 0.597420 0.987592
Cu2   Cu    Cu3+1 0.499990 0.500020 0.402580 0.987617
H1    H     H_    0.279316 0.565633 0.910890 0.146557
H2    H     H_    0.483196 0.825167 0.289771 0.272311
H3    H     H_    0.377656 0.839525 0.359525 0.246040
H4    H     H_    0.597124 0.047892 0.721423 0.248164
H5    H     H_    0.622328 0.160513 0.640461 0.246032
H6    H     H_    0.516805 0.174813 0.710238 0.272303
H7    H     H_    0.321388 0.694543 0.794760 0.193525
H8    H     H_    0.372594 0.670090 0.683337 0.262744
H9    H     H_    0.295784 0.562842 0.730270 0.231061
H10   H     H_    0.678615 0.305470 0.205227 0.193549
H11   H     H_    0.704215 0.437172 0.269718 0.231030
H12   H     H_    0.720684 0.434397 0.089092 0.146622
H13   H     H_    0.627414 0.329917 0.316655 0.262740
H14   H     H_    0.250825 0.481084 0.161881 0.283813
H15   H     H_    0.213815 0.626600 0.105488 0.245233
H16   H     H_    0.204737 0.484893 0.045017 0.227196
H17   H     H_    0.749142 0.518693 0.837919 0.283750
H18   H     H_    0.794973 0.516032 0.954810 0.227597
H19   H     H_    0.786460 0.373770 0.894992 0.244951
H20   H     H_    0.710599 0.283172 0.460996 0.205464
H21   H     H_    0.817245 0.207783 0.454365 0.231065
H22   H     H_    0.760052 0.228810 0.570143 0.265744
H23   H     H_    0.712327 0.664901 0.358707 0.244839
H24   H     H_    0.289378 0.716805 0.539059 0.205486
H25   H     H_    0.239959 0.771169 0.429897 0.265728
H26   H     H_    0.182729 0.792196 0.545652 0.231085
H27   H     H_    0.882722 0.217928 0.658676 0.262314
H28   H     H_    0.911529 0.110007 0.561397 0.235249
H29   H     H_    0.989476 0.140488 0.653089 0.231102
H30   H     H_    0.117315 0.782037 0.341356 0.262294
H31   H     H_    0.010538 0.859419 0.346861 0.231085
H32   H     H_    0.088431 0.889986 0.438601 0.235253
H33   H     H_    0.060481 0.111920 0.447738 0.235369
H34   H     H_    0.704877 0.758830 0.464614 0.256694
H35   H     H_    0.166780 0.168392 0.455354 0.284555
H36   H     H_    0.119059 0.098568 0.560235 0.221203
H37   H     H_    0.939483 0.887998 0.552330 0.235403
H38   H     H_    0.881019 0.901445 0.439762 0.221165
H39   H     H_    0.833165 0.831595 0.544553 0.284586
H40   H     H_    0.660200 0.029797 0.401674 0.238029
H41   H     H_    0.690130 0.937262 0.299309 0.246811
H42   H     H_    0.728572 0.087652 0.310791 0.226064
H43   H     H_    0.339786 0.970161 0.598344 0.238015
H44   H     H_    0.271430 0.912306 0.689247 0.226064
H45   H     H_    0.792716 0.766074 0.374682 0.235924
H46   H     H_    0.309859 0.062709 0.700708 0.246810
H47   H     H_    0.685447 0.074025 0.035940 0.278628
H48   H     H_    0.740603 0.109328 0.143355 0.197610
H49   H     H_    0.701929 0.960182 0.126816 0.253662
H50   H     H_    0.314603 0.925992 0.964098 0.278604
H51   H     H_    0.298088 0.039815 0.873208 0.253649
H52   H     H_    0.259429 0.890656 0.856697 0.197613
H53   H     H_    0.287836 0.334958 0.641101 0.244913
H54   H     H_    0.207274 0.233995 0.625380 0.235914
H55   H     H_    0.294976 0.240960 0.535262 0.256775
H56   H     H_    0.402906 0.952111 0.278546 0.248146
N1    N     N_R   0.499960 0.499900 0.743810 -0.204521
N2    N     N_R   0.500040 0.500100 0.256190 -0.204507
O1    O     O_R   0.500000 0.319630 0.582270 -0.559355
O2    O     O_R   0.500000 0.680370 0.417730 -0.559329
O3    O     O_R   0.499990 0.319660 0.417730 -0.580303
O4    O     O_R   0.500010 0.680340 0.582270 -0.580309
O5    O     O_R   0.370260 0.499960 0.582280 -0.615811
O6    O     O_R   0.629740 0.500040 0.417720 -0.615763
O7    O     O_R   0.370250 0.499990 0.417740 -0.506205
O8    O     O_R   0.629750 0.500010 0.582260 -0.506268

loop_
_geom_bond_atom_site_label_1
_geom_bond_atom_site_label_2
_ccdc_geom_bond_type
C40   C47   A    
Cu1   O1    S    
C55   H15   S    
C64   H41   S    
C10   C13   A    
C1    O1    A    
C56   C69   A    
C58   H22   S    
C11   C12   S    
C51   H2    S    
C18   N1    A    
C1    C13   S    
C47   C60   S    
C39   C41   A    
C2    C14   S    
C66   H48   S    
C21   N2    A    
C55   H14   S    
C9    C15   A    
C16   C37   S    
C7    C45   A    
Br5   C45   S    
C3    C70   A    
C51   H3    S    
C57   H18   S    
C38   C58   S    
C21   C24   A    
C16   O7    A    
C49   H45   S    
C68   H51   S    
Cu1   O4    S    
C16   O5    A    
C58   H20   S    
C65   H46   S    
C30   H12   S    
C51   H56   S    
C3    C5    A    
Br6   C56   S    
C53   H7    S    
C35   C50   S    
C34   C48   A    
C68   H50   S    
C23   C62   S    
Cu1   O5    S    
C36   C38   A    
C41   C43   A    
C42   C44   A    
Br2   C19   S    
C60   H27   S    
C24   C30   A    
C33   C44   A    
C63   H38   S    
C20   C53   S    
C40   C42   A    
C62   H33   S    
C4    C65   S    
C58   H21   S    
C29   H1    S    
C45   C67   A    
C17   C36   S    
C39   C59   S    
C2    C69   A    
C53   H9    S    
C59   H24   S    
C25   C26   A    
Cu1   O8    S    
C37   C39   A    
C50   H53   S    
C49   H23   S    
C38   C40   A    
C19   N2    A    
C63   H37   S    
C12   O4    A    
C11   C14   A    
C57   H19   S    
C1    O3    A    
C3    C64   S    
C59   H25   S    
Br7   C67   S    
Cu2   O6    S    
C24   C26   A    
Cu2   O2    S    
C55   H16   S    
C50   H54   S    
C22   C29   A    
C6    C68   S    
Br4   C8    S    
C53   H8    S    
C8    C56   A    
C61   H30   S    
C35   C46   A    
C66   H47   S    
C65   H44   S    
C54   H11   S    
C64   H40   S    
C42   C43   A    
C15   C70   S    
C35   C37   A    
C17   O8    A    
C2    C4    A    
C9    C51   S    
C10   C52   S    
Cu2   O7    S    
Cu1   N1    S    
C4    C6    A    
C48   C61   S    
C61   H32   S    
C32   C57   S    
C13   C15   A    
Br8   C69   S    
C62   H35   S    
C33   C36   A    
C6    C8    A    
C54   H13   S    
C17   O6    A    
C9    C11   A    
Br3   C7    S    
C21   C54   S    
C52   H6    S    
C22   C25   A    
C64   H42   S    
C10   C14   A    
C28   C31   A    
C20   N1    A    
C52   H5    S    
C59   H26   S    
C49   H34   S    
C50   H55   S    
C41   C48   A    
C31   C55   S    
C63   H39   S    
C19   C28   A    
C62   H36   S    
C43   C46   A    
C5    C7    A    
C27   C32   A    
C33   C49   S    
C29   C31   A    
C68   H52   S    
C30   C32   A    
C52   H4    S    
C12   O2    A    
Br1   C18   S    
Cu2   N2    S    
C54   H10   S    
C20   C22   A    
C34   C63   S    
C25   C27   A    
C26   C28   A    
C60   H29   S    
C23   C46   A    
C61   H31   S    
C67   C70   A    
C57   H17   S    
Cu1   Cu2   S    
C18   C27   A    
C5    C66   S    
Cu2   O3    S    
C66   H49   S    
C60   H28   S    
C23   C47   A    
C34   C44   A    
C65   H43   S    
