data_mof_unit_2652.cif
_audit_creation_date              2012-12-10T17:18:12-0500
_audit_creation_method            fapswitch 2.2
_symmetry_space_group_name_H-M    P1
_symmetry_Int_Tables_number       1
_space_group_crystal_system       triclinic
_cell_length_a                    10.109198
_cell_length_b                    10.879524
_cell_length_c                    14.985351
_cell_angle_alpha                 90.085837
_cell_angle_beta                  81.278935
_cell_angle_gamma                 96.177142
_cell_volume                      1619.43974826

loop_
_atom_site_label
_atom_site_type_symbol
_atom_type_description
_atom_site_fract_x
_atom_site_fract_y
_atom_site_fract_z
_atom_type_partial_charge
C1    C     C_R   0.557279 0.732192 0.491226 0.895247
C2    C     C_2   0.072673 0.490065 0.492804 -0.102245
C3    C     C_R   0.500199 0.499114 0.673203 0.872991
C4    C     C_R   0.499801 0.500887 0.326797 0.873008
C5    C     C_R   0.379896 0.471606 0.197775 -0.229367
C6    C     C_R   0.620103 0.528422 0.802227 -0.229372
C7    C     C_R   0.499721 0.503720 0.231075 -0.052394
C8    C     C_R   0.500279 0.496287 0.768925 -0.052385
C9    C     C_R   0.619962 0.537432 0.173487 -0.251903
C10   C     C_R   0.380044 0.462559 0.826511 -0.251930
C11   C     C_R   0.622565 0.540205 0.080230 0.022631
C12   C     C_R   0.442721 0.267807 0.508777 0.895262
C13   C     C_R   0.377440 0.459795 0.919768 0.022598
C14   C     C_R   0.500679 0.502375 0.046390 0.068574
C15   C     C_R   0.499320 0.497646 0.953609 0.068582
C16   C     C_R   0.379745 0.468939 0.105625 0.076902
C17   C     C_R   0.620256 0.531088 0.894375 0.076958
C18   C     C_R   0.742843 0.576823 0.019930 -0.016202
C19   C     C_R   0.257173 0.423146 0.980067 -0.016233
C20   C     C_2   0.871468 0.627003 0.050545 0.467907
C21   C     C_2   0.128578 0.372839 0.949451 0.468209
C22   C     C_2   0.595657 0.101620 0.585741 0.462654
C23   C     C_R   0.739716 0.569517 0.927235 -0.179709
C24   C     C_2   0.404387 0.898394 0.414239 0.462665
C25   C     C_R   0.260297 0.430492 0.072764 -0.179596
C26   C     C_2   0.592013 0.863840 0.493474 -0.433294
C27   C     C_2   0.407989 0.136157 0.506540 -0.433323
C28   C     C_2   0.501256 0.939406 0.477507 0.009466
C29   C     C_2   0.498759 0.060596 0.522495 0.009449
C30   C     C_2   0.927327 0.509935 0.507196 -0.102252
H1    H     H_    0.287460 0.444927 0.243708 0.152967
H2    H     H_    0.891305 0.577236 0.555975 0.161899
H3    H     H_    0.120161 0.614437 0.582888 0.182408
H4    H     H_    0.879838 0.385563 0.417112 0.182424
H5    H     H_    0.874508 0.658463 0.118772 0.045048
H6    H     H_    0.125533 0.341558 0.881202 0.045035
H7    H     H_    0.558316 0.140763 0.650164 0.047711
H8    H     H_    0.441754 0.859256 0.349818 0.047707
H9    H     H_    0.712537 0.555107 0.756295 0.152958
H10   H     H_    0.710306 0.560015 0.202950 0.147887
H11   H     H_    0.289708 0.439960 0.797041 0.147873
H12   H     H_    0.830449 0.596714 0.879883 0.185029
H13   H     H_    0.169575 0.403294 0.120122 0.185064
H14   H     H_    0.322573 0.107148 0.473168 0.212971
H15   H     H_    0.677414 0.892839 0.526864 0.212940
H16   H     H_    0.108694 0.422764 0.444025 0.161905
N1    N     N_2   0.842700 0.448880 0.462930 -0.184334
N2    N     N_2   0.157300 0.551120 0.537070 -0.184338
O1    O     O_R   0.431060 0.692470 0.507460 -0.575747
O2    O     O_2   0.022661 0.362721 0.001730 -0.553987
O3    O     O_2   0.716936 0.101609 0.563485 -0.566949
O4    O     O_2   0.283103 0.898407 0.436472 -0.566958
O5    O     O_R   0.568940 0.307530 0.492540 -0.575745
O6    O     O_R   0.651120 0.659650 0.483670 -0.607646
O7    O     O_R   0.348880 0.340350 0.516330 -0.607646
O8    O     O_R   0.389960 0.516440 0.644050 -0.614867
O9    O     O_R   0.610040 0.483560 0.355950 -0.614860
O10   O     O_R   0.610030 0.483620 0.620260 -0.622264
O11   O     O_R   0.389970 0.516380 0.379740 -0.622260
O12   O     O_2   0.977407 0.636785 0.998296 -0.554063
Zn1   Zn    Zn3+2 0.353060 0.521920 0.515880 0.978469
Zn2   Zn    Zn3+2 0.646940 0.478080 0.484120 0.978474

loop_
_geom_bond_atom_site_label_1
_geom_bond_atom_site_label_2
_ccdc_geom_bond_type
C4    O9    A    
O10   Zn2   S    
C24   H8    S    
C1    O6    A    
C11   C18   A    
C24   O4    D    
C22   C29   S    
C27   C29   D    
C5    C7    A    
O5    Zn2   S    
C26   C28   D    
C12   O5    A    
C2    C30   S    
C6    H9    S    
C25   H13   S    
N1    Zn2   S    
O9    Zn2   S    
C21   H6    S    
C2    H16   S    
C10   H11   S    
C30   H2    S    
C9    C11   A    
N2    Zn1   S    
C17   C23   A    
C23   H12   S    
C4    C7    S    
O7    Zn1   S    
C4    O11   A    
C21   O2    D    
C19   C21   S    
C18   C20   S    
C13   C15   A    
C1    C26   S    
C19   C25   A    
C11   C14   A    
C14   C16   A    
O11   Zn1   S    
C12   O7    A    
O1    Zn1   S    
C13   C19   A    
C12   C27   S    
C18   C23   A    
C6    C17   A    
C3    O10   A    
C7    C9    A    
C30   N1    D    
C8    C10   A    
C3    C8    S    
C3    O8    A    
C16   C25   A    
C15   C17   A    
H3    N2    S    
O8    Zn1   S    
C28   C29   S    
C5    C16   A    
C6    C8    A    
H4    N1    S    
O6    Zn2   S    
C26   H15   S    
C2    N2    D    
C20   O12   D    
C14   C15   A    
C22   H7    S    
C1    O1    A    
C27   H14   S    
C20   H5    S    
C9    H10   S    
C24   C28   S    
C22   O3    D    
C5    H1    S    
C10   C13   A    
