data_mof_unit_3105.cif
_audit_creation_date              2012-12-11T15:10:51-0500
_audit_creation_method            fapswitch 2.2
_symmetry_space_group_name_H-M    P1
_symmetry_Int_Tables_number       1
_space_group_crystal_system       triclinic
_cell_length_a                    21.15119
_cell_length_b                    7.227379
_cell_length_c                    18.243149
_cell_angle_alpha                 90.095402
_cell_angle_beta                  93.45099
_cell_angle_gamma                 90.086452
_cell_volume                      2783.72310133

loop_
_atom_site_label
_atom_site_type_symbol
_atom_type_description
_atom_site_fract_x
_atom_site_fract_y
_atom_site_fract_z
_atom_type_partial_charge
O1    O     O_R   0.448880 0.506250 0.415280 -0.528382
O2    O     O_R   0.551120 0.006250 0.584720 -0.528286
O3    O     O_R   0.434830 0.174000 0.557310 -0.521874
O4    O     O_R   0.565170 0.674000 0.442690 -0.522081
C1    C     C_R   0.416978 0.344586 0.579699 0.696696
C2    C     C_R   0.583022 0.844597 0.420311 0.696494
O5    O     O_R   0.441680 0.176440 0.414130 -0.531074
O6    O     O_R   0.558320 0.676440 0.585870 -0.531064
O7    O     O_R   0.558020 0.007570 0.440520 -0.518463
O8    O     O_R   0.441980 0.507570 0.559480 -0.518662
C3    C     C_R   0.428035 0.344807 0.388232 0.686438
C4    C     C_R   0.571943 0.845305 0.611770 0.686361
O9    O     O_3   0.538160 0.339670 0.508820 -0.364019
O10   O     O_3   0.461840 0.839670 0.491180 -0.364064
V1    V     V_3+5 0.492920 0.064260 0.498360 1.418574
V2    V     V_3+5 0.507080 0.564260 0.501640 1.417804
C5    C     C_R   0.878775 0.857477 0.687984 -0.192990
C6    C     C_R   0.121352 0.377700 0.312869 -0.192922
H1    H     H_    0.901181 0.822004 0.637892 0.122452
H2    H     H_    0.098788 0.351495 0.363698 0.122160
C7    C     C_R   0.888085 0.935469 0.817907 -0.098865
C8    C     C_R   0.112376 0.437927 0.181605 -0.097201
C9    C     C_R   0.582668 0.839358 0.747001 -0.156370
C10   C     C_R   0.416661 0.321141 0.253371 -0.156029
C11   C     C_R   0.618132 0.835002 0.814669 0.197578
C12   C     C_R   0.380792 0.308684 0.186130 0.197070
C13   C     C_R   0.684073 0.855880 0.815538 -0.252703
C14   C     C_R   0.315207 0.337072 0.185030 -0.252685
C15   C     C_R   0.715428 0.889275 0.750839 0.065764
C16   C     C_R   0.284669 0.385205 0.248900 0.066141
C17   C     C_R   0.679451 0.873031 0.682274 0.070916
C18   C     C_R   0.320774 0.377051 0.317579 0.070687
C19   C     C_R   0.782795 0.914838 0.752074 0.056899
C20   C     C_R   0.217635 0.416751 0.247327 0.057875
C21   C     C_R   0.813024 0.877133 0.686551 0.081519
C22   C     C_R   0.187283 0.392037 0.313685 0.081678
C23   C     C_R   0.777327 0.857695 0.619772 -0.182287
C24   C     C_R   0.223046 0.380236 0.380684 -0.182099
C25   C     C_R   0.711518 0.864693 0.617193 -0.177438
C26   C     C_R   0.288909 0.382107 0.382868 -0.176845
C27   C     C_R   0.821797 0.974439 0.814960 0.032359
C28   C     C_R   0.179089 0.470019 0.183317 0.033312
C29   C     C_R   0.916103 0.873954 0.753635 0.107024
C30   C     C_R   0.083956 0.388337 0.247091 0.106331
C31   C     C_R   0.612502 0.854661 0.680850 -0.128384
C32   C     C_R   0.387451 0.351753 0.319145 -0.128948
H3    H     H_    0.531677 0.824781 0.744600 0.116130
H4    H     H_    0.467387 0.300459 0.255927 0.116402
C33   C     C_1   0.864569 0.938902 0.132132 -0.214116
C34   C     C_1   0.135538 0.438873 0.868006 -0.214736
C35   C     C_1   0.821772 0.924897 0.175951 -0.009174
C36   C     C_1   0.178347 0.424853 0.824205 -0.009312
C37   C     C_1   0.771254 0.905821 0.228120 -0.005619
C38   C     C_1   0.228850 0.405767 0.772020 -0.005377
C39   C     C_1   0.728696 0.889197 0.272127 -0.005333
C40   C     C_1   0.271385 0.389139 0.727985 -0.005490
C41   C     C_1   0.678140 0.870061 0.324253 -0.003715
C42   C     C_1   0.321909 0.370008 0.675819 -0.003861
C43   C     C_1   0.635290 0.855988 0.368010 -0.208272
C44   C     C_1   0.364735 0.355949 0.632030 -0.208275
O11   O     O_R   0.058070 0.289240 0.940580 -0.519670
O12   O     O_R   0.941930 0.789240 0.059420 -0.519394
O13   O     O_R   0.058330 0.616740 0.085880 -0.535352
O14   O     O_R   0.941670 0.116740 0.914120 -0.534909
C45   C     C_R   0.072366 0.448666 0.111722 0.695445
C46   C     C_R   0.927768 0.948239 0.888107 0.693179
O15   O     O_R   0.065180 0.619040 0.942700 -0.518151
O16   O     O_R   0.934820 0.119040 0.057300 -0.518460
O17   O     O_R   0.948870 0.787780 0.915270 -0.527685
O18   O     O_R   0.051130 0.287780 0.084730 -0.528008
C47   C     C_R   0.083262 0.450295 0.920266 0.704250
C48   C     C_R   0.916788 0.950303 0.079793 0.703946
O19   O     O_3   0.961870 0.453310 0.991210 -0.364452
O20   O     O_3   0.038130 0.953310 0.008790 -0.364694
V3    V     V_3+5 0.007070 0.728770 0.001630 1.384510
V4    V     V_3+5 0.992930 0.228770 0.998370 1.383763
C49   C     C_3   0.986351 0.834257 0.751509 -0.346421
C50   C     C_3   0.998440 0.626250 0.748793 -0.724549
H5    H     H_    0.980852 0.557907 0.798139 0.226805
H6    H     H_    0.974299 0.564449 0.698809 0.216931
H7    H     H_    0.050068 0.600492 0.747327 0.211711
H8    H     H_    0.004960 0.900329 0.702183 0.170481
H9    H     H_    0.014150 0.893733 0.799429 0.171409
C51   C     C_3   0.013318 0.355672 0.250067 -0.348398
C52   C     C_3   0.998786 0.149200 0.254407 -0.725325
H10   H     H_    0.015484 0.076129 0.205580 0.227037
H11   H     H_    0.022290 0.088437 0.304850 0.217919
H12   H     H_    0.946876 0.128413 0.256066 0.212824
H13   H     H_    0.995744 0.426528 0.298997 0.171345
H14   H     H_    0.986029 0.414880 0.201842 0.170701
H15   H     H_    0.800527 0.836893 0.569022 0.123719
H16   H     H_    0.199862 0.369531 0.431908 0.123731
C53   C     C_3   0.797805 0.116693 0.868608 -0.371231
C54   C     C_3   0.816618 0.312651 0.846560 -0.677719
H17   H     H_    0.868402 0.325817 0.841650 0.235232
H18   H     H_    0.792342 0.349299 0.792837 0.219179
H19   H     H_    0.802048 0.413217 0.888418 0.201648
H20   H     H_    0.745801 0.120604 0.869912 0.185308
H21   H     H_    0.816417 0.086312 0.925526 0.165744
C55   C     C_3   0.204467 0.601021 0.126394 -0.370762
C56   C     C_3   0.189521 0.802189 0.145154 -0.684155
H22   H     H_    0.205106 0.894719 0.101143 0.201088
H23   H     H_    0.138166 0.823641 0.150778 0.237099
H24   H     H_    0.215271 0.842183 0.197705 0.220058
H25   H     H_    0.256329 0.596685 0.123583 0.185390
H26   H     H_    0.184207 0.566154 0.070494 0.163438
H27   H     H_    0.711055 0.837904 0.867381 0.112060
H28   H     H_    0.287708 0.312463 0.133931 0.112314
C57   C     C_3   0.588766 0.806200 0.887715 -0.354654
C58   C     C_3   0.516660 0.785863 0.884061 -0.769992
H29   H     H_    0.493738 0.912376 0.860464 0.225938
H30   H     H_    0.501697 0.662773 0.850804 0.226839
H31   H     H_    0.500605 0.766663 0.940403 0.221605
H32   H     H_    0.609681 0.679866 0.913969 0.179667
H33   H     H_    0.601770 0.925643 0.924067 0.176983
C59   C     C_3   0.409270 0.262392 0.113911 -0.354492
C60   C     C_3   0.480905 0.231341 0.117941 -0.769405
H34   H     H_    0.506204 0.358240 0.137886 0.225794
H35   H     H_    0.493789 0.112826 0.154521 0.226689
H36   H     H_    0.496287 0.198692 0.062236 0.221878
H37   H     H_    0.386034 0.135032 0.091005 0.179584
H38   H     H_    0.398227 0.376869 0.074593 0.177372
H39   H     H_    0.685989 0.850845 0.564210 0.104847
H40   H     H_    0.314504 0.374516 0.435995 0.104767

loop_
_geom_bond_atom_site_label_1
_geom_bond_atom_site_label_2
_ccdc_geom_bond_type
C16   C18   A    
O13   C45   A    
C53   C54   S    
C9    C31   A    
C24   H16   S    
C7    C46   S    
C13   C15   A    
O1    C3    A    
O2    C4    A    
C2    O7    A    
C49   C50   S    
O5    C3    A    
C55   H25   S    
C56   H22   S    
C59   H38   S    
C21   C23   A    
C10   C12   A    
C6    C30   A    
C60   H35   S    
C50   H6    S    
C41   C43   T    
C46   O17   A    
C49   H9    S    
C42   C44   T    
C45   O18   A    
C15   C19   A    
C25   H39   S    
C59   C60   S    
C58   H29   S    
C19   C21   A    
C7    C29   A    
C27   C53   S    
C40   C42   S    
C33   C35   T    
C33   C48   S    
C20   C28   A    
O15   C47   A    
C34   C36   T    
C53   H21   S    
C6    H2    S    
C11   C57   S    
O11   C47   A    
C52   H11   S    
O6    V2    S    
C51   H14   S    
C36   C38   S    
C12   C59   S    
C37   C39   T    
O11   V4    S    
C26   H40   S    
C38   C40   T    
C9    H3    S    
O20   V3    S    
C23   H15   S    
C10   H4    S    
C51   C52   S    
O4    C2    A    
C59   H37   S    
C60   H36   S    
C16   C20   A    
C50   H5    S    
O5    V1    S    
C54   H19   S    
O3    C1    A    
C52   H10   S    
O16   C48   A    
C35   C37   S    
O14   C46   A    
O4    V2    S    
C34   C47   S    
C5    C29   A    
C8    C45   S    
C28   C55   S    
C13   H27   S    
O6    C4    A    
O14   V4    S    
O12   C48   A    
O1    V2    S    
C54   H18   S    
O2    V1    S    
C58   H31   S    
C57   H32   S    
C7    C27   A    
C56   H24   S    
C39   C41   S    
O18   V4    S    
C11   C13   A    
O19   V4    S    
O12   V3    S    
C29   C49   S    
C51   H13   S    
O3    V1    S    
C56   H23   S    
C52   H12   S    
C8    C30   A    
C1    C44   S    
C18   C32   A    
C2    C43   S    
C4    C31   S    
C30   C51   S    
C55   H26   S    
O16   V4    S    
C12   C14   A    
C19   C27   A    
C22   C24   A    
O7    V1    S    
C10   C32   A    
C1    O8    A    
C15   C17   A    
O8    V2    S    
C57   C58   S    
C24   C26   A    
C50   H7    S    
C8    C28   A    
O13   V3    S    
C49   H8    S    
C14   H28   S    
C14   C16   A    
C55   C56   S    
C5    H1    S    
C17   C25   A    
O17   V3    S    
C20   C22   A    
C18   C26   A    
C54   H17   S    
C58   H30   S    
C57   H33   S    
C9    C11   A    
O15   V3    S    
C23   C25   A    
C17   C31   A    
O9    V2    S    
O10   V1    S    
C3    C32   S    
C5    C21   A    
C60   H34   S    
C6    C22   A    
C53   H20   S    
