data_mof_unit_3459.cif
_audit_creation_date              2013-03-05T15:45:35-0500
_audit_creation_method            fapswitch 2.2
_symmetry_space_group_name_H-M    P1
_symmetry_Int_Tables_number       1
_space_group_crystal_system       triclinic
_cell_length_a                    8.389293
_cell_length_b                    14.625321
_cell_length_c                    18.992359
_cell_angle_alpha                 92.803435
_cell_angle_beta                  94.176414
_cell_angle_gamma                 90.795654
_cell_volume                      2320.96286751

loop_
_atom_site_label
_atom_site_type_symbol
_atom_site_description
_atom_site_fract_x
_atom_site_fract_y
_atom_site_fract_z
_atom_type_partial_charge
P1    P     P_3+3 0.937730 0.712710 0.546710 0.544211
O1    O     O_2   0.108370 0.727470 0.525290 -0.308879
O2    O     O_3   0.865330 0.611210 0.531230 -0.332600
O3    O     O_3   0.346360 0.671710 0.401620 -0.355853
O4    O     O_2   0.231108 0.833204 0.439987 -0.391682
O5    O     O_3   0.994613 0.715873 0.638072 -0.546620
O6    O     O_3   0.332922 0.823024 0.314066 -0.574678
H1    H     H_    0.236256 0.694317 0.283408 0.176445
C1    C     C_3   0.278377 0.769317 0.193091 -0.945721
H2    H     H_    0.253526 0.705921 0.159108 0.246864
H3    H     H_    0.169401 0.811580 0.191854 0.288049
P2    P     P_3+3 0.357970 0.428340 0.344000 0.529768
P3    P     P_3+3 0.898932 0.614700 0.276293 0.534681
O7    O     O_2   0.182890 0.456530 0.332150 -0.377473
O8    O     O_3   0.933230 0.625130 0.368420 -0.315938
O9    O     O_2   0.027366 0.551781 0.246663 -0.348493
O10   O     O_3   0.381924 0.313034 0.321168 -0.595649
O11   O     O_3   0.936278 0.720684 0.241795 -0.526555
C2    C     C_3   0.821016 0.784867 0.261321 0.656162
H4    H     H_    0.723792 0.756141 0.291137 0.042595
C3    C     C_3   0.907918 0.858680 0.309108 -0.907870
H5    H     H_    0.974387 0.826964 0.354039 0.275180
H6    H     H_    0.991958 0.895028 0.277388 0.248681
C4    C     C_3   0.796974 0.347135 0.329476 0.492004
H7    H     H_    0.694640 0.377967 0.355118 0.098853
H8    H     H_    0.898044 0.397175 0.332979 0.118489
C5    C     C_3   0.746901 0.325213 0.251591 -0.842604
H9    H     H_    0.631227 0.287271 0.245675 0.298805
H10   H     H_    0.733717 0.388971 0.223027 0.190123
H11   H     H_    0.837636 0.283372 0.226168 0.304224
Ba1   Ba    Ba6+2 0.150350 0.545800 0.464500 1.645032
C6    C     C_3   0.865793 0.723664 0.680905 0.978386
H12   H     H_    0.748690 0.711382 0.651116 -0.010899
C7    C     C_3   0.872230 0.817261 0.720177 -1.025885
H13   H     H_    0.990309 0.829328 0.749756 0.284413
H14   H     H_    0.778188 0.821484 0.758402 0.241904
H15   H     H_    0.852614 0.871860 0.682505 0.244891
C8    C     C_3   0.269466 0.254522 0.346022 0.856397
H16   H     H_    0.203563 0.286396 0.389442 -0.114555
C9    C     C_3   0.363209 0.171893 0.373429 0.256248
H17   H     H_    0.428632 0.196956 0.423803 0.082788
P4    P     P_3+3 0.872570 0.287280 0.453240 0.498597
O12   O     O_2   0.701930 0.272470 0.474700 -0.358439
O13   O     O_3   0.944970 0.388780 0.468720 -0.397774
O14   O     O_3   0.463940 0.328280 0.598320 -0.384392
O15   O     O_3   0.844335 0.266372 0.361462 -0.513955
P5    P     P_3+3 0.897933 0.382942 0.724131 0.499461
O16   O     O_3   0.372010 0.546630 0.581240 -0.384253
O17   O     O_3   0.877070 0.374860 0.631520 -0.348741
O18   O     O_2   0.754921 0.437130 0.750028 -0.352049
O19   O     O_3   0.865835 0.274107 0.755646 -0.534755
Ba2   Ba    Ba6+2 0.659830 0.454190 0.535450 1.623897
P6    P     P_3+3 0.371582 0.791567 0.401657 0.433933
C10   C     C_3   0.327059 0.744153 0.268394 0.485792
H18   H     H_    0.445978 0.711844 0.269197 0.018756
H19   H     H_    0.375171 0.808452 0.171064 0.242214
O20   O     O_3   0.438280 0.453360 0.418700 -0.325308
C11   C     C_3   0.424032 0.740048 0.635312 0.307166
H20   H     H_    0.487621 0.719680 0.587906 0.043892
H21   H     H_    0.294164 0.731583 0.623884 0.195410
C12   C     C_3   0.463373 0.840134 0.657025 -0.454947
H22   H     H_    0.593270 0.851439 0.660494 0.158186
H23   H     H_    0.418109 0.884715 0.614910 0.220116
P7    P     P_3+3 0.447718 0.572149 0.669385 0.490938
O21   O     O_2   0.627420 0.543410 0.667830 -0.296906
O22   O     O_3   0.470280 0.688054 0.692501 -0.586757
H24   H     H_    0.823329 0.908167 0.330909 0.235245
C13   C     C_3   0.010418 0.226457 0.758659 0.280765
H25   H     H_    0.056459 0.221141 0.705112 0.030133
H26   H     H_    0.100591 0.262963 0.795946 0.069014
C14   C     C_3   0.986357 0.128060 0.783429 0.004100
H27   H     H_    0.085495 0.086518 0.763644 0.110647
P8    P     P_3+3 0.439566 0.211248 0.606364 0.435897
C15   C     C_3   0.443099 0.268994 0.737121 0.397772
H28   H     H_    0.313393 0.280538 0.728346 -0.048178
O23   O     O_2   0.574851 0.166139 0.566490 -0.392446
O24   O     O_3   0.486432 0.191103 0.696147 -0.533921
H29   H     H_    0.507542 0.331067 0.722367 0.140868
H30   H     H_    0.424540 0.315881 0.845815 0.209660
C16   C     C_3   0.486925 0.261104 0.816642 -0.471023
H31   H     H_    0.617112 0.273835 0.827830 0.227604
C17   C     C_R   0.007738 0.947410 0.541909 0.432807
C18   C     C_R   0.817736 0.810855 0.509974 0.188896
C19   C     C_R   0.667036 0.782573 0.480031 -0.444399
C20   C     C_R   0.565133 0.840406 0.443458 0.280122
C21   C     C_R   0.612203 0.932428 0.438334 -0.298435
C22   C     C_R   0.759744 0.967327 0.470846 0.028565
C23   C     C_R   0.865046 0.907108 0.507866 -0.097239
H32   H     H_    0.627126 0.713229 0.485730 0.198099
C24   C     C_R   0.943669 0.101345 0.501154 -0.082562
C25   C     C_R   0.050990 0.041111 0.535862 -0.015932
C26   C     C_R   0.986977 0.197897 0.501906 0.253529
C27   C     C_R   0.132276 0.229021 0.537128 -0.471238
C28   C     C_R   0.240206 0.168756 0.568117 0.207147
C29   C     C_R   0.200050 0.076099 0.566912 -0.268885
C30   C     C_R   0.800118 0.062272 0.467601 -0.104002
H33   H     H_    0.534036 0.976816 0.408783 0.184952
H34   H     H_    0.290204 0.031291 0.588380 0.186994
H35   H     H_    0.165815 0.300758 0.537402 0.168675
H36   H     H_    0.717195 0.105560 0.439409 0.207741
C31   C     C_R   0.594902 0.546902 0.298816 0.021564
C32   C     C_R   0.455315 0.496553 0.279138 0.255906
C33   C     C_R   0.400504 0.488104 0.207576 -0.362873
C34   C     C_R   0.490584 0.524035 0.155040 -0.099711
C35   C     C_R   0.645730 0.559888 0.175092 0.309116
C36   C     C_R   0.696858 0.571278 0.247362 -0.002493
C37   C     C_R   0.439945 0.592872 0.036134 -0.086111
C38   C     C_R   0.388852 0.584673 0.964209 -0.190245
C39   C     C_R   0.314832 0.503455 0.934439 0.017685
C40   C     C_R   0.288444 0.431510 0.979931 0.458654
C41   C     C_R   0.346636 0.438780 0.050893 -0.201467
C42   C     C_R   0.425441 0.518541 0.079655 0.168086
C43   C     C_R   0.121412 0.456946 0.830411 -0.145752
C44   C     C_R   0.086144 0.440419 0.757925 0.238565
C45   C     C_R   0.336997 0.512731 0.734458 0.266790
C46   C     C_R   0.377476 0.524310 0.807544 -0.279436
C47   C     C_R   0.270759 0.494572 0.856561 0.056246
C48   C     C_R   0.193754 0.468172 0.710274 -0.412878
H37   H     H_    0.489829 0.557789 0.825900 0.177573
H38   H     H_    0.406123 0.642426 0.931831 0.151118
H39   H     H_    0.492934 0.657175 0.057589 0.148936
H40   H     H_    0.287582 0.452993 0.193071 0.218272
H41   H     H_    0.331919 0.380898 0.083442 0.181784
H42   H     H_    0.031690 0.440177 0.866011 0.188196
H43   H     H_    0.162403 0.458826 0.654054 0.163198
Cl1   Cl    Cl    0.892688 0.641685 0.746696 -0.624193
Cl2   Cl    Cl    0.132941 0.222494 0.272449 -0.635465
Cl3   Cl    Cl    0.515858 0.136948 0.316286 -0.625037
C49   C     C_3   0.256342 0.091635 0.391384 -0.522046
C50   C     C_3   0.221023 0.017986 0.332898 -0.566076
H44   H     H_    0.139391 0.042108 0.289544 0.269184
H45   H     H_    0.330919 0.991551 0.311059 0.291058
H46   H     H_    0.161921 0.961076 0.357302 0.252130
H47   H     H_    0.313555 0.058589 0.437865 0.210720
H48   H     H_    0.140571 0.118197 0.405484 0.192569
C51   C     C_3   0.398370 0.865483 0.729190 -0.077561
C52   C     C_3   0.408917 0.967486 0.746729 -0.954361
H49   H     H_    0.342559 0.006482 0.705513 0.298998
H50   H     H_    0.355982 0.981634 0.798145 0.240331
H51   H     H_    0.536750 0.989258 0.751219 0.259504
H52   H     H_    0.272189 0.841855 0.730264 0.233390
H53   H     H_    0.469077 0.830748 0.771694 0.199143
C53   C     C_3   0.829122 0.082397 0.751810 -0.268652
C54   C     C_3   0.823905 0.068649 0.672105 -0.805838
H54   H     H_    0.829047 0.135264 0.646805 0.297913
H55   H     H_    0.927738 0.028107 0.659152 0.259780
H56   H     H_    0.712813 0.030930 0.651878 0.258475
H57   H     H_    0.814209 0.014507 0.774627 0.177568
H58   H     H_    0.728038 0.125373 0.764748 0.258164
C55   C     C_3   0.002586 0.122100 0.864882 -0.403341
C56   C     C_3   0.875267 0.172537 0.903798 -0.702305
H59   H     H_    0.872543 0.246095 0.891410 0.290794
H60   H     H_    0.758335 0.138942 0.889174 0.230871
H61   H     H_    0.901368 0.167894 0.961724 0.263351
H62   H     H_    0.999909 0.048825 0.878310 0.195412
H63   H     H_    0.118775 0.150553 0.886540 0.234606
C57   C     C_3   0.442642 0.168130 0.843886 -0.236548
C58   C     C_3   0.464221 0.165220 0.924710 -0.833570
H64   H     H_    0.553837 0.217082 0.947799 0.277598
H65   H     H_    0.350771 0.176877 0.949383 0.301766
H66   H     H_    0.504709 0.096176 0.939536 0.231526
H67   H     H_    0.320211 0.148232 0.823935 0.183255
H68   H     H_    0.520676 0.116338 0.821997 0.203064
Cl4   Cl    Cl    0.111624 0.892672 0.609348 -0.779888
C59   C     C_3   0.744247 0.824380 0.193185 -0.385000
C60   C     C_3   0.647551 0.910967 0.206084 -0.873497
H69   H     H_    0.566524 0.901845 0.249007 0.283441
H70   H     H_    0.728730 0.970678 0.220690 0.298494
H71   H     H_    0.575258 0.926346 0.156859 0.266611
H72   H     H_    0.838716 0.840463 0.157217 0.232225
H73   H     H_    0.663942 0.770920 0.165435 0.190011
Cl5   Cl    Cl    0.185594 0.329570 0.951954 -0.771030
Cl6   Cl    Cl    0.780936 0.582957 0.110540 -0.612995
Cl7   Cl    Cl    0.639215 0.581229 0.387732 -0.589566

loop_
_geom_bond_atom_site_label_1
_geom_bond_atom_site_label_2
_geom_bond_distance
_ccdc_geom_bond_type
C59   H73   1.111899 S    
P5    C44   1.836967 S    
O5    C6    1.401835 S    
C9    C49   1.533733 S    
C57   C58   1.535281 S    
O3    P6    1.762713 S    
C5    H10   1.104385 S    
C7    H15   1.104104 S    
C37   C42   1.406666 A    
C38   H38   1.083040 S    
C2    H4    1.115109 S    
C4    C5    1.525362 S    
O7    Ba1   2.808258 S    
C22   C23   1.429039 A    
C8    Cl2   1.780939 S    
C16   C57   1.528904 S    
C29   H34   1.078285 S    
C39   C47   1.497164 S    
P5    O17   1.752885 S    
C20   C21   1.407251 A    
C38   C39   1.406742 A    
C52   H50   1.113339 S    
C59   C60   1.532610 S    
P3    O11   1.745226 S    
O4    P6    1.546321 D    
O19   C13   1.406224 S    
C2    C3    1.518731 S    
C4    H8    1.108501 S    
O11   C2    1.413192 S    
C8    H16   1.113093 S    
C7    H13   1.110138 S    
O12   Ba2   2.881816 S    
O16   P7    1.767103 S    
C14   C55   1.549881 S    
C11   H21   1.099383 S    
C53   C54   1.514664 S    
C9    Cl3   1.801498 S    
P1    Ba1   3.425251 S    
C46   C47   1.416872 A    
O14   P8    1.736452 S    
P1    O1    1.531753 D    
P4    O15   1.753178 S    
C56   H61   1.111538 S    
C6    Cl1   1.778417 S    
C12   H23   1.105784 S    
C21   H33   1.077191 S    
C40   C41   1.398127 A    
C51   H53   1.113695 S    
O6    P6    1.756342 S    
C58   H66   1.112538 S    
C32   C33   1.401763 A    
C49   H48   1.097326 S    
C58   H65   1.102794 S    
C41   C42   1.399955 A    
C13   H25   1.113469 S    
C15   O24   1.414732 S    
P2    O10   1.738647 S    
C56   H59   1.112621 S    
C48   H43   1.082501 S    
C1    H2    1.111837 S    
C27   H35   1.082135 S    
C7    H14   1.110718 S    
O2    Ba1   2.936857 S    
C45   C48   1.395825 A    
C11   C12   1.526231 S    
C18   C23   1.460536 A    
P7    C45   1.842621 S    
C35   Cl6   1.770840 S    
C3    H5    1.109472 S    
C3    H24   1.107525 S    
C5    H11   1.106621 S    
C60   H70   1.111609 S    
C31   Cl7   1.749991 S    
C28   C29   1.390531 A    
P4    O13   1.601645 S    
P8    C28   1.860409 S    
C54   H56   1.110555 S    
C34   C35   1.415407 A    
C11   O22   1.391436 S    
P5    O18   1.543919 D    
C53   H57   1.111698 S    
C52   H51   1.110544 S    
C15   H28   1.105343 S    
C41   H41   1.083260 S    
P1    O5    1.763978 S    
C31   C32   1.392352 A    
C19   C20   1.385580 A    
C54   H55   1.096448 S    
Ba1   O13   2.859565 S    
H1    C10   1.108798 S    
C34   C42   1.492841 S    
C21   C22   1.419214 A    
P3    C36   1.838320 S    
P5    O19   1.751903 S    
O14   Ba2   2.816794 S    
C11   H20   1.109992 S    
C17   C25   1.424961 A    
H30   C16   1.110480 S    
O1    Ba1   2.881270 S    
P1    O2    1.601644 S    
C6    C7    1.524886 S    
C50   H45   1.105182 S    
P2    C32   1.850358 S    
C51   H52   1.110894 S    
C24   C26   1.452334 A    
C18   C19   1.396643 A    
C53   H58   1.097555 S    
C37   C38   1.400508 A    
O17   Ba2   2.788943 S    
C22   C30   1.430054 A    
C27   C28   1.392261 A    
C4    H7    1.108020 S    
O8    Ba1   2.788444 S    
C1    H3    1.110153 S    
C44   C48   1.394102 A    
C43   C47   1.408114 A    
P2    O20   1.550412 S    
C9    H17   1.111106 S    
P2    O7    1.534843 D    
Ba1   O16   2.787506 S    
P3    O8    1.751254 S    
P2    Ba1   3.391414 S    
C15   H29   1.108284 S    
C60   H69   1.110538 S    
P8    O23   1.547250 D    
C50   H46   1.101451 S    
C19   H32   1.076545 S    
C37   H39   1.082873 S    
C31   C36   1.400387 A    
C14   C53   1.538686 S    
C43   C44   1.395468 A    
C35   C36   1.409101 A    
C59   H72   1.113318 S    
C57   H68   1.094427 S    
C10   H18   1.109228 S    
C16   H31   1.108765 S    
C15   C16   1.538435 S    
P6    C20   1.871253 S    
O2    Ba2   2.860165 S    
C46   H37   1.082738 S    
C24   C30   1.420017 A    
P1    C18   1.896392 S    
C1    H19   1.105439 S    
C52   H49   1.112197 S    
Ba1   Ba2   4.623445 S    
C55   H62   1.113973 S    
C4    O15   1.403627 S    
C6    H12   1.105301 S    
Ba1   O20   2.949734 S    
C3    H6    1.106972 S    
C50   H44   1.106548 S    
C49   C50   1.519220 S    
C14   H27   1.113237 S    
C39   C40   1.418803 A    
P7    O21   1.572631 D    
C8    C9    1.542119 S    
O13   Ba2   2.937712 S    
C24   C25   1.419021 A    
C58   H64   1.111954 S    
C43   H42   1.081242 S    
C17   Cl4   1.731494 S    
C13   C14   1.550806 S    
C17   C23   1.424385 A    
C30   H36   1.078233 S    
C26   C27   1.405905 A    
P4    C26   1.873028 S    
O10   C8    1.388224 S    
C56   H60   1.102025 S    
C12   H22   1.096674 S    
O3    Ba1   2.817499 S    
Ba2   O20   2.787085 S    
C25   C29   1.420798 A    
C49   H47   1.108933 S    
C54   H54   1.108868 S    
O16   Ba2   2.948891 S    
C60   H71   1.110957 S    
C13   H26   1.110230 S    
P4    O12   1.532114 D    
P3    O9    1.545843 D    
P4    Ba2   3.425815 S    
C33   C34   1.411697 A    
P8    O24   1.761742 S    
C55   C56   1.521449 S    
C51   C52   1.512525 S    
C55   H63   1.098219 S    
C1    C10   1.522576 S    
C2    C59   1.544490 S    
O6    C10   1.407044 S    
C33   H40   1.082436 S    
C57   H67   1.098839 S    
Ba2   O21   2.808270 S    
C45   C46   1.406244 A    
C12   C51   1.542124 S    
P7    O22   1.734446 S    
C5    H9    1.106945 S    
C40   Cl5   1.752034 S    
