data_mof_unit_1726.cif
_audit_creation_date              2012-12-11T16:32:21-0500
_audit_creation_method            fapswitch 2.2
_symmetry_space_group_name_H-M    P1
_symmetry_Int_Tables_number       1
_space_group_crystal_system       triclinic
_cell_length_a                    6.961727
_cell_length_b                    14.636455
_cell_length_c                    15.925156
_cell_angle_alpha                 90.465765
_cell_angle_beta                  90.180795
_cell_angle_gamma                 91.080178
_cell_volume                      1622.34298052

loop_
_atom_site_label
_atom_site_type_symbol
_atom_type_description
_atom_site_fract_x
_atom_site_fract_y
_atom_site_fract_z
_atom_type_partial_charge
O1    O     O_R   0.361630 0.167340 0.164570 -0.539260
O2    O     O_R   0.638370 0.832660 0.835430 -0.539260
O3    O     O_R   0.690860 0.157560 0.338690 -0.537932
O4    O     O_R   0.309140 0.842440 0.661310 -0.537933
O5    O     O_R   0.861260 0.336420 0.339380 -0.555387
O6    O     O_R   0.138740 0.663580 0.660620 -0.555387
C1    C     C_R   0.521008 0.134534 0.367993 0.656693
C2    C     C_R   0.478992 0.865466 0.632006 0.656692
O7    O     O_R   0.691330 0.156310 0.165190 -0.534653
O8    O     O_R   0.308670 0.843690 0.834810 -0.534654
O9    O     O_R   0.861730 0.335160 0.164640 -0.552828
O10   O     O_R   0.138270 0.664840 0.835360 -0.552828
C3    C     C_R   0.521087 0.138011 0.133466 0.698203
C4    C     C_R   0.478913 0.861989 0.866534 0.698202
O11   O     O_R   0.361150 0.168600 0.339320 -0.538670
O12   O     O_R   0.638850 0.831400 0.660680 -0.538670
O13   O     O_3   0.527950 0.310560 0.252000 -0.373362
O14   O     O_3   0.472050 0.689440 0.748000 -0.373361
V1    V     V_3+5 0.802770 0.240990 0.251980 1.396241
V2    V     V_3+5 0.197230 0.759010 0.748020 1.396242
O15   O     O_R   0.191450 0.346190 0.165260 -0.531555
O16   O     O_R   0.808550 0.653810 0.834740 -0.531555
C5    C     C_R   0.024228 0.374799 0.142302 0.685296
C6    C     C_R   0.975772 0.625202 0.857699 0.685298
O17   O     O_R   0.190980 0.347440 0.338770 -0.518580
O18   O     O_R   0.809020 0.652560 0.661230 -0.518580
C7    C     C_R   0.022547 0.371009 0.366520 0.689218
C8    C     C_R   0.977452 0.628992 0.633480 0.689218
V3    V     V_3+5 0.302780 0.262760 0.251980 1.436053
V4    V     V_3+5 0.697220 0.737240 0.748020 1.436054
O19   O     O_3   0.027730 0.193200 0.251960 -0.367638
O20   O     O_3   0.972270 0.806800 0.748040 -0.367638
C9    C     C_3   0.831107 0.455838 0.489783 -0.104632
C10   C     C_3   0.168891 0.544164 0.510216 -0.104631
C11   C     C_3   0.956467 0.453690 0.569947 -0.141546
C12   C     C_3   0.043531 0.546311 0.430052 -0.141543
H1    H     H_    0.923799 0.410136 0.624670 0.117082
H2    H     H_    0.076196 0.589865 0.375328 0.117081
H3    H     H_    0.690419 0.419845 0.481414 0.114671
H4    H     H_    0.309580 0.580156 0.518584 0.114670
C13   C     C_3   0.988165 0.558176 0.564152 0.007323
C14   C     C_3   0.011833 0.441825 0.435847 0.007323
C15   C     C_3   0.862969 0.560747 0.484770 -0.157574
C16   C     C_3   0.137029 0.439254 0.515229 -0.157572
H5    H     H_    0.748601 0.611021 0.473174 0.101496
H6    H     H_    0.251398 0.388981 0.526825 0.101496
H7    H     H_    0.857578 0.292286 0.773096 0.106433
H8    H     H_    0.142418 0.707715 0.226906 0.106431
C17   C     C_R   0.010495 0.692113 0.024013 -0.145346
C18   C     C_R   0.989505 0.307888 0.975988 -0.145344
C19   C     C_R   0.049492 0.730686 0.101890 -0.126743
C20   C     C_R   0.950507 0.269316 0.898111 -0.126745
C21   C     C_R   0.099979 0.675547 0.167925 -0.125015
C22   C     C_R   0.900018 0.324454 0.832077 -0.125015
C23   C     C_R   0.104930 0.580609 0.157904 -0.025847
C24   C     C_R   0.895067 0.419392 0.842098 -0.025848
C25   C     C_R   0.047411 0.537567 0.080758 0.022269
C26   C     C_R   0.952588 0.462434 0.919244 0.022267
C27   C     C_R   0.012236 0.596075 0.011068 0.066184
C28   C     C_R   0.987763 0.403926 0.988933 0.066184
C29   C     C_R   0.023273 0.440461 0.070228 -0.192508
C30   C     C_R   0.976726 0.559540 0.929773 -0.192509
H9    H     H_    0.975643 0.739084 0.974402 0.118318
H10   H     H_    0.024359 0.260917 0.025599 0.118320
H11   H     H_    0.046941 0.804134 0.110341 0.132648
H12   H     H_    0.953060 0.195867 0.889661 0.132649
C31   C     C_3   0.321910 0.025387 0.479351 -0.108122
C32   C     C_3   0.678090 0.974613 0.520649 -0.108122
C33   C     C_3   0.398257 0.926536 0.473379 -0.140264
C34   C     C_3   0.601743 0.073463 0.526621 -0.140264
H13   H     H_    0.313931 0.866098 0.450614 0.094143
H14   H     H_    0.686069 0.133902 0.549386 0.094143
H15   H     H_    0.173691 0.045716 0.462927 0.106969
H16   H     H_    0.826309 0.954283 0.537073 0.106969
C35   C     C_3   0.491074 0.937442 0.561368 -0.011500
C36   C     C_3   0.508926 0.062558 0.438632 -0.011501
C37   C     C_3   0.414733 0.035803 0.567809 -0.141454
C38   C     C_3   0.585267 0.964197 0.432191 -0.141455
H17   H     H_    0.343838 0.066089 0.623534 0.097729
H18   H     H_    0.656161 0.933911 0.376465 0.097730
H19   H     H_    0.477467 0.838164 0.255597 0.105516
H20   H     H_    0.522523 0.161834 0.744400 0.105516
C39   C     C_R   0.471490 0.185459 0.956282 -0.185866
C40   C     C_R   0.528517 0.814541 0.043717 -0.185867
C41   C     C_R   0.468956 0.210929 0.871289 0.077172
C42   C     C_R   0.531046 0.789071 0.128711 0.077173
C43   C     C_R   0.505320 0.144369 0.809827 -0.190310
C44   C     C_R   0.494676 0.855630 0.190172 -0.190310
C45   C     C_R   0.514187 0.053128 0.830763 -0.159233
C46   C     C_R   0.485808 0.946871 0.169236 -0.159235
C47   C     C_R   0.500225 0.025631 0.914913 0.078992
C48   C     C_R   0.499775 0.974369 0.085086 0.078991
C49   C     C_R   0.494241 0.093532 0.979363 0.038329
C50   C     C_R   0.505763 0.906468 0.020637 0.038330
C51   C     C_R   0.496321 0.931998 0.935084 -0.171624
C52   C     C_R   0.503680 0.068002 0.064916 -0.171625
H21   H     H_    0.446591 0.236198 0.004431 0.096306
H22   H     H_    0.553423 0.763803 0.995569 0.096307
H23   H     H_    0.532711 0.004524 0.779987 0.106504
H24   H     H_    0.467278 0.995475 0.220011 0.106505
C53   C     C_R   0.420794 0.305104 0.845389 0.113443
C54   C     C_R   0.340218 0.319562 0.765340 -0.131618
C55   C     C_R   0.299288 0.406948 0.738917 -0.139000
C56   C     C_R   0.329476 0.480869 0.792374 -0.053159
C57   C     C_R   0.404002 0.468609 0.872849 -0.096497
C58   C     C_R   0.450960 0.381090 0.899302 -0.123889
H25   H     H_    0.304833 0.263760 0.722854 0.092565
H26   H     H_    0.244435 0.417546 0.676806 0.109648
H27   H     H_    0.300348 0.547281 0.768975 0.160694
H28   H     H_    0.430106 0.527002 0.913643 0.106839
H29   H     H_    0.516412 0.374149 0.960436 0.097867
C59   C     C_R   0.579203 0.694895 0.154610 0.113443
C60   C     C_R   0.659773 0.680435 0.234660 -0.131614
C61   C     C_R   0.700706 0.593048 0.261080 -0.138999
C62   C     C_R   0.670518 0.519128 0.207621 -0.053163
C63   C     C_R   0.595992 0.531390 0.127147 -0.096500
C64   C     C_R   0.549037 0.618910 0.100695 -0.123889
H30   H     H_    0.695155 0.736235 0.277148 0.092563
H31   H     H_    0.755554 0.582448 0.323192 0.109650
H32   H     H_    0.699644 0.452716 0.231019 0.160698
H33   H     H_    0.569887 0.472999 0.086352 0.106838
H34   H     H_    0.483587 0.625852 0.039561 0.097868
C65   C     C_1   0.203227 0.534879 0.223681 0.233031
N1    N     N_1   0.290228 0.502097 0.276859 -0.342267
C66   C     C_1   0.796772 0.465122 0.776321 0.233033
N2    N     N_1   0.709772 0.497905 0.723142 -0.342264

loop_
_geom_bond_atom_site_label_1
_geom_bond_atom_site_label_2
_ccdc_geom_bond_type
C26   C30   A    
C57   H28   S    
C53   C54   A    
C17   H9    S    
O13   V3    S    
C21   C23   A    
C12   C14   S    
C31   C37   S    
O4    C2    A    
V1    O19   S    
C61   C62   A    
C41   C53   S    
C65   N1    T    
C32   C35   S    
O9    V1    S    
C9    H3    S    
C45   H23   S    
C10   H4    S    
C9    C14   S    
C11   H1    S    
C36   C38   S    
O3    C1    A    
C59   C64   A    
C42   C44   A    
C25   C27   A    
C32   H16   S    
C62   C63   A    
C39   C49   A    
C8    C13   S    
C48   C52   A    
C18   H10   S    
C63   C64   A    
C19   H11   S    
C33   H13   S    
O7    C3    A    
C56   C57   A    
C9    C11   S    
O5    C7    A    
O7    V1    S    
O6    C8    A    
O8    V2    S    
C17   C19   A    
C18   C20   A    
O3    V1    S    
C55   H26   S    
C31   H15   S    
C45   C47   A    
O14   V2    S    
C61   H31   S    
C1    O11   A    
C2    O12   A    
C34   C37   S    
C32   C38   S    
C13   C15   S    
C33   C38   S    
C50   C51   A    
C10   C13   S    
C14   C16   S    
C11   C13   S    
C46   H24   S    
C59   C60   A    
C20   C22   A    
O11   V3    S    
C23   C65   S    
C58   H29   S    
C37   H17   S    
O17   V3    S    
H8    C21   S    
C22   C24   A    
C63   H33   S    
C3    C52   S    
C9    C15   S    
C10   C16   S    
O8    C4    A    
C16   H6    S    
O15   V3    S    
C2    C35   S    
C28   C29   A    
C31   C33   S    
C42   C59   S    
C64   H34   S    
C47   C49   A    
C15   H5    S    
C46   C48   A    
O10   V2    S    
O1    V3    S    
C38   H18   S    
C54   H25   S    
C40   C50   A    
C24   C66   S    
C11   C16   S    
C35   C37   S    
H7    C22   S    
O14   V4    S    
C39   C41   A    
C44   C46   A    
O18   V4    S    
C49   C52   A    
O15   C5    A    
C34   C36   S    
C66   N2    T    
O16   C6    A    
O1    C3    A    
O12   V4    S    
C12   H2    S    
C4    C51   S    
C20   H12   S    
C60   C61   A    
V2    O20   S    
C53   C58   A    
C27   C30   A    
C6    C30   S    
O16   V4    S    
C40   C42   A    
C25   C29   A    
C1    C36   S    
O5    V1    S    
O17   C7    A    
O6    V2    S    
C57   C58   A    
O10   C6    A    
O18   C8    A    
C17   C27   A    
O2    V4    S    
C40   H22   S    
C23   C25   A    
C18   C28   A    
V3    O19   S    
V4    O20   S    
C7    C14   S    
C48   C50   A    
C56   H27   S    
O9    C5    A    
O13   V1    S    
C24   C26   A    
C33   C35   S    
C10   C12   S    
C54   C55   A    
O2    C4    A    
H19   C44   S    
C47   C51   A    
C60   H30   S    
O4    V2    S    
C41   C43   A    
C5    C29   S    
C32   C34   S    
C62   H32   S    
C39   H21   S    
C55   C56   A    
C43   C45   A    
C12   C15   S    
C34   H14   S    
C31   C36   S    
C19   C21   A    
C26   C28   A    
H20   C43   S    
