data_mof_unit_992.cif
_audit_creation_date              2012-12-11T18:11:07-0500
_audit_creation_method            fapswitch 2.2
_symmetry_space_group_name_H-M    P1
_symmetry_Int_Tables_number       1
_space_group_crystal_system       triclinic
_cell_length_a                    8.279405
_cell_length_b                    12.639448
_cell_length_c                    18.735816
_cell_angle_alpha                 99.584754
_cell_angle_beta                  90.931843
_cell_angle_gamma                 98.725837
_cell_volume                      1909.16743449

loop_
_atom_site_label
_atom_site_type_symbol
_atom_type_description
_atom_site_fract_x
_atom_site_fract_y
_atom_site_fract_z
_atom_type_partial_charge
Ba1   Ba    Ba6+2 0.852780 0.548340 0.465070 1.658577
Ba2   Ba    Ba6+2 0.337060 0.451750 0.534940 1.670030
C1    C     C_3   0.584484 0.898164 0.249858 -0.354865
C2    C     C_R   0.902110 0.395393 0.096435 -0.099134
C3    C     C_R   0.767790 0.436000 0.959179 -0.115402
C4    C     C_3   0.131454 0.762043 0.265202 0.451890
C5    C     C_R   0.935775 0.462146 0.979463 0.023773
C6    C     C_R   0.712066 0.436720 0.888781 -0.096159
C7    C     C_R   0.821537 0.457233 0.834926 0.021509
C8    C     C_R   0.985662 0.501529 0.856475 0.036342
C9    C     C_R   0.043283 0.504502 0.929265 0.019733
C10   C     C_R   0.771097 0.440298 0.760857 0.014765
C11   C     C_R   0.879117 0.478214 0.710930 -0.225033
C12   C     C_3   0.633878 0.819415 0.296184 0.302078
C13   C     C_R   0.031924 0.538814 0.732973 0.083641
C14   C     C_R   0.088527 0.548636 0.806489 0.000309
C15   C     C_R   0.160549 0.498912 0.071749 0.024990
C16   C     C_3   0.106728 0.785967 0.189119 0.550697
C17   C     C_R   0.218035 0.497820 0.144077 -0.008886
C18   C     C_R   0.113776 0.448333 0.193023 -0.042919
C19   C     C_R   0.960606 0.391215 0.165944 -0.014323
C20   C     C_R   0.241767 0.606593 0.832597 -0.012129
C21   C     C_R   0.301262 0.605564 0.902472 -0.085468
C22   C     C_R   0.206537 0.551147 0.951480 0.002248
C23   C     C_3   0.460031 0.280765 0.313630 0.337373
C24   C     C_R   0.266361 0.546906 0.022775 0.025504
C25   C     C_R   0.430369 0.586521 0.046401 -0.097112
C26   C     C_R   0.380264 0.545597 0.167153 -0.036485
C27   C     C_R   0.485396 0.586265 0.116786 -0.089407
C28   C     C_3   0.236550 0.788415 0.621081 0.271134
C29   C     C_R   0.432852 0.551328 0.239949 -0.005501
C30   C     C_R   0.324021 0.511412 0.289119 -0.296569
C31   C     C_R   0.166818 0.457194 0.267000 0.040911
C32   C     C_R   0.767832 0.180360 0.519592 -0.295744
C33   C     C_R   0.427982 0.805613 0.469353 -0.291820
C34   C     C_3   0.439751 0.246832 0.231779 -0.345122
C35   C     C_R   0.404590 0.982016 0.441167 -0.108316
C36   C     C_R   0.339119 0.873924 0.439126 -0.012933
C37   C     C_R   0.578446 0.846404 0.506667 0.073797
C38   C     C_R   0.644760 0.958065 0.510840 -0.059198
C39   C     C_R   0.556141 0.026062 0.477158 -0.086206
C40   C     C_3   0.244537 0.910654 0.636691 -0.363777
C41   C     C_R   0.619072 0.137521 0.482576 0.034027
C42   C     C_R   0.858696 0.114079 0.549539 -0.003959
C43   C     C_R   0.796098 0.004613 0.547593 -0.077043
C44   C     C_3   0.958539 0.209170 0.376189 0.375723
C45   C     C_3   0.011709 0.198480 0.726624 0.294266
C46   C     C_3   0.952745 0.087242 0.357697 0.542465
C47   C     C_3   0.742936 0.719267 0.684787 0.264834
C48   C     C_3   0.743459 0.759576 0.766129 0.424889
C49   C     C_3   0.964856 0.207748 0.861925 -0.272102
C50   C     C_3   0.944560 0.142618 0.923649 -0.386854
C51   C     C_3   0.568761 0.168783 0.751540 -0.251760
C52   C     C_3   0.550004 0.136742 0.669366 -0.382076
C53   C     C_3   0.976572 0.133990 0.789004 -0.208205
C54   C     C_3   0.425849 0.220534 0.785105 0.324895
C55   C     C_3   0.425905 0.220418 0.867119 -0.438787
C56   C     C_R   0.997069 0.453184 0.049303 0.005232
F1    F     F_    0.103702 0.064952 0.334818 -0.659455
F2    F     F_    0.804886 0.688869 0.804065 -0.744255
F3    F     F_    0.190977 0.887279 0.183549 -0.672362
H1    H     H_    0.723587 0.864283 0.339577 0.065275
H2    H     H_    0.663123 0.639220 0.671195 0.069828
H3    H     H_    0.531920 0.963912 0.284144 0.122787
H4    H     H_    0.820574 0.840739 0.780013 0.024743
H5    H     H_    0.616779 0.766558 0.782723 0.032052
H6    H     H_    0.522748 0.785972 0.322446 -0.032085
H7    H     H_    0.491785 0.854219 0.207507 0.169805
H8    H     H_    0.343333 0.303279 0.334661 0.023430
H9    H     H_    0.558791 0.352027 0.325855 0.040679
H10   H     H_    0.339030 0.177085 0.217863 0.189438
H11   H     H_    0.410288 0.315179 0.206400 0.036294
H12   H     H_    0.325986 0.945588 0.685202 0.115998
H13   H     H_    0.555026 0.222784 0.209650 0.109943
H14   H     H_    0.692267 0.934301 0.222722 0.134241
H15   H     H_    0.152305 0.723653 0.148965 -0.080782
H16   H     H_    0.089666 0.277855 0.746379 0.072640
H17   H     H_    0.895413 0.215208 0.704440 -0.065977
H18   H     H_    0.861449 0.075621 0.775639 0.097838
H19   H     H_    0.074520 0.084411 0.794414 0.122733
H20   H     H_    0.316364 0.163067 0.763343 0.107972
H21   H     H_    0.551929 0.236607 0.891566 0.106495
H22   H     H_    0.368953 0.139486 0.877922 0.095969
H23   H     H_    0.292102 0.946394 0.589636 0.087514
H24   H     H_    0.055337 0.682906 0.268744 -0.030642
H25   H     H_    0.355556 0.282163 0.894841 0.133377
H26   H     H_    0.837247 0.469538 0.654921 0.047483
H27   H     H_    0.582214 0.421546 0.877196 0.108631
H28   H     H_    0.882094 0.343741 0.198271 0.099500
H29   H     H_    0.318540 0.654147 0.799817 0.110228
H30   H     H_    0.612439 0.618443 0.130748 0.109420
H31   H     H_    0.365214 0.518184 0.345028 0.068860
H32   H     H_    0.676071 0.417451 0.997452 0.075258
H33   H     H_    0.782580 0.349722 0.079955 0.062623
H34   H     H_    0.120144 0.930606 0.647123 0.143400
H35   H     H_    0.421206 0.651358 0.917052 0.088162
H36   H     H_    0.262221 0.755957 0.274018 -0.158579
H37   H     H_    0.521114 0.617389 0.011366 0.083923
H38   H     H_    0.332765 0.031168 0.416117 0.171981
H39   H     H_    0.867263 0.958267 0.575429 0.105801
H40   H     H_    0.816347 0.265651 0.523071 0.064553
H41   H     H_    0.375088 0.721429 0.467438 0.067286
H42   H     H_    0.974774 0.784306 0.176659 0.043693
H43   H     H_    0.359285 0.768789 0.608229 0.014680
H44   H     H_    0.149602 0.756165 0.573984 0.069050
H45   H     H_    0.835556 0.227469 0.389485 -0.157725
H46   H     H_    0.052066 0.100993 0.928697 0.143022
H47   H     H_    0.934487 0.198206 0.975358 0.132962
H48   H     H_    0.831790 0.081262 0.913781 0.137768
H49   H     H_    0.859082 0.250924 0.860308 0.116116
H50   H     H_    0.076457 0.269564 0.873574 0.126340
H51   H     H_    0.590315 0.056918 0.652929 0.102430
H52   H     H_    0.422133 0.130931 0.648959 0.174077
H53   H     H_    0.627801 0.197600 0.643984 0.104823
H54   H     H_    0.682921 0.224665 0.767813 0.055856
H55   H     H_    0.575906 0.093719 0.774412 0.092131
H56   H     H_    0.046142 0.240543 0.423128 0.033517
H57   H     H_    0.859456 0.053242 0.313595 -0.004568
H58   H     H_    0.920847 0.048800 0.405512 -0.056322
H59   H     H_    0.869195 0.711596 0.669001 0.011788
O1    O     O_2   0.873090 0.425890 0.325140 -0.466772
O2    O     O_2   0.191974 0.119548 0.543886 -0.476355
O3    O     O_3   0.094858 0.137501 0.674002 -0.624184
O4    O     O_3   0.122420 0.434370 0.414380 -0.499816
O5    O     O_3   0.578370 0.633800 0.536380 -0.482245
O6    O     O_2   0.341510 0.231850 0.465510 -0.445549
O7    O     O_3   0.500096 0.193245 0.343643 -0.622820
O8    O     O_2   0.505621 0.511455 0.746924 -0.449779
O9    O     O_3   0.400600 0.323896 0.769717 -0.587930
O10   O     O_3   0.659500 0.627100 0.368810 -0.473127
O11   O     O_2   0.769800 0.543021 0.243463 -0.497034
O12   O     O_3   0.684336 0.796282 0.650062 -0.694741
O13   O     O_3   0.006417 0.253286 0.315117 -0.629280
O14   O     O_3   0.707903 0.740307 0.252202 -0.603726
O15   O     O_2   0.848200 0.768190 0.534530 -0.478952
O16   O     O_3   0.081160 0.685950 0.404810 -0.494594
O17   O     O_2   0.006435 0.879683 0.451160 -0.479512
O18   O     O_3   0.083989 0.845624 0.315824 -0.526662
O19   O     O_2   0.316610 0.574140 0.674900 -0.457918
O20   O     O_3   0.067290 0.565720 0.585630 -0.506433
O21   O     O_3   0.530210 0.372990 0.631200 -0.462981
O22   O     O_3   0.186098 0.747176 0.683194 -0.634135
O23   O     O_3   0.611340 0.366290 0.463630 -0.480368
O24   O     O_3   0.108550 0.314140 0.595200 -0.479909
P1    P     P_3+3 0.041040 0.394770 0.336330 0.985478
P2    P     P_3+3 0.672880 0.754030 0.556100 0.960892
P3    P     P_3+3 0.129130 0.823437 0.403196 1.015126
P4    P     P_3+3 0.148670 0.605320 0.663680 0.979278
P5    P     P_3+3 0.062661 0.172560 0.589356 0.955086
P6    P     P_3+3 0.641853 0.612647 0.275164 0.945677
P7    P     P_3+3 0.519571 0.230515 0.437959 0.973387
P8    P     P_3+3 0.556477 0.398860 0.726837 0.965903

loop_
_geom_bond_atom_site_label_1
_geom_bond_atom_site_label_2
_ccdc_geom_bond_type
O3    P5    S    
C25   H37   S    
C47   H2    S    
C25   C27   A    
Ba2   O24   S    
C10   P8    S    
Ba1   P1    S    
C1    H7    S    
C35   H38   S    
C33   H41   S    
O20   P4    S    
C54   H20   S    
C19   H28   S    
C51   C52   S    
C21   H35   S    
C5    C9    A    
C24   C25   A    
O24   P5    S    
C4    H24   S    
Ba2   O19   S    
C26   C27   A    
Ba1   O5    S    
O5    P2    S    
C13   P4    S    
C47   H59   S    
Ba2   P4    S    
C13   C14   A    
C12   H1    S    
C52   H52   S    
C52   H53   S    
C9    C22   A    
C55   H25   S    
Ba1   Ba2   S    
O7    P7    S    
O8    P8    D    
C17   C18   A    
C50   H46   S    
C6    C7    A    
O10   P6    S    
C14   C20   A    
C21   C22   A    
C55   H22   S    
C49   H50   S    
Ba1   O16   S    
C1    H14   S    
C7    C8    A    
C5    C56   A    
C54   O9    S    
C34   H10   S    
C15   C56   A    
O23   P7    S    
Ba2   O23   S    
C39   C41   A    
Ba1   P2    S    
C48   H4    S    
C46   H58   S    
C38   C43   A    
C4    C16   S    
C47   O12   S    
C44   C46   S    
O19   P4    D    
C32   H40   S    
C49   C50   S    
O2    P5    D    
O22   P4    S    
C33   C36   A    
C32   C42   A    
O9    P8    S    
Ba1   O10   S    
C37   C38   A    
C3    C5    A    
C29   P6    S    
C46   H57   S    
C12   O14   S    
C1    H3    S    
C40   H34   S    
C44   H56   S    
C6    H27   S    
C4    O18   S    
C33   C37   A    
C4    H36   S    
C35   C36   A    
Ba1   O23   S    
C53   H18   S    
O6    P7    D    
C45   O3    S    
C29   C30   A    
C40   H23   S    
O18   P3    S    
C12   H6    S    
O15   P2    D    
C11   H26   S    
C20   H29   S    
C52   H51   S    
C10   C11   A    
C2    C19   A    
C17   C26   A    
C48   H5    S    
C1    C12   S    
C31   P1    S    
C2    H33   S    
C18   C31   A    
Ba2   O6    S    
C38   C39   A    
C49   H49   S    
C11   C13   A    
C28   H44   S    
O1    P1    D    
O13   P1    S    
C54   C55   S    
C15   C24   A    
C28   H43   S    
C27   H30   S    
C41   P7    S    
C42   C43   A    
C46   F1    S    
C45   C53   S    
C51   C54   S    
C34   H13   S    
C40   H12   S    
C16   H15   S    
C55   H21   S    
O17   P3    D    
C26   C29   A    
C32   C41   A    
C22   C24   A    
C43   H39   S    
C3    C6    A    
C3    H32   S    
C51   H55   S    
C16   F3    S    
Ba2   O4    S    
O4    P1    S    
C42   P5    S    
C28   O22   S    
Ba2   O20   S    
C30   C31   A    
C23   O7    S    
Ba1   O4    S    
C48   F2    S    
C8    C14   A    
C44   O13   S    
C53   H19   S    
C30   H31   S    
C50   H48   S    
C44   H45   S    
C37   P2    S    
C15   C17   A    
C49   C53   S    
C16   H42   S    
C35   C39   A    
C7    C10   A    
Ba1   O1    S    
C36   P3    S    
O16   P3    S    
C8    C9    A    
C23   C34   S    
Ba2   O5    S    
C51   H54   S    
C23   H8    S    
C18   C19   A    
C50   H47   S    
O12   P2    S    
C47   C48   S    
C2    C56   A    
Ba2   O21   S    
C45   H16   S    
C20   C21   A    
C28   C40   S    
O11   P6    D    
Ba1   O20   S    
C23   H9    S    
C45   H17   S    
Ba1   O15   S    
C34   H11   S    
O21   P8    S    
O14   P6    S    
