data_mof_unit_3713.cif
_audit_creation_date              2012-12-11T14:34:02-0500
_audit_creation_method            fapswitch 2.2
_symmetry_space_group_name_H-M    P1
_symmetry_Int_Tables_number       1
_space_group_crystal_system       triclinic
_cell_length_a                    13.839234
_cell_length_b                    13.964889
_cell_length_c                    27.326185
_cell_angle_alpha                 89.967322
_cell_angle_beta                  90.089676
_cell_angle_gamma                 119.608054
_cell_volume                      4591.56111166

loop_
_atom_site_label
_atom_site_type_symbol
_atom_type_description
_atom_site_fract_x
_atom_site_fract_y
_atom_site_fract_z
_atom_type_partial_charge
C1    C     C_R   0.233877 0.787168 0.568762 0.539522
C2    C     C_R   0.212640 0.446505 0.568792 0.542451
C3    C     C_R   0.552684 0.765246 0.569070 0.539247
C4    C     C_3   0.654940 0.731308 0.790590 0.057264
C5    C     C_3   0.246645 0.952928 0.783402 0.056129
C6    C     C_3   0.058062 0.317521 0.786191 0.056496
C7    C     C_3   0.632016 0.718651 0.734481 -0.191863
C8    C     C_3   0.263078 0.935115 0.728534 -0.191874
C9    C     C_3   0.077820 0.353333 0.731439 -0.192323
C10   C     C_1   0.705322 0.861991 0.860487 -0.043496
C11   C     C_1   0.113730 0.880026 0.852729 -0.045070
C12   C     C_1   0.116343 0.233726 0.852584 -0.044651
C13   C     C_1   0.627254 0.814085 0.659260 -0.074812
C14   C     C_1   0.176826 0.818294 0.656392 -0.075364
C15   C     C_1   0.179952 0.359617 0.656531 -0.075341
C16   C     C_1   0.600298 0.795919 0.616903 -0.017018
C17   C     C_1   0.199010 0.805852 0.615207 -0.017320
C18   C     C_1   0.193621 0.393752 0.615297 -0.017461
C19   C     C_R   0.064830 0.150275 0.095984 0.578775
C20   C     C_R   0.777443 0.884051 0.088384 0.548398
C21   C     C_R   0.116502 0.893606 0.088146 0.561226
C22   C     C_R   0.069667 0.160872 0.943164 0.535444
C23   C     C_R   0.779440 0.887066 0.950843 0.541505
C24   C     C_R   0.090710 0.929570 0.943341 0.532685
C25   C     C_R   0.618342 0.895675 0.361484 -0.133078
C26   C     C_R   0.097156 0.732450 0.362828 -0.134662
C27   C     C_R   0.264423 0.357638 0.363763 -0.135463
C28   C     C_R   0.644681 0.911291 0.311864 0.014227
C29   C     C_R   0.080594 0.743908 0.313165 0.014344
C30   C     C_R   0.241466 0.306782 0.317669 0.013995
C31   C     C_R   0.681092 0.929218 0.210390 0.017140
C32   C     C_R   0.060626 0.759863 0.211534 0.016993
C33   C     C_R   0.200851 0.225931 0.220969 0.017042
C34   C     C_R   0.232486 0.788341 0.431805 0.547649
C35   C     C_R   0.211699 0.444486 0.431362 0.549745
C36   C     C_R   0.555607 0.767223 0.431891 0.548735
C37   C     C_R   0.653407 0.000921 0.234503 -0.137854
C38   C     C_R   0.977421 0.670721 0.237590 -0.127692
C39   C     C_R   0.303259 0.256761 0.243566 -0.123868
C40   C     C_R   0.635016 0.991867 0.284982 -0.130893
C41   C     C_R   0.987965 0.662090 0.288071 -0.128833
C42   C     C_R   0.323559 0.297209 0.291533 -0.128741
C43   C     C_R   0.704074 0.939634 0.160140 -0.150093
C44   C     C_R   0.050693 0.771018 0.161172 -0.135248
C45   C     C_R   0.183026 0.195136 0.171511 -0.128578
C46   C     C_R   0.728941 0.864852 0.137127 -0.002889
C47   C     C_R   0.135400 0.861272 0.136248 -0.004764
C48   C     C_R   0.082847 0.172568 0.148627 -0.008903
C49   C     C_R   0.658860 0.744861 0.364104 -0.131514
C50   C     C_R   0.266134 0.910837 0.361895 -0.128545
C51   C     C_R   0.076183 0.328094 0.367971 -0.130406
C52   C     C_R   0.683016 0.757696 0.314572 0.013484
C53   C     C_R   0.254409 0.920460 0.312189 0.013875
C54   C     C_R   0.052713 0.279144 0.321908 0.011771
C55   C     C_R   0.673462 0.839528 0.288023 0.063984
C56   C     C_R   0.162405 0.835871 0.287405 0.063371
C57   C     C_R   0.136244 0.270479 0.296103 0.062643
C58   C     C_R   0.708261 0.684382 0.290573 -0.126851
C59   C     C_R   0.337761 0.009649 0.286443 -0.127149
C60   C     C_R   0.949201 0.245339 0.299999 -0.129204
C61   C     C_R   0.720228 0.689501 0.240108 -0.127059
C62   C     C_R   0.331923 0.013389 0.235857 -0.129416
C63   C     C_R   0.930253 0.208128 0.251819 -0.122486
C64   C     C_R   0.710279 0.769987 0.213562 0.010944
C65   C     C_R   0.240766 0.930024 0.210926 0.014268
C66   C     C_R   0.013428 0.201794 0.225357 0.016647
C67   C     C_3   0.565095 0.856314 0.737438 -0.221121
C68   C     C_3   0.138415 0.730864 0.738556 -0.221375
C69   C     C_3   0.274811 0.390537 0.736861 -0.221805
C70   C     C_R   0.688751 0.846684 0.237344 0.065249
C71   C     C_R   0.154372 0.841894 0.236621 0.063828
C72   C     C_R   0.116245 0.230912 0.247729 0.062051
C73   C     C_R   0.724873 0.776599 0.163581 -0.122743
C74   C     C_R   0.232825 0.936054 0.160769 -0.132326
C75   C     C_R   0.997235 0.171939 0.176172 -0.129284
C76   C     C_R   0.618637 0.807930 0.386705 -0.003403
C77   C     C_R   0.193480 0.813102 0.386380 -0.003744
C78   C     C_R   0.183285 0.372544 0.388102 -0.004955
C79   C     C_3   0.768111 0.920552 0.723452 -0.228517
C80   C     C_3   0.057314 0.850825 0.714246 -0.225951
C81   C     C_3   0.120967 0.201735 0.713266 -0.225720
C82   C     C_3   0.787419 0.933818 0.779555 -0.250063
C83   C     C_3   0.039536 0.865655 0.769112 -0.251904
C84   C     C_3   0.104711 0.168555 0.767960 -0.252535
C85   C     C_1   0.733414 0.872887 0.902747 -0.019869
C86   C     C_1   0.102754 0.900925 0.894371 -0.015363
C87   C     C_1   0.097223 0.201557 0.894196 -0.018947
C88   C     C_3   0.648364 0.827772 0.712234 0.052415
C89   C     C_3   0.158560 0.833143 0.708054 0.052415
C90   C     C_3   0.163884 0.326626 0.708147 0.052590
C91   C     C_3   0.586073 0.870459 0.793478 -0.215945
C92   C     C_3   0.118657 0.746108 0.793260 -0.212300
C93   C     C_3   0.258020 0.355199 0.791435 -0.214032
C94   C     C_3   0.682163 0.848809 0.807612 0.089948
C95   C     C_3   0.129976 0.861213 0.801195 0.088817
C96   C     C_3   0.134436 0.269326 0.801145 0.089237
Cr1   Cr    Cr6+3 0.164410 0.584450 0.499910 1.016659
Cr2   Cr    Cr6+3 0.415550 0.579960 0.499910 1.017149
Cr3   Cr    Cr6+3 0.420040 0.835590 0.499910 1.014111
Cr4   Cr    Cr6+3 0.155170 0.075460 0.019960 1.018426
Cr5   Cr    Cr6+3 0.924540 0.079710 0.019960 1.007576
Cr6   Cr    Cr6+3 0.920290 0.844830 0.019960 1.008832
H1    H     H_    0.607949 0.955720 0.804179 0.107204
H2    H     H_    0.033860 0.680902 0.804077 0.104664
H3    H     H_    0.311544 0.318835 0.800530 0.102919
H4    H     H_    0.478243 0.789868 0.730451 0.105080
H5    H     H_    0.211411 0.718000 0.735478 0.104544
H6    H     H_    0.306325 0.480769 0.734371 0.105325
H7    H     H_    0.508730 0.814123 0.813543 0.113786
H8    H     H_    0.177847 0.734863 0.816789 0.119497
H9    H     H_    0.285753 0.428513 0.815345 0.120478
H10   H     H_    0.730298 0.723798 0.797859 0.125976
H11   H     H_    0.248348 0.033142 0.786863 0.121960
H12   H     H_    0.970285 0.250011 0.790240 0.124063
H13   H     H_    0.706175 0.006957 0.139503 0.104781
H14   H     H_    0.975563 0.713252 0.142017 0.114165
H15   H     H_    0.248301 0.192977 0.150493 0.122022
H16   H     H_    0.588559 0.945667 0.379152 0.127269
H17   H     H_    0.039690 0.657770 0.381987 0.122882
H18   H     H_    0.346942 0.390811 0.379307 0.124387
H19   H     H_    0.645983 0.063840 0.214358 0.098362
H20   H     H_    0.905234 0.606989 0.218833 0.098475
H21   H     H_    0.368926 0.253109 0.223603 0.100681
H22   H     H_    0.612027 0.046928 0.302881 0.099502
H23   H     H_    0.924353 0.591134 0.307376 0.100536
H24   H     H_    0.404523 0.323989 0.307655 0.101766
H25   H     H_    0.742227 0.717130 0.145941 0.129540
H26   H     H_    0.298898 0.005310 0.141429 0.123571
H27   H     H_    0.919014 0.151811 0.158711 0.117849
H28   H     H_    0.737396 0.630721 0.221821 0.098468
H29   H     H_    0.398054 0.081884 0.216280 0.094511
H30   H     H_    0.852172 0.188362 0.234633 0.110552
H31   H     H_    0.715225 0.621027 0.310597 0.101004
H32   H     H_    0.409112 0.074547 0.305243 0.096870
H33   H     H_    0.884537 0.252009 0.319406 0.102905
H34   H     H_    0.573598 0.933681 0.721746 0.115712
H35   H     H_    0.065055 0.655615 0.723972 0.113773
H36   H     H_    0.339071 0.374555 0.720470 0.114259
H37   H     H_    0.661145 0.678573 0.383834 0.127591
H38   H     H_    0.339121 0.974977 0.380155 0.130793
H39   H     H_    0.012445 0.337509 0.386788 0.129766
H40   H     H_    0.829420 0.900990 0.706503 0.112109
H41   H     H_    0.070768 0.924975 0.693436 0.112459
H42   H     H_    0.040587 0.154112 0.693484 0.112508
H43   H     H_    0.782088 0.999692 0.707444 0.116447
H44   H     H_    0.981274 0.778938 0.699237 0.118225
H45   H     H_    0.181207 0.180396 0.696550 0.116865
H46   H     H_    0.809561 0.019057 0.790487 0.108500
H47   H     H_    0.955428 0.799948 0.780535 0.107661
H48   H     H_    0.158736 0.133403 0.777517 0.103586
H49   H     H_    0.858989 0.922338 0.789356 0.094076
H50   H     H_    0.041652 0.945178 0.774378 0.094199
H51   H     H_    0.017168 0.103902 0.774192 0.095815
H52   H     H_    0.546023 0.651239 0.726668 0.121248
H53   H     H_    0.336895 0.924124 0.723603 0.121655
H54   H     H_    0.107626 0.443087 0.727751 0.120439
H55   H     H_    0.689632 0.695172 0.716681 0.092008
H56   H     H_    0.279515 0.009819 0.707362 0.091951
H57   H     H_    0.997562 0.309457 0.711248 0.093340
O1    O     O_R   0.137150 0.468200 0.553200 -0.512046
O2    O     O_R   0.531800 0.668950 0.553200 -0.512147
O3    O     O_R   0.331050 0.862850 0.553200 -0.510595
O4    O     O_R   0.179100 0.982980 0.967000 -0.497130
O5    O     O_R   0.017020 0.196120 0.967000 -0.476900
O6    O     O_R   0.803880 0.820900 0.967000 -0.508329
O7    O     O_R   0.173970 0.688730 0.549930 -0.500895
O8    O     O_R   0.311270 0.485240 0.549930 -0.500261
O9    O     O_R   0.514760 0.826030 0.549930 -0.498920
O10   O     O_R   0.140110 0.470540 0.446010 -0.521676
O11   O     O_R   0.529460 0.669570 0.446010 -0.521529
O12   O     O_R   0.330430 0.859890 0.446010 -0.524055
O13   O     O_R   0.176710 0.690910 0.450560 -0.502018
O14   O     O_R   0.309090 0.485800 0.450560 -0.501178
O15   O     O_R   0.514200 0.823290 0.450560 -0.503912
O16   O     O_3   0.333333 0.666667 0.499990 -0.262278
O17   O     O_R   0.176750 0.985260 0.074180 -0.529760
O18   O     O_R   0.014740 0.191490 0.074180 -0.493587
O19   O     O_R   0.808510 0.823250 0.074180 -0.516829
O20   O     O_R   0.146100 0.172630 0.068980 -0.478486
O21   O     O_R   0.827370 0.973470 0.068980 -0.517630
O22   O     O_R   0.026530 0.853900 0.068980 -0.488797
O23   O     O_3   0.000000 0.000000 0.020040 -0.286666
O24   O     O_R   0.148270 0.170520 0.969620 -0.490976
O25   O     O_R   0.829480 0.977750 0.969620 -0.522799
O26   O     O_R   0.022250 0.851730 0.969620 -0.483895
N1    N     N_2   0.561558 0.645708 0.817805 -0.514373
H58   H     H_    0.485724 0.640112 0.810715 0.247052
C97   C     C_3   0.555788 0.539440 0.819743 -0.328200
H59   H     H_    0.487985 0.484330 0.844870 0.147633
H60   H     H_    0.634909 0.548012 0.833988 0.151734
H61   H     H_    0.538449 0.501398 0.782776 0.124541
N2    N     N_2   0.335542 0.956290 0.813449 -0.511146
H62   H     H_    0.347381 0.889335 0.809639 0.248637
C98   C     C_3   0.438749 0.060028 0.813986 -0.326701
H63   H     H_    0.497226 0.055120 0.840383 0.145299
H64   H     H_    0.423855 0.127778 0.825751 0.150204
H65   H     H_    0.477386 0.078428 0.777089 0.123790
N3    N     N_2   0.076076 0.409082 0.817785 -0.509273
H66   H     H_    0.152376 0.479187 0.813916 0.249102
C99   C     C_3   0.985213 0.432266 0.820495 -0.324606
H67   H     H_    0.005242 0.498257 0.847855 0.149354
H68   H     H_    0.907766 0.357733 0.832267 0.151184
H69   H     H_    0.971803 0.460396 0.784372 0.121866

loop_
_geom_bond_atom_site_label_1
_geom_bond_atom_site_label_2
_ccdc_geom_bond_type
C15   C18   T    
C98   H64   S    
C43   C46   A    
C10   C85   T    
C36   O15   A    
Cr1   O16   S    
C26   C29   A    
C2    C18   S    
C33   C45   A    
C48   C75   A    
C27   C78   A    
C8    H56   S    
C25   H16   S    
Cr2   O2    S    
C6    C9    S    
C53   C59   A    
Cr1   O10   S    
C20   O21   A    
C54   C60   A    
C27   H18   S    
C25   C28   A    
C21   O22   A    
C7    H52   S    
C67   C88   S    
C33   C39   A    
Cr1   O13   S    
C31   C43   A    
C97   H61   S    
C82   C94   S    
Cr3   O9    S    
C37   C40   A    
C69   C93   S    
C80   C83   S    
C34   C77   S    
C64   C70   A    
C50   H38   S    
C45   C48   A    
C79   H40   S    
Cr3   O12   S    
C9    H57   S    
C11   C86   T    
C45   H15   S    
Cr1   O7    S    
C30   C57   A    
Cr2   O11   S    
C39   H21   S    
C97   H60   S    
C84   C96   S    
C4    N1    S    
C80   C89   S    
Cr4   O24   S    
C8    H53   S    
C6    H12   S    
C36   C76   S    
C33   C72   A    
C93   H3    S    
C23   O6    A    
C28   C55   A    
C31   C70   A    
C66   C72   A    
C9    H54   S    
C28   C40   A    
C99   H67   S    
C81   H45   S    
Cr4   O17   S    
Cr6   O23   S    
C64   C73   A    
N3    H66   S    
C68   H5    S    
C32   C38   A    
C39   C42   A    
Cr4   O23   S    
C19   O18   A    
Cr2   O8    S    
C12   C87   T    
C44   C47   A    
C43   H13   S    
C49   C52   A    
C58   C61   A    
C80   H44   S    
C98   H63   S    
C4    H10   S    
C63   C66   A    
C27   C30   A    
C14   C17   T    
C68   H35   S    
C4    C7    S    
C79   C88   S    
C5    C95   S    
C69   H6    S    
C3    O9    A    
C32   C71   A    
C51   H39   S    
C58   H31   S    
C40   H22   S    
C74   H26   S    
C26   C77   A    
C50   C53   A    
Cr1   O1    S    
C41   H23   S    
C83   H47   S    
C26   H17   S    
C47   C74   A    
C38   C41   A    
C79   H43   S    
C6    N3    S    
Cr2   O14   S    
C92   H2    S    
C19   C48   S    
C20   O19   A    
C65   C71   A    
C92   C95   S    
C65   C74   A    
C31   C37   A    
C24   O26   A    
C35   O14   A    
C61   C64   A    
C3    C16   S    
C14   C89   S    
C22   O24   A    
C80   H41   S    
C79   C82   S    
Cr3   O3    S    
C22   O5    A    
C84   H51   S    
C7    C88   S    
C56   C71   A    
C83   C95   S    
C67   C91   S    
C68   C89   S    
C32   C44   A    
C49   C76   A    
C63   H30   S    
C60   H33   S    
C38   H20   S    
Cr5   O25   S    
C52   C58   A    
C61   H28   S    
C93   H9    S    
C37   H19   S    
C81   C90   S    
C2    O1    A    
C1    O3    A    
C93   C96   S    
C6    C96   S    
C60   C63   A    
C35   O10   A    
C4    C94   S    
C24   O4    A    
C42   H24   S    
N1    C97   S    
C69   C90   S    
C50   C77   A    
C19   O20   A    
C81   C84   S    
C34   O13   A    
C83   H50   S    
C53   C56   A    
C11   C95   S    
C69   H36   S    
C34   O12   A    
C59   C62   A    
C59   H32   S    
C62   C65   A    
C5    H11   S    
Cr6   O22   S    
C1    C17   S    
C62   H29   S    
Cr5   O5    S    
C12   C96   S    
C82   H49   S    
C5    N2    S    
C91   H1    S    
C22   C87   S    
C9    C90   S    
C5    C8    S    
C82   H46   S    
C52   C55   A    
C67   H4    S    
C7    H55   S    
C29   C56   A    
Cr6   O6    S    
Cr6   O26   S    
C35   C78   S    
C36   O11   A    
C51   C54   A    
N2    H62   S    
C91   H7    S    
C49   H37   S    
C67   H34   S    
C51   C78   A    
C23   O25   A    
Cr5   O21   S    
C73   H25   S    
C15   C90   S    
Cr2   O16   S    
C92   H8    S    
Cr3   O15   S    
C1    O7    A    
C99   H69   S    
Cr6   O19   S    
C66   C75   A    
C13   C88   S    
C68   C92   S    
Cr4   O4    S    
C30   C42   A    
C57   C72   A    
C81   H42   S    
C21   O17   A    
C55   C70   A    
Cr5   O18   S    
C3    O2    A    
C98   H65   S    
Cr3   O16   S    
C44   H14   S    
C25   C76   A    
C99   H68   S    
C23   C85   S    
C13   C16   T    
C10   C94   S    
C29   C41   A    
C97   H59   S    
N3    C99   S    
C8    C89   S    
C21   C47   S    
N1    H58   S    
Cr4   O20   S    
C24   C86   S    
C2    O8    A    
C46   C73   A    
C20   C46   S    
Cr5   O23   S    
C75   H27   S    
N2    C98   S    
C91   C94   S    
C54   C57   A    
C84   H48   S    
