data_mof_unit_4813.cif
_audit_creation_date              2012-12-10T18:57:43-0500
_audit_creation_method            fapswitch 2.2
_symmetry_space_group_name_H-M    P1
_symmetry_Int_Tables_number       1
_space_group_crystal_system       triclinic
_cell_length_a                    10.87659
_cell_length_b                    10.925436
_cell_length_c                    9.63741
_cell_angle_alpha                 91.008862
_cell_angle_beta                  88.775881
_cell_angle_gamma                 92.345867
_cell_volume                      1143.84636104

loop_
_atom_site_label
_atom_site_type_symbol
_atom_type_description
_atom_site_fract_x
_atom_site_fract_y
_atom_site_fract_z
_atom_type_partial_charge
C1    C     C_R   0.502936 0.262879 0.498722 0.794204
C2    C     C_R   0.504784 0.129408 0.495248 -0.147604
C3    C     C_R   0.558577 0.062034 0.383134 -0.133997
C4    C     C_R   0.551402 0.933126 0.384669 -0.197360
C5    C     C_R   0.500386 0.870083 0.499389 -0.043073
C6    C     C_R   0.443956 0.938071 0.604320 0.076388
C7    C     C_3   0.439208 0.935076 0.759882 -0.401204
C8    C     C_3   0.437850 0.075631 0.756308 -0.292693
C9    C     C_R   0.606553 0.516707 0.070760 0.166895
C10   C     C_R   0.400416 0.454934 0.077137 0.294399
C11   C     C_R   0.397859 0.460680 0.928824 0.024118
C12   C     C_R   0.266711 0.511422 0.501566 0.907926
C13   C     C_R   0.607693 0.512290 0.924842 0.186043
C14   C     C_3   0.705966 0.611480 0.919091 0.043240
C15   C     C_3   0.701577 0.617965 0.078011 -0.486942
C16   C     C_R   0.500778 0.737168 0.500812 0.802205
C17   C     C_R   0.734245 0.496954 0.498417 0.791210
C18   C     C_2   0.933543 0.567122 0.418876 -0.263296
C19   C     C_2   0.865904 0.483039 0.491577 -0.126467
C20   C     C_2   0.068596 0.570070 0.402875 0.037108
C21   C     C_2   0.135925 0.532928 0.508885 -0.334968
C22   C     C_R   0.443128 0.063600 0.600662 0.077221
Cu1   Cu    Cu3+1 0.499990 0.499980 0.640670 1.019019
Cu2   Cu    Cu3+1 0.500010 0.500020 0.359330 1.009138
H1    H     H_    0.886824 0.640900 0.370134 0.154731
H2    H     H_    0.675311 0.691998 0.865837 0.227096
H3    H     H_    0.786780 0.589072 0.127653 0.226642
H4    H     H_    0.664254 0.704110 0.121023 0.227544
H5    H     H_    0.091421 0.513695 0.608155 0.146592
H6    H     H_    0.594325 0.882057 0.300513 0.182560
H7    H     H_    0.351108 0.891796 0.798921 0.138449
H8    H     H_    0.348239 0.108073 0.795793 0.192782
N1    N     N_R   0.500780 0.500930 0.147930 -0.192544
N2    N     N_R   0.500780 0.500890 0.852020 -0.255778
O1    O     O_R   0.500000 0.319640 0.618810 -0.539287
O2    O     O_R   0.500010 0.319680 0.381230 -0.575412
O3    O     O_R   0.321940 0.499980 0.618760 -0.579105
O4    O     O_R   0.321950 0.500020 0.381180 -0.526461
O5    O     O_R   0.499990 0.680320 0.618770 -0.597237
O6    O     O_R   0.500000 0.680360 0.381190 -0.572234
O7    O     O_R   0.678050 0.499980 0.618820 -0.538728
O8    O     O_R   0.678060 0.500020 0.381240 -0.574132
C23   C     C_2   0.547454 0.145613 0.818562 1.013622
O9    O     O_2   0.650368 0.139758 0.765531 -0.516993
O10   O     O_R   0.529619 0.218390 0.936758 -0.770094
H9    H     H_    0.609074 0.259679 0.969840 0.348716
N3    N     N_2   0.302735 0.392523 0.150968 -0.389157
H10   H     H_    0.216351 0.422675 0.132127 0.283659
C24   C     C_3   0.306362 0.260224 0.150195 -0.559989
H11   H     H_    0.276326 0.221281 0.048769 0.220851
H12   H     H_    0.243146 0.223371 0.232698 0.228269
H13   H     H_    0.400314 0.230299 0.170482 0.264654
C25   C     C_2   0.284716 0.412851 0.862604 0.888672
O11   O     O_2   0.286174 0.319382 0.791519 -0.600529
O12   O     O_R   0.174538 0.472049 0.886143 -0.781152
H14   H     H_    0.101983 0.426891 0.841348 0.337102
N4    N     N_2   0.821494 0.567858 0.863234 -0.392073
H15   H     H_    0.852794 0.490794 0.909426 0.294649
C26   C     C_3   0.915736 0.663099 0.841173 -0.555295
H16   H     H_    0.998671 0.623142 0.793205 0.227429
H17   H     H_    0.941128 0.707762 0.941543 0.261632
H18   H     H_    0.882691 0.732752 0.769673 0.239256
C27   C     C_2   0.912732 0.366849 0.544233 0.819567
O13   O     O_2   0.868189 0.322630 0.650578 -0.559629
O14   O     O_R   0.002988 0.304829 0.468868 -0.737090
H19   H     H_    0.026041 0.226515 0.514938 0.343133
C28   C     C_2   0.122910 0.629099 0.276592 0.862003
O15   O     O_2   0.069255 0.618132 0.166569 -0.601361
O16   O     O_R   0.231062 0.702479 0.284421 -0.756233
H20   H     H_    0.257889 0.737644 0.191403 0.328953
C29   C     C_2   0.633004 0.120233 0.269242 0.901064
O17   O     O_2   0.623426 0.079618 0.151077 -0.524814
O18   O     O_R   0.719683 0.215481 0.294775 -0.700127
H21   H     H_    0.732906 0.231177 0.397231 0.293973
C30   C     C_2   0.551032 0.887644 0.827949 0.946500
O19   O     O_2   0.649039 0.883916 0.763849 -0.544659
O20   O     O_R   0.545562 0.856178 0.967880 -0.758668
H22   H     H_    0.461085 0.866044 0.012014 0.297167

loop_
_geom_bond_atom_site_label_1
_geom_bond_atom_site_label_2
_ccdc_geom_bond_type
O12   H14   S    
C27   O14   S    
Cu2   O8    S    
O18   H21   S    
C20   C28   S    
C8    C23   S    
C23   O9    D    
C15   H4    S    
C7    C8    S    
N3    C24   S    
O10   H9    S    
Cu2   O2    S    
C18   C19   D    
C5    C6    A    
N4    C26   S    
C6    C22   A    
C1    C2    S    
C12   O3    A    
C9    C13   A    
C17   O8    A    
C5    C16   S    
C17   C19   S    
C15   H3    S    
C19   C27   S    
C24   H12   S    
C2    C22   A    
Cu2   O4    S    
Cu1   Cu2   S    
C11   C25   S    
O20   H22   S    
C24   H13   S    
C26   H16   S    
C13   C14   S    
C9    N1    A    
C18   H1    S    
C25   O12   S    
C26   H17   S    
C7    H7    S    
C28   O15   D    
C8    H8    S    
C29   O18   S    
C7    C30   S    
C25   O11   D    
C21   H5    S    
C12   C21   S    
C28   O16   S    
C3    C29   S    
C30   O19   D    
C30   O20   S    
C8    C22   S    
N3    H10   S    
Cu1   N2    S    
C14   H2    S    
C23   O10   S    
C16   O6    A    
C24   H11   S    
Cu1   O1    S    
C3    C4    A    
C1    O1    A    
C14   N4    S    
C26   H18   S    
C11   N2    A    
C4    C5    A    
C6    C7    S    
Cu2   N1    S    
Cu1   O7    S    
C2    C3    A    
C9    C15   S    
C29   O17   D    
Cu1   O3    S    
N4    H15   S    
Cu1   O5    S    
Cu2   O6    S    
C10   N1    A    
C18   C20   S    
C12   O4    A    
O16   H20   S    
C17   O7    A    
C10   C11   A    
C16   O5    A    
C27   O13   D    
C13   N2    A    
C20   C21   D    
O14   H19   S    
C10   N3    S    
C14   C15   S    
C4    H6    S    
C1    O2    A    
