data_mof_unit_247.cif
_audit_creation_date              2012-12-11T17:43:58-0500
_audit_creation_method            fapswitch 2.2
_symmetry_space_group_name_H-M    P1
_symmetry_Int_Tables_number       1
_space_group_crystal_system       triclinic
_cell_length_a                    20.228523
_cell_length_b                    22.720693
_cell_length_c                    6.944145
_cell_angle_alpha                 89.999978
_cell_angle_beta                  86.849356
_cell_angle_gamma                 90.0
_cell_volume                      3186.74700557

loop_
_atom_site_label
_atom_site_type_symbol
_atom_type_description
_atom_site_fract_x
_atom_site_fract_y
_atom_site_fract_z
_atom_type_partial_charge
O1    O     O_R   0.751270 0.447300 0.600030 -0.534479
O2    O     O_R   0.248730 0.947300 0.399970 -0.534478
O3    O     O_R   0.613530 0.440160 0.952150 -0.519871
O4    O     O_R   0.386470 0.940160 0.047850 -0.519871
O5    O     O_R   0.613050 0.552700 0.122560 -0.544583
O6    O     O_R   0.386950 0.052700 0.877440 -0.544583
C1    C     C_R   0.591479 0.425486 0.787114 0.737806
C2    C     C_R   0.408521 0.925486 0.212886 0.737808
O7    O     O_R   0.750780 0.440350 0.929820 -0.504665
O8    O     O_R   0.249220 0.940350 0.070180 -0.504669
O9    O     O_R   0.751280 0.552900 0.100070 -0.550342
O10   O     O_R   0.248720 0.052900 0.899930 -0.550343
C3    C     C_R   0.772897 0.425240 0.757634 0.787324
C4    C     C_R   0.227103 0.925240 0.242366 0.787321
O11   O     O_R   0.613040 0.447100 0.622520 -0.540525
O12   O     O_R   0.386960 0.947100 0.377480 -0.540524
O13   O     O_3   0.682160 0.536920 0.777780 -0.389674
O14   O     O_3   0.317840 0.036920 0.222220 -0.389673
V1    V     V_3+5 0.682160 0.493150 0.052630 1.547369
V2    V     V_3+5 0.317840 0.993150 0.947370 1.547364
O15   O     O_R   0.750790 0.559840 0.429870 -0.550671
O16   O     O_R   0.249210 0.059840 0.570130 -0.550671
C5    C     C_R   0.773868 0.574156 0.257533 0.671382
C6    C     C_R   0.226132 0.074156 0.742467 0.671380
O17   O     O_R   0.613540 0.559650 0.452200 -0.542018
O18   O     O_R   0.386460 0.059650 0.547800 -0.542018
C7    C     C_R   0.591569 0.574380 0.287167 0.671339
C8    C     C_R   0.408431 0.074380 0.712833 0.671340
V3    V     V_3+5 0.682160 0.506850 0.552630 1.463314
V4    V     V_3+5 0.317840 0.006850 0.447370 1.463315
O19   O     O_3   0.682150 0.463080 0.277610 -0.326587
O20   O     O_3   0.317850 0.963080 0.722390 -0.326588
C9    C     C_R   0.578551 0.859485 0.141490 -0.149529
C10   C     C_R   0.421449 0.359485 0.858515 -0.149530
H1    H     H_    0.537119 0.945882 0.119145 0.109917
H2    H     H_    0.462881 0.445881 0.880861 0.109917
H3    H     H_    0.669102 0.775158 0.124833 0.127833
H4    H     H_    0.330898 0.275158 0.875175 0.127833
H5    H     H_    0.627937 0.874756 0.098482 0.119083
H6    H     H_    0.372064 0.374756 0.901526 0.119083
C11   C     C_R   0.462844 0.882189 0.210461 -0.049429
C12   C     C_R   0.537156 0.382189 0.789539 -0.049429
C13   C     C_R   0.472991 0.596274 0.340931 -0.177732
C14   C     C_R   0.527008 0.096274 0.659066 -0.177732
C15   C     C_R   0.419276 0.634461 0.354850 -0.093895
C16   C     C_R   0.580724 0.134461 0.645145 -0.093895
C17   C     C_R   0.427864 0.694478 0.320587 -0.111522
C18   C     C_R   0.572136 0.194478 0.679409 -0.111522
C19   C     C_R   0.491200 0.718136 0.270459 0.065549
C20   C     C_R   0.508800 0.218136 0.729540 0.065549
C21   C     C_R   0.546193 0.678357 0.253375 0.070258
C22   C     C_R   0.453807 0.178357 0.746626 0.070258
C23   C     C_R   0.501717 0.779798 0.236140 0.060914
C24   C     C_R   0.498283 0.279798 0.763860 0.060914
C25   C     C_R   0.566675 0.799722 0.181409 0.138155
C26   C     C_R   0.433325 0.299722 0.818595 0.138154
C27   C     C_R   0.619490 0.759992 0.165717 -0.194025
C28   C     C_R   0.380510 0.259991 0.834287 -0.194024
C29   C     C_R   0.609601 0.700408 0.201936 -0.190246
C30   C     C_R   0.390399 0.200408 0.798067 -0.190246
C31   C     C_R   0.450273 0.822588 0.252948 -0.151134
C32   C     C_R   0.549726 0.322588 0.747050 -0.151133
C33   C     C_R   0.526982 0.900157 0.153903 -0.185039
C34   C     C_R   0.473018 0.400157 0.846101 -0.185039
C35   C     C_R   0.536506 0.617246 0.289883 -0.083160
C36   C     C_R   0.463494 0.117246 0.710116 -0.083160
H7    H     H_    0.399970 0.811111 0.296148 0.147549
H8    H     H_    0.600029 0.311111 0.703848 0.147547
H9    H     H_    0.465000 0.549910 0.370657 0.109805
H10   H     H_    0.535000 0.049910 0.629339 0.109805
H11   H     H_    0.383807 0.721093 0.334095 0.150393
H12   H     H_    0.616193 0.221093 0.665901 0.150392
H13   H     H_    0.370370 0.617406 0.393682 0.141224
H14   H     H_    0.629630 0.117407 0.606311 0.141223
H15   H     H_    0.652240 0.671599 0.188139 0.110111
H16   H     H_    0.347760 0.171598 0.811866 0.110111
C37   C     C_R   0.171865 0.881840 0.260095 -0.147239
C38   C     C_R   0.828135 0.381840 0.739905 -0.147250
C39   C     C_R   0.167889 0.831993 0.137460 0.350535
C40   C     C_R   0.832111 0.331993 0.862541 0.350557
C41   C     C_R   0.111914 0.795087 0.154839 -0.216826
C42   C     C_R   0.888086 0.295087 0.845161 -0.216829
C43   C     C_R   0.060389 0.805591 0.295971 0.374447
C44   C     C_R   0.939611 0.305591 0.704030 0.374443
C45   C     C_R   0.066278 0.853346 0.420956 -0.178390
C46   C     C_R   0.933723 0.353347 0.579045 -0.178391
C47   C     C_R   0.120767 0.891229 0.402368 -0.285434
C48   C     C_R   0.879233 0.391229 0.597632 -0.285440
C49   C     C_R   0.904217 0.686632 0.387083 -0.143778
C50   C     C_R   0.095783 0.186633 0.612917 -0.143778
C51   C     C_R   0.851053 0.646967 0.403326 -0.219825
C52   C     C_R   0.148948 0.146967 0.596674 -0.219826
C53   C     C_R   0.937197 0.697651 0.206082 0.428080
C54   C     C_R   0.062804 0.197652 0.793919 0.428080
N1    N     N_2   0.003476 0.768337 0.321584 -0.291137
N2    N     N_2   0.996524 0.268337 0.678417 -0.291136
N3    N     N_2   0.993333 0.735788 0.180962 -0.299058
N4    N     N_2   0.006667 0.235789 0.819038 -0.299057
C55   C     C_R   0.829252 0.617519 0.239846 -0.044098
C56   C     C_R   0.170748 0.117519 0.760154 -0.044097
H17   H     H_    0.827236 0.639205 0.544535 0.133373
H18   H     H_    0.172763 0.139206 0.455465 0.133373
H19   H     H_    0.919896 0.707848 0.516504 0.137971
H20   H     H_    0.080105 0.207849 0.483497 0.137971
H21   H     H_    0.027792 0.861807 0.532128 0.141609
H22   H     H_    0.972209 0.361807 0.467872 0.141612
H23   H     H_    0.122630 0.928580 0.498929 0.152550
H24   H     H_    0.877370 0.428580 0.501071 0.152558
C57   C     C_R   0.861934 0.629064 0.059636 -0.202921
C58   C     C_R   0.138066 0.129064 0.940364 -0.202922
C59   C     C_R   0.915364 0.668308 0.043739 -0.180361
C60   C     C_R   0.084636 0.168308 0.956261 -0.180362
H25   H     H_    0.846857 0.607174 0.930635 0.130375
H26   H     H_    0.153143 0.107174 0.069364 0.130375
H27   H     H_    0.109185 0.757423 0.060235 0.188607
H28   H     H_    0.890816 0.257423 0.939766 0.188606
H29   H     H_    0.940097 0.675825 0.903570 0.127721
H30   H     H_    0.059903 0.175825 0.096430 0.127721
S1    S     S_3+6 0.232751 0.812214 0.967530 0.016523
O21   O     O_2   0.298651 0.821483 0.052557 -0.336515
O22   O     O_2   0.227006 0.748654 0.910540 -0.325969
O23   O     O_3   0.228669 0.854366 0.769800 -0.476984
H31   H     H_    0.185012 0.845137 0.719528 0.326553
S2    S     S_3+6 0.767249 0.312214 0.032469 0.016513
O24   O     O_2   0.701349 0.321482 0.947441 -0.336516
O25   O     O_2   0.772994 0.248654 0.089460 -0.325980
O26   O     O_3   0.771330 0.354366 0.230199 -0.476992
H32   H     H_    0.814979 0.345124 0.280506 0.326568

loop_
_geom_bond_atom_site_label_1
_geom_bond_atom_site_label_2
_ccdc_geom_bond_type
C9    C25   A    
C5    C55   S    
C56   C58   A    
O11   V3    S    
C29   H15   S    
O13   V3    S    
C14   C36   A    
C11   C31   A    
O4    C2    A    
V1    O19   S    
C17   C19   A    
C10   C26   A    
O9    V1    S    
C9    H5    S    
C10   H6    S    
C18   H12   S    
O3    C1    A    
C57   C59   A    
C40   S2    S    
C48   H24   S    
C38   C40   A    
C4    C37   S    
C54   N4    S    
C28   C30   A    
C55   C57   A    
C46   C48   A    
C15   H13   S    
C21   C35   A    
C1    C12   S    
C54   C60   A    
O7    C3    A    
C22   C30   A    
O5    C7    A    
C23   C31   A    
O7    V1    S    
O6    C8    A    
O8    V2    S    
C19   C21   A    
C39   S1    S    
C20   C22   A    
O3    V1    S    
O14   V4    S    
C49   C51   A    
C12   C32   A    
C52   H18   S    
S1    O22   D    
C2    O12   A    
H4    C28   S    
C49   H19   S    
C41   H27   S    
C46   H22   S    
C51   H17   S    
C45   H21   S    
C10   C34   A    
C41   C43   A    
C14   C16   A    
C50   C54   A    
C21   C29   A    
C16   C18   A    
C23   C25   A    
O17   V3    S    
C24   C26   A    
C9    C33   A    
C45   C47   A    
V4    O20   S    
C2    C11   S    
C40   C42   A    
O8    C4    A    
C39   C41   A    
C1    O11   A    
C24   C32   A    
O15   V3    S    
C30   H16   S    
N2    N4    D    
C8    C36   S    
C7    C35   S    
C31   H7    S    
C50   C52   A    
C13   C35   A    
C43   N1    S    
O10   V2    S    
O1    V3    S    
C37   C39   A    
C47   H23   S    
C20   C24   A    
C14   H10   S    
C18   C20   A    
C13   C15   A    
C50   H20   S    
C53   C59   A    
S2    O26   S    
C43   C45   A    
O18   V4    S    
C42   C44   A    
O15   C5    A    
O16   C6    A    
O1    C3    A    
O2    V4    S    
C17   H11   S    
O26   H32   S    
C53   N3    S    
C16   H14   S    
C22   C36   A    
C52   C56   A    
S2    O25   D    
V2    O20   S    
S1    O23   S    
C38   C48   A    
C58   H26   S    
C3    C38   S    
O16   V4    S    
C6    C56   S    
C44   C46   A    
C12   C34   A    
S1    O21   D    
N1    N3    D    
O5    V1    S    
C57   H25   S    
O17   C7    A    
O6    V2    S    
O10   C6    A    
O18   C8    A    
C32   H8    S    
C59   H29   S    
C25   C27   A    
C42   H28   S    
V3    O19   S    
C60   H30   S    
C19   C23   A    
O9    C5    A    
O13   V1    S    
C26   C28   A    
O14   V2    S    
C49   C53   A    
O2    C4    A    
C58   C60   A    
C27   C29   A    
O4    V2    S    
C15   C17   A    
C37   C47   A    
C13   H9    S    
C11   C33   A    
H1    C33   S    
C44   N2    S    
C51   C55   A    
O23   H31   S    
H2    C34   S    
O12   V4    S    
H3    C27   S    
S2    O24   D    
