data_mof_unit_3285.cif
_audit_creation_date              2012-12-10T17:37:45-0500
_audit_creation_method            fapswitch 2.2
_symmetry_space_group_name_H-M    P1
_symmetry_Int_Tables_number       1
_space_group_crystal_system       triclinic
_cell_length_a                    12.334701
_cell_length_b                    13.083201
_cell_length_c                    17.363067
_cell_angle_alpha                 105.376753
_cell_angle_beta                  74.889169
_cell_angle_gamma                 116.212016
_cell_volume                      2390.26148145

loop_
_atom_site_label
_atom_site_type_symbol
_atom_type_description
_atom_site_fract_x
_atom_site_fract_y
_atom_site_fract_z
_atom_type_partial_charge
C1    C     C_R   0.144194 0.714603 0.504825 0.777749
C2    C     C_R   0.889444 0.528038 0.796412 -0.196682
C3    C     C_R   0.917260 0.482634 0.155822 -0.151189
C4    C     C_R   0.915828 0.490198 0.237255 -0.208318
C5    C     C_R   0.112952 0.475879 0.204028 -0.203660
C6    C     C_R   0.114265 0.468241 0.122401 -0.170337
C7    C     C_R   0.017724 0.473852 0.098112 0.193682
C8    C     C_2   0.975967 0.528070 0.987764 -0.231926
C9    C     C_2   0.024181 0.470553 0.012178 -0.232155
C10   C     C_R   0.014090 0.487842 0.262002 -0.022243
C11   C     C_R   0.735786 0.962371 0.422330 -0.198873
C12   C     C_R   0.988558 0.504936 0.652215 0.790824
C13   C     C_R   0.773414 0.162468 0.479488 -0.056834
C14   C     C_R   0.177024 0.927766 0.529012 0.087634
C15   C     C_R   0.259902 0.044013 0.534903 -0.144694
C16   C     C_R   0.384990 0.074790 0.518021 -0.231225
C17   C     C_R   0.434695 0.990741 0.489131 0.079498
C18   C     C_R   0.353609 0.873349 0.471362 0.065347
C19   C     C_R   0.563164 0.020365 0.474680 0.081259
C20   C     C_R   0.609524 0.934664 0.435352 0.168782
C21   C     C_R   0.529684 0.823411 0.407293 -0.246438
C22   C     C_R   0.404285 0.794253 0.422722 -0.183818
C23   C     C_R   0.855846 0.285670 0.490227 0.799755
C24   C     C_R   0.647156 0.132913 0.498612 -0.248875
C25   C     C_R   0.817132 0.075753 0.444790 -0.214791
C26   C     C_R   0.224838 0.839552 0.500558 -0.164243
C27   C     C_R   0.637403 0.670180 0.635157 -0.310617
C28   C     C_R   0.263166 0.359334 0.383152 0.295615
C29   C     C_R   0.375160 0.348510 0.353912 -0.256496
C30   C     C_R   0.469038 0.403152 0.397857 -0.245775
C31   C     C_R   0.456693 0.475133 0.471820 -0.000823
C32   C     C_R   0.346891 0.496816 0.497033 0.257182
C33   C     C_R   0.553288 0.530480 0.519116 -0.025749
C34   C     C_R   0.011548 0.495202 0.347805 0.779024
C35   C     C_R   0.543328 0.613390 0.588468 0.176963
C36   C     C_R   0.439900 0.639162 0.610456 -0.285823
C37   C     C_R   0.343971 0.582116 0.566053 -0.184868
C38   C     C_R   0.659788 0.506025 0.500765 0.006421
C39   C     C_R   0.740374 0.643801 0.613252 0.062394
C40   C     C_R   0.986206 0.512299 0.738027 -0.030006
C41   C     C_R   0.082667 0.506093 0.762352 -0.214634
C42   C     C_R   0.081402 0.513365 0.843693 -0.147440
C43   C     C_R   0.982623 0.525293 0.901826 0.193516
C44   C     C_R   0.888045 0.534904 0.877964 -0.172938
Cu1   Cu    Cu3+1 0.900140 0.524980 0.518800 0.923161
Cu2   Cu    Cu3+1 0.099860 0.475020 0.481200 0.912407
H1    H     H_    0.159641 0.496290 0.718714 0.156684
H2    H     H_    0.564287 0.758784 0.372501 0.144953
H3    H     H_    0.771748 0.896884 0.393354 0.136572
H4    H     H_    0.616689 0.199936 0.532267 0.153735
H5    H     H_    0.440312 0.166399 0.524934 0.138281
H6    H     H_    0.229892 0.114223 0.554689 0.137468
H7    H     H_    0.349123 0.710206 0.392743 0.180859
H8    H     H_    0.812744 0.687379 0.649427 0.118509
H9    H     H_    0.837328 0.497056 0.280645 0.146850
H10   H     H_    0.432565 0.703995 0.663057 0.152366
H11   H     H_    0.631213 0.734382 0.688405 0.135228
H12   H     H_    0.672543 0.440689 0.451031 0.123034
H13   H     H_    0.551820 0.389609 0.370762 0.139831
H14   H     H_    0.390780 0.296298 0.295756 0.143937
H15   H     H_    0.270491 0.609777 0.587450 0.206412
H16   H     H_    0.189658 0.473513 0.221677 0.144297
H17   H     H_    0.811996 0.545526 0.922323 0.121960
H18   H     H_    0.839182 0.482472 0.138273 0.122607
H19   H     H_    0.814549 0.534224 0.779148 0.151078
H20   H     H_    0.927318 0.576258 0.031651 0.144685
H21   H     H_    0.158397 0.510780 0.860722 0.123443
N1    N     N_R   0.749710 0.562810 0.547300 -0.179207
N2    N     N_R   0.249640 0.437820 0.453210 -0.219756
O1    O     O_R   0.025490 0.682370 0.523640 -0.591433
O2    O     O_R   0.194150 0.640180 0.491890 -0.596395
O3    O     O_R   0.905900 0.523560 0.631310 -0.585957
O4    O     O_R   0.074570 0.481370 0.599560 -0.601567
O5    O     O_R   0.805850 0.359820 0.508110 -0.583495
O6    O     O_R   0.974510 0.317630 0.476360 -0.597438
O7    O     O_R   0.925430 0.518630 0.400440 -0.587474
O8    O     O_R   0.094100 0.476440 0.368690 -0.614107
H22   H     H_    0.191801 0.460388 0.078339 0.121796
H23   H     H_    0.913857 0.096083 0.433519 0.168713
C45   C     C_3   0.039310 0.898830 0.552281 -0.368007
C46   C     C_3   0.999571 0.000627 0.573312 -0.407095
C47   C     C_3   0.860236 0.958410 0.593367 -0.816620
H24   H     H_    0.817275 0.894665 0.541989 0.261916
H25   H     H_    0.825092 0.917573 0.648281 0.243669
H26   H     H_    0.833993 0.032879 0.605400 0.252265
H27   H     H_    0.037969 0.061715 0.627098 0.223546
H28   H     H_    0.032697 0.046797 0.520990 0.218798
H29   H     H_    0.994561 0.839298 0.500190 0.222094
H30   H     H_    0.003789 0.855159 0.605924 0.207385
C48   C     C_3   0.166270 0.285255 0.329401 -0.375416
C49   C     C_3   0.137978 0.155308 0.316710 -0.406508
C50   C     C_3   0.039574 0.083294 0.263253 -0.852830
H31   H     H_    0.955847 0.100935 0.288013 0.258032
H32   H     H_    0.074659 0.104014 0.201084 0.255746
H33   H     H_    0.014950 0.989860 0.259858 0.245442
H34   H     H_    0.220515 0.137652 0.286550 0.222572
H35   H     H_    0.107910 0.126407 0.376195 0.215895
H36   H     H_    0.079267 0.293561 0.351964 0.257407
H37   H     H_    0.200593 0.313472 0.269418 0.170809
H38   H     H_    0.072895 0.422306 0.968489 0.144692

loop_
_geom_bond_atom_site_label_1
_geom_bond_atom_site_label_2
_ccdc_geom_bond_type
C8    H20   S    
C39   N1    A    
C19   C20   A    
C18   C26   A    
C16   H5    S    
C2    H19   S    
C46   C47   S    
Cu1   Cu2   S    
C1    O2    A    
Cu1   O7    S    
C36   H10   S    
C5    C6    A    
C36   C37   A    
C3    C7    A    
C34   O8    A    
C30   C31   A    
C6    H22   S    
C39   H8    S    
C11   C25   A    
C15   C16   A    
C13   C23   S    
C41   C42   A    
C45   H30   S    
Cu2   N2    S    
C17   C19   A    
C49   H34   S    
C38   H12   S    
C28   N2    A    
C2    C44   A    
C8    C9    D    
C31   C33   A    
C14   C45   S    
C46   H27   S    
C21   H2    S    
C12   O3    A    
C18   C22   A    
C21   C22   A    
Cu1   O3    S    
C13   C25   A    
Cu2   O6    S    
C22   H7    S    
C44   H17   S    
C24   H4    S    
C11   C20   A    
C27   H11   S    
C27   C39   A    
C49   C50   S    
C16   C17   A    
C27   C35   A    
C32   C37   A    
C50   H33   S    
C14   C26   A    
C13   C24   A    
Cu1   O5    S    
C35   C36   A    
C12   C40   S    
C43   C44   A    
C29   C30   A    
C11   H3    S    
C31   C32   A    
C29   H14   S    
C30   H13   S    
Cu1   N1    S    
C50   H32   S    
C17   C18   A    
C41   H1    S    
C10   C34   S    
C15   H6    S    
C49   H35   S    
Cu2   O2    S    
C46   H28   S    
C40   C41   A    
C38   N1    A    
C9    H38   S    
C47   H25   S    
C4    H9    S    
C42   H21   S    
C42   C43   A    
C23   O5    A    
C4    C10   A    
C3    C4    A    
C48   H37   S    
C7    C9    S    
C28   C29   A    
Cu1   O1    S    
C25   H23   S    
C32   N2    A    
C1    O1    A    
C23   O6    A    
C45   C46   S    
Cu2   O8    S    
C37   H15   S    
C6    C7    A    
C47   H26   S    
C33   C38   A    
C19   C24   A    
C5    C10   A    
C45   H29   S    
C48   C49   S    
C1    C26   S    
C8    C43   S    
C50   H31   S    
C33   C35   A    
C5    H16   S    
C3    H18   S    
C2    C40   A    
C20   C21   A    
C47   H24   S    
C14   C15   A    
C28   C48   S    
C12   O4    A    
C48   H36   S    
Cu2   O4    S    
C34   O7    A    
