data_mof_unit_151.cif
_audit_creation_date              2012-12-10T17:41:00-0500
_audit_creation_method            fapswitch 2.2
_symmetry_space_group_name_H-M    P1
_symmetry_Int_Tables_number       1
_space_group_crystal_system       triclinic
_cell_length_a                    15.078321
_cell_length_b                    13.707095
_cell_length_c                    11.710299
_cell_angle_alpha                 90.074551
_cell_angle_beta                  89.895911
_cell_angle_gamma                 89.504838
_cell_volume                      2420.1878696

loop_
_atom_site_label
_atom_site_type_symbol
_atom_type_description
_atom_site_fract_x
_atom_site_fract_y
_atom_site_fract_z
_atom_type_partial_charge
C1    C     C_R   0.328810 0.500557 0.496800 0.822170
C2    C     C_R   0.671204 0.499410 0.503111 0.823030
C3    C     C_R   0.904693 0.563038 0.428772 0.063744
C4    C     C_R   0.095363 0.436469 0.570655 0.063527
C5    C     C_R   0.958067 0.373441 0.647429 -0.200080
C6    C     C_R   0.041995 0.625718 0.351598 -0.197411
C7    C     C_R   0.050281 0.373347 0.645263 0.246030
C8    C     C_R   0.949789 0.626029 0.354026 0.246014
C9    C     C_R   0.439436 0.793567 0.564377 0.025535
C10   C     C_R   0.561101 0.206511 0.436374 0.023999
C11   C     C_R   0.560873 0.792230 0.436050 0.042054
C12   C     C_R   0.439004 0.207652 0.563624 0.050787
C13   C     C_R   0.563808 0.895486 0.435334 -0.097471
C14   C     C_R   0.437171 0.104443 0.565700 -0.098546
C15   C     C_R   0.437439 0.896895 0.566482 -0.097505
C16   C     C_R   0.563041 0.103174 0.434023 -0.092989
C17   C     C_R   0.500589 0.948158 0.500778 0.008086
C18   C     C_R   0.500310 0.051817 0.500209 0.005126
C19   C     C_R   0.627177 0.947144 0.369933 0.206551
C20   C     C_R   0.374321 0.052992 0.631849 0.203969
C21   C     C_R   0.374503 0.949966 0.632612 0.222644
C22   C     C_R   0.626594 0.050180 0.368964 0.215745
C23   C     C_R   0.500297 0.499954 0.283831 0.822578
C24   C     C_R   0.499658 0.500051 0.716167 0.821819
C25   C     C_1   0.500187 0.499906 0.162237 -0.186527
C26   C     C_1   0.499702 0.500119 0.837759 -0.187979
C27   C     C_1   0.500018 0.499974 0.059841 0.005191
C28   C     C_1   0.499833 0.500072 0.940155 0.004626
C29   C     C_R   0.812223 0.561652 0.432622 -0.245282
C30   C     C_R   0.187830 0.438180 0.567160 -0.245968
C31   C     C_R   0.767768 0.498017 0.505432 -0.130993
C32   C     C_R   0.232269 0.501762 0.494261 -0.131038
C33   C     C_R   0.815478 0.435229 0.579071 0.205632
C34   C     C_R   0.184575 0.564037 0.420057 0.208635
C35   C     C_R   0.908676 0.435828 0.576329 0.041462
C36   C     C_R   0.091378 0.563409 0.422779 0.042119
C37   C     C_R   0.953311 0.499534 0.501027 -0.015803
C38   C     C_R   0.046741 0.499820 0.498222 -0.016013
Cu1   Cu    Cu3+1 0.500000 0.597420 0.500000 0.939122
Cu2   Cu    Cu3+1 0.500000 0.402580 0.500000 0.938676
H1    H     H_    0.773429 0.608958 0.377738 0.192068
H2    H     H_    0.226634 0.391122 0.622328 0.190901
H3    H     H_    0.925371 0.323835 0.705414 0.211703
H4    H     H_    0.074699 0.675221 0.293494 0.211650
H5    H     H_    0.393047 0.751525 0.613980 0.137129
H6    H     H_    0.608370 0.248638 0.388300 0.136738
H7    H     H_    0.606495 0.749182 0.385289 0.138241
H8    H     H_    0.392245 0.250390 0.613045 0.140633
N1    N     N_R   0.500000 0.743810 0.500000 -0.185246
N2    N     N_R   0.500000 0.256190 0.500000 -0.186944
O1    O     O_R   0.370260 0.582280 0.500020 -0.597727
O2    O     O_R   0.629740 0.417720 0.499980 -0.597697
O3    O     O_R   0.629740 0.582280 0.499980 -0.583946
O4    O     O_R   0.370260 0.417720 0.500020 -0.585215
O5    O     O_R   0.500010 0.582270 0.337200 -0.577068
O6    O     O_R   0.499990 0.417730 0.662800 -0.576566
O7    O     O_R   0.499990 0.582270 0.662800 -0.574488
O8    O     O_R   0.500010 0.417730 0.337200 -0.574357
N3    N     N_2   0.771096 0.374147 0.659029 -0.452574
H9    H     H_    0.723715 0.328830 0.625445 0.276055
C39   C     C_3   0.744488 0.422316 0.763687 -0.643372
H10   H     H_    0.694530 0.480260 0.745862 0.212281
H11   H     H_    0.802999 0.455130 0.806034 0.243888
H12   H     H_    0.714915 0.368288 0.822785 0.229629
N4    N     N_2   0.228984 0.624536 0.339502 -0.451095
H13   H     H_    0.276722 0.669681 0.372557 0.277548
C40   C     C_3   0.255161 0.575679 0.235097 -0.648807
H14   H     H_    0.304937 0.517587 0.253177 0.212838
H15   H     H_    0.284832 0.629248 0.175481 0.228939
H16   H     H_    0.196420 0.542925 0.193199 0.244334
Br1   Br    Br    0.110214 0.284924 0.747234 -0.561797
Br2   Br    Br    0.889909 0.714589 0.252215 -0.568802
N5    N     N_2   0.693267 0.897138 0.304735 -0.395844
H17   H     H_    0.723683 0.839425 0.345709 0.267088
C41   C     C_3   0.667798 0.875837 0.188420 -0.594697
H18   H     H_    0.611802 0.823728 0.187085 0.198399
H19   H     H_    0.724920 0.842792 0.142154 0.260748
H20   H     H_    0.647996 0.943904 0.143494 0.235271
N6    N     N_2   0.307309 0.103629 0.694733 -0.388647
H21   H     H_    0.269995 0.152628 0.647952 0.271943
C42   C     C_3   0.332729 0.138650 0.806710 -0.599236
H22   H     H_    0.336451 0.219566 0.806588 0.216660
H23   H     H_    0.398142 0.108637 0.833850 0.203410
H24   H     H_    0.281933 0.116355 0.869938 0.260095
N7    N     N_2   0.307816 0.901396 0.696865 -0.392980
H25   H     H_    0.275025 0.847539 0.652734 0.242566
C43   C     C_3   0.334618 0.871961 0.810369 -0.642399
H26   H     H_    0.277014 0.840463 0.856045 0.233697
H27   H     H_    0.358307 0.935651 0.859849 0.239441
H28   H     H_    0.388306 0.816090 0.806028 0.205525
N8    N     N_2   0.691059 0.098816 0.301119 -0.413351
H29   H     H_    0.666885 0.155651 0.252425 0.236275
C44   C     C_3   0.772436 0.121184 0.360450 -0.605492
H30   H     H_    0.820508 0.153419 0.299627 0.231684
H31   H     H_    0.802414 0.053659 0.396604 0.254932
H32   H     H_    0.759515 0.174392 0.430343 0.200771

loop_
_geom_bond_atom_site_label_1
_geom_bond_atom_site_label_2
_ccdc_geom_bond_type
C23   O8    A    
Cu1   O1    S    
C43   H26   S    
C9    H5    S    
C44   H30   S    
N5    H17   S    
C14   C18   A    
C11   H7    S    
C12   H8    S    
C42   H22   S    
N7    H25   S    
C35   C37   A    
C24   C26   S    
C7    Br1   S    
Cu1   O7    S    
C39   H11   S    
C3    C29   A    
Cu1   O5    S    
C24   O7    A    
Cu2   O6    S    
C10   H6    S    
C22   N8    S    
C31   C33   A    
C5    H3    S    
N3    H9    S    
C33   N3    S    
C6    H4    S    
N5    C41   S    
C4    C7    A    
C34   N4    S    
C42   H23   S    
N7    C43   S    
C21   N7    S    
N3    C39   S    
Cu2   O8    S    
C13   C19   A    
C40   H14   S    
C14   C20   A    
C19   N5    S    
C19   C22   A    
C9    N1    A    
C3    C8    A    
Cu1   Cu2   S    
C5    C7    A    
C6    C8    A    
N4    C40   S    
Cu2   O2    S    
C1    C32   S    
C2    C31   S    
C40   H15   S    
C32   C34   A    
C39   H12   S    
C41   H18   S    
C37   C38   A    
C11   N1    A    
N8    C44   S    
C41   H19   S    
C17   C18   A    
C1    O1    A    
C2    O2    A    
C1    O4    A    
C16   C18   A    
Cu1   N1    S    
C12   C14   A    
C44   H32   S    
Cu2   O4    S    
C43   H27   S    
C25   C27   T    
C10   N2    A    
N8    H29   S    
C42   H24   S    
N6    C42   S    
C15   C17   A    
C16   C22   A    
C20   N6    S    
C29   H1    S    
C8    Br2   S    
C4    C38   A    
C2    O3    A    
C12   N2    A    
C23   O5    A    
C24   O6    A    
C26   C28   T    
C13   C17   A    
C40   H16   S    
C36   C38   A    
C9    C15   A    
C29   C31   A    
C10   C16   A    
C30   C32   A    
C11   C13   A    
Cu1   O3    S    
Cu2   N2    S    
C5    C35   A    
C33   C35   A    
C6    C36   A    
C34   C36   A    
C23   C25   S    
C39   H10   S    
C41   H20   S    
N6    H21   S    
C15   C21   A    
C20   C21   A    
C3    C37   A    
C44   H31   S    
N4    H13   S    
C43   H28   S    
C27   C28   S    
C30   H2    S    
C4    C30   A    
