data_mof_unit_228.cif
_audit_creation_date              2012-12-10T20:49:46-0500
_audit_creation_method            fapswitch 2.2
_symmetry_space_group_name_H-M    P1
_symmetry_Int_Tables_number       1
_space_group_crystal_system       triclinic
_cell_length_a                    8.107433
_cell_length_b                    8.926709
_cell_length_c                    16.553388
_cell_angle_alpha                 89.987251
_cell_angle_beta                  86.286764
_cell_angle_gamma                 90.021106
_cell_volume                      1195.49817692

loop_
_atom_site_label
_atom_site_type_symbol
_atom_type_description
_atom_site_fract_x
_atom_site_fract_y
_atom_site_fract_z
_atom_type_partial_charge
C1    C     C_R   0.500014 0.782011 0.500062 0.923497
C2    C     C_R   0.385304 0.579732 0.226153 -0.205709
C3    C     C_R   0.565207 0.738080 0.833491 -0.006109
C4    C     C_R   0.368939 0.590692 0.143978 -0.008801
C5    C     C_R   0.423373 0.709896 0.884663 0.012808
C6    C     C_R   0.500942 0.546421 0.089759 0.024157
C7    C     C_R   0.291192 0.627193 0.856149 -0.105899
C8    C     C_R   0.640628 0.473400 0.119114 -0.202460
C9    C     C_R   0.322974 0.528822 0.790309 -0.131579
C10   C     C_R   0.652641 0.456517 0.203797 -0.115603
C11   C     C_2   0.442362 0.701951 0.971884 -0.085300
C12   C     C_R   0.499986 0.217990 0.499997 0.971445
C13   C     C_2   0.489539 0.570393 0.002315 -0.149203
C14   C     C_2   0.119814 0.658669 0.890260 1.080107
C15   C     C_2   0.769485 0.409080 0.060890 1.031393
C16   C     C_2   0.203969 0.630681 0.117475 0.982442
C17   C     C_2   0.694636 0.846813 0.855304 0.957044
C18   C     C_2   0.796372 0.378731 0.236068 0.919323
C19   C     C_2   0.224130 0.387472 0.785675 0.966279
C20   C     C_1   0.500034 0.934798 0.500065 -0.161740
C21   C     C_1   0.499985 0.065202 0.500036 -0.154192
C22   C     C_R   0.478474 0.503051 0.654490 0.922379
C23   C     C_R   0.520653 0.499912 0.345490 0.909270
C24   C     C_R   0.465422 0.556014 0.738246 -0.148877
C25   C     C_R   0.523877 0.512629 0.257049 -0.120150
C26   C     C_R   0.581498 0.664064 0.759255 -0.213898
H1    H     H_    0.685881 0.690352 0.717436 0.212101
H2    H     H_    0.085378 0.230969 0.846657 0.362899
H3    H     H_    0.283773 0.618568 0.266705 0.199839
H4    H     H_    0.521623 0.477807 0.961537 0.188092
H5    H     H_    0.415285 0.798843 0.010137 0.199576
H6    H     H_    0.971842 0.783110 0.966777 0.375041
H7    H     H_    0.745689 0.199180 0.106083 0.310882
H8    H     H_    0.001287 0.760930 0.133225 0.364910
H9    H     H_    0.913647 0.945896 0.824277 0.356206
H10   H     H_    0.877659 0.217157 0.308881 0.355281
N1    N     N_1   0.926360 0.500000 0.499990 -0.014289
N2    N     N_1   0.073640 0.500000 0.500010 -0.011217
O1    O     O_R   0.363150 0.714660 0.500000 -0.617086
O2    O     O_R   0.093045 0.769905 0.949186 -0.787339
O3    O     O_2   0.833727 0.487989 0.007573 -0.509569
O4    O     O_R   0.816184 0.258585 0.064690 -0.702535
O5    O     O_2   0.143058 0.555712 0.065385 -0.537897
O6    O     O_R   0.114109 0.747604 0.155338 -0.783570
O7    O     O_2   0.676476 0.921109 0.917317 -0.612965
O8    O     O_R   0.835870 0.868028 0.803398 -0.791926
O9    O     O_2   0.937012 0.416210 0.213681 -0.594511
O10   O     O_R   0.770440 0.261130 0.291258 -0.795693
O11   O     O_2   0.217352 0.318410 0.722290 -0.619150
O12   O     O_R   0.636850 0.285340 0.500000 -0.602844
O13   O     O_R   0.146221 0.327877 0.856494 -0.719521
O14   O     O_R   0.636850 0.714660 0.500000 -0.617460
O15   O     O_R   0.363150 0.285340 0.500000 -0.601742
O16   O     O_R   0.346950 0.500000 0.615800 -0.571422
O17   O     O_R   0.653050 0.500000 0.384200 -0.593679
O18   O     O_R   0.620700 0.500000 0.615800 -0.622290
O19   O     O_R   0.379300 0.500000 0.384200 -0.625162
O20   O     O_2   0.001059 0.597098 0.862657 -0.554320
Zn1   Zn    Zn3+2 0.317220 0.500000 0.500010 1.039933
Zn2   Zn    Zn3+2 0.682780 0.500000 0.499990 1.030807

loop_
_geom_bond_atom_site_label_1
_geom_bond_atom_site_label_2
_ccdc_geom_bond_type
C4    C16   S    
C2    C4    A    
C9    C24   A    
C23   O17   A    
N1    N2    T    
O12   Zn2   S    
C8    C15   S    
C3    C26   A    
C19   O11   D    
C12   O12   A    
C12   O15   A    
O1    Zn1   S    
C18   O9    D    
H6    O2    S    
O15   Zn1   S    
C11   H5    S    
C22   O16   A    
O17   Zn2   S    
C17   O8    S    
C6    C13   S    
C11   C13   D    
C16   O5    D    
C26   H1    S    
C3    C17   S    
C10   C18   S    
C2    H3    S    
C6    C8    A    
H7    O4    S    
C10   C25   A    
C4    C6    A    
C1    O14   A    
C24   C26   A    
H10   O10   S    
C2    C25   A    
C5    C7    A    
O16   Zn1   S    
C23   C25   S    
C5    C11   S    
C14   O20   D    
H2    O13   S    
C22   C24   S    
O19   Zn1   S    
N1    Zn2   S    
C1    O1    A    
C14   O2    S    
N2    Zn1   S    
C19   O13   S    
C13   H4    S    
H8    O6    S    
C20   C21   T    
C15   O3    D    
C8    C10   A    
C9    C19   S    
C23   O19   A    
C7    C9    A    
C1    C20   S    
C22   O18   A    
O14   Zn2   S    
H9    O8    S    
C12   C21   S    
C16   O6    S    
C7    C14   S    
O18   Zn2   S    
C15   O4    S    
C17   O7    D    
C3    C5    A    
C18   O10   S    
