data_mof_unit_1079.cif
_audit_creation_date              2012-12-11T16:33:29-0500
_audit_creation_method            fapswitch 2.2
_symmetry_space_group_name_H-M    P1
_symmetry_Int_Tables_number       1
_space_group_crystal_system       triclinic
_cell_length_a                    6.958689
_cell_length_b                    18.273878
_cell_length_c                    20.194587
_cell_angle_alpha                 68.59339
_cell_angle_beta                  89.842025
_cell_angle_gamma                 91.176805
_cell_volume                      2390.18349416

loop_
_atom_site_label
_atom_site_type_symbol
_atom_type_description
_atom_site_fract_x
_atom_site_fract_y
_atom_site_fract_z
_atom_type_partial_charge
O1    O     O_R   0.488960 0.443750 0.941980 -0.497646
O2    O     O_R   0.823890 0.406510 0.087590 -0.534022
O3    O     O_R   0.999680 0.556250 0.058020 -0.521969
C1    C     C_R   0.651197 0.379260 0.111936 0.794337
O4    O     O_R   0.818360 0.434410 0.944340 -0.534346
O5    O     O_R   0.994110 0.584350 0.913750 -0.546421
C2    C     C_R   0.649747 0.420740 0.923602 0.745199
O6    O     O_R   0.494530 0.415650 0.086250 -0.517270
O7    O     O_3   0.662590 0.549160 0.990130 -0.356804
V1    V     V_3+5 0.935320 0.490880 0.001830 1.667432
O8    O     O_R   0.324180 0.593490 0.912410 -0.511305
C3    C     C_R   0.157169 0.617483 0.885218 0.835451
O9    O     O_R   0.329720 0.565590 0.055660 -0.504901
C4    C     C_R   0.162402 0.577411 0.077946 0.781096
V2    V     V_3+5 0.435990 0.509120 0.998170 1.725924
O10   O     O_3   0.158850 0.450840 0.009870 -0.345945
C5    C     C_3   0.039970 0.709798 0.309174 -0.186026
C6    C     C_3   0.229384 0.683326 0.285337 0.427045
H1    H     H_    0.955553 0.676569 0.358043 0.236465
H2    H     H_    0.466329 0.780304 0.282509 0.223191
C7    C     C_1   0.158937 0.622273 0.124064 0.012885
C8    C     C_1   0.111631 0.876950 0.375936 -0.035398
C9    C     C_3   0.966444 0.734144 0.231740 0.205933
C10   C     C_3   0.154358 0.706833 0.208936 -0.161685
C11   C     C_3   0.054820 0.817451 0.213363 0.261578
C12   C     C_3   0.130174 0.793307 0.290088 -0.140743
C13   C     C_3   0.242780 0.789708 0.190605 0.370306
C14   C     C_3   0.320633 0.766523 0.267373 -0.200680
C15   C     C_1   0.158840 0.659980 0.162597 0.257218
C16   C     C_1   0.119061 0.839652 0.336958 0.188520
H3    H     H_    0.267195 0.533459 0.677627 0.218010
C17   C     C_R   0.129796 0.779427 0.878471 0.205278
C18   C     C_R   0.041885 0.846118 0.881314 0.275048
C19   C     C_R   0.999618 0.907355 0.818269 0.255926
C20   C     C_R   0.053508 0.902692 0.752819 0.106928
C21   C     C_R   0.097783 0.827548 0.749030 -0.061043
C22   C     C_R   0.127037 0.763118 0.814672 -0.082864
C23   C     C_R   0.108113 0.814089 0.683552 -0.064814
C24   C     C_R   0.124602 0.735665 0.684759 -0.063573
C25   C     C_R   0.162744 0.671939 0.750073 -0.038476
C26   C     C_R   0.154740 0.685290 0.815598 -0.085404
C27   C     C_R   0.099645 0.717804 0.621991 0.134108
C28   C     C_R   0.170602 0.648328 0.618641 0.291616
C29   C     C_R   0.224673 0.589062 0.680304 -0.160779
C30   C     C_R   0.205061 0.596895 0.745965 0.272584
C31   C     C_R   0.583058 0.091213 0.250353 0.213960
C32   C     C_R   0.526084 0.078702 0.188907 0.257062
C33   C     C_R   0.487127 0.141763 0.127105 0.258620
C34   C     C_R   0.498312 0.218675 0.126481 0.075157
C35   C     C_R   0.573755 0.234957 0.185927 -0.069030
C36   C     C_R   0.596359 0.169485 0.251455 -0.074157
C37   C     C_R   0.629807 0.312965 0.182165 -0.048094
C38   C     C_R   0.669388 0.326806 0.246392 -0.072659
C39   C     C_R   0.645899 0.262997 0.313023 -0.092711
C40   C     C_R   0.620969 0.184309 0.315756 -0.056093
C41   C     C_R   0.723901 0.402687 0.248248 0.212701
C42   C     C_R   0.784004 0.409171 0.312350 0.256636
C43   C     C_R   0.744862 0.347911 0.376538 0.372887
C44   C     C_R   0.650000 0.280277 0.376131 0.084276
O11   O     O_R   0.770540 0.084530 0.414050 -0.530117
O12   O     O_R   0.445710 0.065660 0.555720 -0.514165
O13   O     O_R   0.270420 0.915650 0.586190 -0.538046
C45   C     C_R   0.613977 0.078037 0.577776 0.761591
O14   O     O_R   0.441140 0.093540 0.412470 -0.525736
O15   O     O_R   0.265820 0.943740 0.441930 -0.533617
C46   C     C_R   0.611371 0.118204 0.386175 0.816693
O16   O     O_R   0.775150 0.056440 0.558310 -0.527196
O17   O     O_3   0.602370 0.950960 0.510050 -0.353633
V3    V     V_3+5 0.329450 0.009140 0.498150 1.645467
O18   O     O_R   0.935790 0.934280 0.444060 -0.497773
C47   C     C_R   0.103943 0.921682 0.422418 0.768661
O19   O     O_R   0.940370 0.906390 0.587310 -0.520754
C48   C     C_R   0.107124 0.881377 0.613755 0.788124
V4    V     V_3+5 0.828810 0.990710 0.501460 1.665269
O20   O     O_3   0.105780 0.049100 0.489960 -0.358324
C49   C     C_3   0.735773 0.314319 0.719364 -0.183240
C50   C     C_3   0.548346 0.291468 0.689793 0.268084
H4    H     H_    0.824149 0.368519 0.692802 0.225161
C51   C     C_1   0.619620 0.122907 0.624031 -0.019946
C52   C     C_1   0.642948 0.374982 0.878278 -0.017837
C53   C     C_3   0.805572 0.228409 0.739627 -0.170188
C54   C     C_3   0.617899 0.206487 0.709903 -0.150960
C55   C     C_3   0.706350 0.205837 0.813426 0.420010
C56   C     C_3   0.637717 0.290580 0.793254 -0.130618
C57   C     C_3   0.520088 0.183463 0.783639 0.327213
C58   C     C_3   0.451025 0.268589 0.763697 0.177531
C59   C     C_1   0.618218 0.160407 0.662810 0.209414
C60   C     C_1   0.641706 0.336964 0.840010 0.208015
H5    H     H_    0.950303 0.210077 0.729429 0.235803
Cl1   Cl    Cl    0.348773 0.594739 0.333833 -0.388269
Br1   Br    Br    0.881238 0.000280 0.822311 -0.256269
Br2   Br    Br    0.087009 0.003819 0.676548 -0.462757
Br3   Br    Br    0.903000 0.764876 0.553909 -0.479061
Br4   Br    Br    0.174138 0.627655 0.531867 -0.332369
Cl2   Cl    Cl    0.230148 0.506936 0.817550 -0.633332
Cl3   Cl    Cl    0.793731 0.359027 0.458272 -0.388805
Cl4   Cl    Cl    0.652648 0.004995 0.320827 -0.604695
Br5   Br    Br    0.476875 0.973335 0.191815 -0.291376
Br6   Br    Br    0.412956 0.121547 0.042695 -0.154258
Br7   Br    Br    0.341663 0.289652 0.054428 -0.437887
Cl5   Cl    Cl    0.694974 0.493794 0.177351 -0.566137
Br8   Br    Br    0.896237 0.505854 0.313848 -0.263157
Br9   Br    Br    0.457810 0.237656 0.449522 -0.418921
Br10  Br    Br    0.430554 0.353562 0.600723 -0.249980
Br11  Br    Br    0.205411 0.302908 0.785020 -0.399719
Cl6   Cl    Cl    0.375917 0.097107 0.826020 -0.368671
Cl7   Cl    Cl    0.813264 0.150464 0.896195 -0.333699
Cl8   Cl    Cl    0.371861 0.841140 0.109973 -0.317730
Br12  Br    Br    0.937238 0.915883 0.158737 -0.192456
Br13  Br    Br    0.718906 0.707233 0.202958 -0.325394
Cl9   Cl    Cl    0.288277 0.732879 0.948299 -0.579693
Br14  Br    Br    0.996669 0.856020 0.972018 -0.158767

loop_
_geom_bond_atom_site_label_1
_geom_bond_atom_site_label_2
_ccdc_geom_bond_type
C17   Cl9   S    
C27   Br3   S    
C20   C21   A    
C10   C13   S    
C1    O6    A    
C49   C56   S    
C51   C59   T    
C53   C54   S    
C45   C51   S    
C38   C39   A    
C29   C30   A    
C42   Br8   S    
C5    C9    S    
C32   Br5   S    
C1    C37   S    
C6    C10   S    
C5    C12   S    
C50   C54   S    
C4    C7    S    
C21   C22   A    
C49   H4    S    
C41   Cl5   S    
O5    C3    A    
C23   C24   A    
O17   V4    S    
V2    O10   S    
C28   Br4   S    
C41   C42   A    
C19   C20   A    
C31   C32   A    
O12   C45   A    
C43   Cl3   S    
C10   C15   S    
C19   Br1   S    
O8    V2    S    
C32   C33   A    
O17   V3    S    
O18   V4    S    
C35   C37   A    
C9    C10   S    
O13   C48   A    
O18   C47   A    
O1    V2    S    
O7    V1    S    
C11   Br12  S    
C53   H5    S    
C20   Br2   S    
O11   C46   A    
O9    C4    A    
C22   C26   A    
C53   C55   S    
C18   C19   A    
C24   C27   A    
C39   C44   A    
C25   C30   A    
C45   O16   A    
C17   C22   A    
V4    O20   S    
C6    Cl1   S    
C6    C14   S    
C49   C50   S    
O19   V4    S    
H3    C29   S    
C24   C25   A    
C18   Br14  S    
H2    C14   S    
C35   C36   A    
C11   C12   S    
C57   C58   S    
C7    C15   T    
C31   C36   A    
O13   V3    S    
O14   C46   A    
O2    C1    A    
C28   C29   A    
C3    C26   S    
C55   C56   S    
C5    C6    S    
O16   V4    S    
O14   V3    S    
O3    C4    A    
C33   C34   A    
C55   C57   S    
C31   Cl4   S    
C50   C58   S    
C12   C16   S    
O6    V2    S    
O9    V2    S    
C58   Br11  S    
C27   C28   A    
C57   Cl6   S    
C30   Cl2   S    
C8    C47   S    
C40   C46   S    
C37   C38   A    
O4    C2    A    
C38   C41   A    
O12   V3    S    
C33   Br6   S    
C9    Br13  S    
C39   C40   A    
C25   C26   A    
C8    C16   T    
O1    C2    A    
C56   C60   S    
C56   C58   S    
O19   C48   A    
C49   C53   S    
O5    V1    S    
O8    C3    A    
C11   C13   S    
C54   C57   S    
C12   C14   S    
C44   Br9   S    
C17   C18   A    
C21   C23   A    
C43   C44   A    
O4    V1    S    
C52   C60   T    
O3    V1    S    
O15   C47   A    
C34   Br7   S    
C42   C43   A    
C13   Cl8   S    
O15   V3    S    
O11   V4    S    
C5    H1    S    
C55   Cl7   S    
V3    O20   S    
C36   C40   A    
C9    C11   S    
O7    V2    S    
C34   C35   A    
C13   C14   S    
C50   Br10  S    
V1    O10   S    
C54   C59   S    
C2    C52   S    
C23   C48   S    
O2    V1    S    
