data_mof_unit_159.cif
_audit_creation_date              2012-10-26T18:44:11-0400
_audit_creation_method            fapswitch 2.2
_symmetry_space_group_name_H-M    P1
_symmetry_Int_Tables_number       1
_space_group_crystal_system       triclinic
_cell_length_a                    19.31962
_cell_length_b                    9.092314
_cell_length_c                    7.777589
_cell_angle_alpha                 90.052451
_cell_angle_beta                  89.715527
_cell_angle_gamma                 89.95586
_cell_volume                      1366.19386153

loop_
_atom_site_label
_atom_site_type_symbol
_atom_type_description
_atom_site_fract_x
_atom_site_fract_y
_atom_site_fract_z
_atom_type_partial_charge
C1    C     C_R   0.500103 0.219981 0.499943 0.528526
C2    C     C_R   0.252435 0.555986 0.367000 0.266145
C3    C     C_R   0.183269 0.416312 0.641610 0.080624
C4    C     C_R   0.817786 0.419025 0.364789 0.058063
C5    C     C_R   0.818421 0.536416 0.647221 0.081200
C6    C     C_R   0.180508 0.538577 0.362094 0.082585
C7    C     C_R   0.145697 0.471064 0.500771 -0.048590
C8    C     C_R   0.854322 0.469803 0.509908 -0.012993
C9    C     C_R   0.290721 0.493218 0.503096 -0.060133
C10   C     C_R   0.709361 0.497063 0.498153 -0.046139
C11   C     C_R   0.930307 0.467330 0.511907 0.374248
C12   C     C_R   0.500083 0.780029 0.500031 0.525274
C13   C     C_R   0.070066 0.468659 0.504822 0.325168
C14   C     C_3   0.309537 0.228764 0.764139 0.031552
C15   C     C_3   0.354829 0.182481 0.915050 -0.235958
C16   C     C_3   0.375542 0.020836 0.902564 -0.481568
C17   C     C_3   0.691283 0.237834 0.230544 0.031449
C18   C     C_3   0.648041 0.194478 0.074823 -0.234234
C19   C     C_3   0.624203 0.034788 0.085967 -0.483648
C20   C     C_3   0.688850 0.773714 0.704163 0.036265
C21   C     C_3   0.743996 0.894151 0.716722 -0.281273
C22   C     C_3   0.718077 0.037322 0.637794 -0.486182
C23   C     C_R   0.366996 0.498550 0.500735 0.545144
C24   C     C_3   0.305912 0.773869 0.297452 0.038909
C25   C     C_3   0.249856 0.889998 0.266380 -0.258380
C26   C     C_3   0.270252 0.037515 0.344744 -0.491868
C27   C     C_R   0.633013 0.499290 0.499374 0.544046
C28   C     C_1   0.500207 0.065383 0.499877 -0.092266
C29   C     C_1   0.500210 0.934646 0.499979 -0.094852
C30   C     C_R   0.255609 0.424688 0.641377 0.250309
C31   C     C_R   0.745518 0.429878 0.360537 0.244567
C32   C     C_R   0.746669 0.558974 0.636744 0.221971
Cu1   Cu    Cu3+1 0.500000 0.500000 0.669080 1.016041
Cu2   Cu    Cu3+1 0.500000 0.500000 0.330920 1.016551
H1    H     H_    0.339503 0.211495 0.642877 0.112001
H2    H     H_    0.601841 0.266963 0.067142 0.204418
H3    H     H_    0.679387 0.210195 0.956236 0.178144
H4    H     H_    0.669500 0.959633 0.089438 0.152831
H5    H     H_    0.592273 0.007708 0.971958 0.150548
H6    H     H_    0.592326 0.017622 0.203278 0.163284
H7    H     H_    0.643811 0.806199 0.784923 0.166410
H8    H     H_    0.669353 0.768305 0.569792 0.114818
H9    H     H_    0.757650 0.912673 0.853633 0.168428
H10   H     H_    0.791239 0.859946 0.645299 0.170317
H11   H     H_    0.710270 0.021172 0.497918 0.131130
H12   H     H_    0.262176 0.158985 0.763064 0.141554
H13   H     H_    0.756852 0.125863 0.657052 0.160619
H14   H     H_    0.668186 0.071322 0.697026 0.145809
H15   H     H_    0.353151 0.806071 0.224818 0.160399
H16   H     H_    0.320819 0.774192 0.435895 0.102531
H17   H     H_    0.241508 0.903127 0.126043 0.179737
H18   H     H_    0.200394 0.854589 0.326433 0.184038
H19   H     H_    0.270458 0.028180 0.486874 0.132791
H20   H     H_    0.232263 0.123348 0.307469 0.167001
H21   H     H_    0.322607 0.071103 0.300426 0.142033
H22   H     H_    0.114657 0.432500 0.838611 0.251960
H23   H     H_    0.402363 0.251149 0.917252 0.203409
H24   H     H_    0.120167 0.263134 0.747790 0.238754
H25   H     H_    0.890382 0.433993 0.175995 0.244481
H26   H     H_    0.877520 0.261416 0.254189 0.246910
H27   H     H_    0.850035 0.692164 0.817053 0.247212
H28   H     H_    0.832315 0.526241 0.904334 0.281857
H29   H     H_    0.115667 0.503823 0.162620 0.244823
H30   H     H_    0.108377 0.672014 0.254980 0.236367
H31   H     H_    0.325994 0.201371 0.036863 0.180816
H32   H     H_    0.328910 0.949609 0.902167 0.154356
H33   H     H_    0.408162 0.991122 0.014445 0.152652
H34   H     H_    0.405676 0.000761 0.783110 0.162889
H35   H     H_    0.659153 0.221304 0.348324 0.116925
H36   H     H_    0.737914 0.165846 0.235744 0.139749
N1    N     N_1   0.500000 0.500000 0.076820 -0.081984
N2    N     N_3   0.143542 0.591453 0.214971 -0.564241
N3    N     N_1   0.500000 0.500000 0.923180 -0.082223
N4    N     N_R   0.034521 0.594545 0.535319 -0.228656
N5    N     N_R   0.965968 0.341038 0.482594 -0.237932
N6    N     N_R   0.965750 0.593875 0.538809 -0.196240
N7    N     N_R   0.034866 0.341592 0.479487 -0.231198
N8    N     N_3   0.148827 0.354126 0.788304 -0.575884
N9    N     N_3   0.852987 0.358887 0.217837 -0.593226
N10   N     N_3   0.855251 0.578938 0.799169 -0.586954
O1    O     O_R   0.500000 0.288390 0.642760 -0.515953
O2    O     O_3   0.711034 0.386462 0.213449 -0.504250
O3    O     O_3   0.713846 0.637140 0.767287 -0.535668
O4    O     O_3   0.284654 0.634016 0.235967 -0.498869
O5    O     O_R   0.500000 0.711610 0.357240 -0.503665
O6    O     O_R   0.500000 0.711610 0.642760 -0.505017
O7    O     O_R   0.500000 0.288390 0.357240 -0.514681
O8    O     O_R   0.400140 0.500000 0.642830 -0.461000
O9    O     O_R   0.599860 0.500000 0.357170 -0.465019
O10   O     O_R   0.599860 0.500000 0.642830 -0.473014
O11   O     O_R   0.400140 0.500000 0.357170 -0.472234
O12   O     O_3   0.291356 0.378036 0.785117 -0.494649

loop_
_geom_bond_atom_site_label_1
_geom_bond_atom_site_label_2
_ccdc_geom_bond_type
C10   C27   S    
C1    O7    A    
C22   H14   S    
H26   N9    S    
C17   H35   S    
C12   C29   S    
C2    O4    S    
C4    C8    A    
C26   H21   S    
C20   H7    S    
C14   H12   S    
C6    N2    S    
C31   O2    S    
N4    N6    A    
C12   O5    A    
H28   N10   S    
C28   C29   T    
C18   H3    S    
C18   C19   S    
C3    C7    A    
C11   N6    A    
H27   N10   S    
C1    O1    A    
C15   C16   S    
C15   H31   S    
H22   N8    S    
C27   O10   A    
C17   O2    S    
Cu2   O11   S    
C21   H9    S    
C10   C31   A    
C1    C28   S    
C16   H34   S    
C5    C32   A    
C22   H13   S    
C17   H36   S    
C21   C22   S    
C15   H23   S    
C2    C6    A    
C26   H20   S    
Cu1   Cu2   S    
C24   H16   S    
C13   N7    A    
C24   C25   S    
C4    N9    S    
C30   O12   S    
H25   N9    S    
C14   H1    S    
N1    N3    T    
C9    C23   S    
C25   C26   S    
Cu2   O5    S    
C3    C30   A    
Cu1   O6    S    
C25   H17   S    
C19   H4    S    
C21   H10   S    
C17   C18   S    
C16   H33   S    
C13   N4    A    
C5    N10   S    
N5    N7    A    
C14   O12   S    
C19   H5    S    
C9    C30   A    
Cu1   N3    S    
C23   O8    A    
C23   O11   A    
C16   H32   S    
C26   H19   S    
C24   H15   S    
C32   O3    S    
Cu1   O8    S    
C5    C8    A    
C20   H8    S    
C6    C7    A    
C12   O6    A    
C24   O4    S    
C25   H18   S    
C11   N5    A    
Cu1   O10   S    
C3    N8    S    
Cu1   O1    S    
C8    C11   S    
H29   N2    S    
C27   O9    A    
Cu2   O7    S    
H30   N2    S    
Cu2   O9    S    
C4    C31   A    
C19   H6    S    
H24   N8    S    
C10   C32   A    
C7    C13   S    
C22   H11   S    
C20   C21   S    
C20   O3    S    
C14   C15   S    
C2    C9    A    
C18   H2    S    
Cu2   N1    S    
