data_mof_unit_1810.cif
_audit_creation_date              2012-12-11T14:08:03-0500
_audit_creation_method            fapswitch 2.2
_symmetry_space_group_name_H-M    P1
_symmetry_Int_Tables_number       1
_space_group_crystal_system       triclinic
_cell_length_a                    11.023822
_cell_length_b                    10.932477
_cell_length_c                    18.680131
_cell_angle_alpha                 90.101859
_cell_angle_beta                  90.078524
_cell_angle_gamma                 59.96891
_cell_volume                      1949.05645106

loop_
_atom_site_label
_atom_site_type_symbol
_atom_type_description
_atom_site_fract_x
_atom_site_fract_y
_atom_site_fract_z
_atom_type_partial_charge
C1    C     C_R   0.227601 0.649262 0.605372 0.599338
C2    C     C_3   0.731970 0.553802 0.799610 -0.195044
C3    C     C_3   0.730377 0.695310 0.806684 -0.040438
C4    C     C_3   0.680680 0.656945 0.673972 0.049769
C5    C     C_3   0.822014 0.656389 0.678944 -0.345980
C6    C     C_3   0.693500 0.535022 0.724114 0.128781
C7    C     C_2   0.690366 0.128969 0.661533 -0.091156
C8    C     C_2   0.714894 0.092975 0.816082 -0.087405
C9    C     C_2   0.823095 0.071370 0.774690 -0.155064
C10   C     C_2   0.798500 0.120315 0.699435 -0.115785
C11   C     C_2   0.160776 0.668721 0.674663 -0.030742
C12   C     C_R   0.655736 0.624595 0.600328 0.582319
C13   C     C_2   0.163417 0.685865 0.833430 0.364130
C14   C     C_2   0.186745 0.570640 0.797046 -0.112221
C15   C     C_2   0.209739 0.557314 0.719493 -0.067843
C16   C     C_2   0.649446 0.647338 0.317201 -0.107791
C17   C     C_2   0.634823 0.663950 0.159242 -0.107766
C18   C     C_2   0.709597 0.544728 0.195948 -0.157948
C19   C     C_2   0.690010 0.536724 0.272394 -0.153929
C20   C     C_2   0.632961 0.197052 0.318747 -0.100943
C21   C     C_2   0.636836 0.201723 0.163938 -0.101506
C22   C     C_2   0.523513 0.228584 0.201069 -0.163285
C23   C     C_R   0.631921 0.220776 0.599033 0.603700
C24   C     C_2   0.517503 0.255026 0.277037 -0.155337
C25   C     C_2   0.256534 0.626140 0.319067 -0.100067
C26   C     C_2   0.198143 0.638939 0.168625 -0.103373
C27   C     C_2   0.261518 0.704091 0.198186 -0.146044
C28   C     C_2   0.309828 0.678289 0.272093 -0.163363
C29   C     C_R   0.727058 0.046275 0.889990 0.531506
C30   C     C_R   0.756808 0.712522 0.883025 0.531382
C31   C     C_R   0.113922 0.709680 0.906219 0.541747
C32   C     C_R   0.673203 0.113818 0.101267 0.568301
C33   C     C_R   0.692729 0.687985 0.094552 0.568648
C34   C     C_R   0.292000 0.618394 0.393261 0.556071
C35   C     C_R   0.102074 0.704252 0.109717 0.559465
C36   C     C_R   0.641062 0.621867 0.392695 0.530374
C37   C     C_R   0.613606 0.234352 0.393435 0.533583
C38   C     C_3   0.587423 0.820547 0.780330 -0.160659
C39   C     C_3   0.565928 0.806004 0.700291 0.277703
C40   C     C_3   0.847153 0.686225 0.757300 -0.303356
Cr1   Cr    Cr6+3 0.393010 0.398050 0.501480 1.039264
Cr2   Cr    Cr6+3 0.398820 0.707980 0.501630 1.096547
Cr3   Cr    Cr6+3 0.708140 0.393940 0.496850 1.034894
Cr4   Cr    Cr6+3 0.937950 0.938450 0.008940 1.042132
Cr5   Cr    Cr6+3 0.626180 0.937030 0.994750 1.025025
Cr6   Cr    Cr6+3 0.937790 0.625760 0.001410 1.014489
H1    H     H_    0.584188 0.922642 0.789441 0.080625
H2    H     H_    0.779268 0.431786 0.703911 0.119438
H3    H     H_    0.948480 0.597803 0.775639 0.141045
H4    H     H_    0.910394 0.552241 0.661650 0.144513
H5    H     H_    0.927203 0.027863 0.797319 0.209448
H6    H     H_    0.861689 0.162403 0.678046 0.156546
H7    H     H_    0.609842 0.142715 0.793832 0.159574
H8    H     H_    0.631956 0.080472 0.681464 0.077177
H9    H     H_    0.191091 0.481453 0.825011 0.091963
H10   H     H_    0.279087 0.450794 0.700051 0.173483
H11   H     H_    0.499786 0.824475 0.811496 0.209924
H12   H     H_    0.086809 0.775481 0.691499 0.162587
H13   H     H_    0.797323 0.452983 0.171377 0.154128
H14   H     H_    0.722445 0.431933 0.293196 0.157359
H15   H     H_    0.542088 0.752649 0.182463 0.098472
H16   H     H_    0.615225 0.753579 0.298345 0.096023
H17   H     H_    0.440459 0.214887 0.178085 0.155428
H18   H     H_    0.413170 0.317057 0.299642 0.155229
H19   H     H_    0.715547 0.223153 0.186186 0.100985
H20   H     H_    0.738245 0.134358 0.297523 0.098313
H21   H     H_    0.261950 0.792077 0.171454 0.152949
H22   H     H_    0.376203 0.719246 0.290181 0.140489
H23   H     H_    0.207406 0.543177 0.191162 0.096188
H24   H     H_    0.184825 0.589804 0.303852 0.107533
H25   H     H_    0.577014 0.887727 0.670298 0.095583
H26   H     H_    0.851712 0.785448 0.760164 0.119320
H27   H     H_    0.821060 0.737650 0.642768 0.106024
H28   H     H_    0.838853 0.463456 0.810975 0.130276
H29   H     H_    0.663161 0.547434 0.841160 0.166854
O1    O     O_R   0.507110 0.256280 0.580300 -0.498603
O2    O     O_R   0.524640 0.695370 0.425100 -0.530807
O3    O     O_R   0.735890 0.504390 0.415980 -0.512595
O4    O     O_R   0.690560 0.277820 0.422350 -0.512194
O5    O     O_3   0.499990 0.499990 0.499980 -0.264797
O6    O     O_R   0.089190 0.825870 0.932320 -0.474411
O7    O     O_R   0.819070 0.053960 0.931440 -0.478090
O8    O     O_R   0.607070 0.076440 0.916460 -0.513924
O9    O     O_R   0.647110 0.806550 0.917690 -0.515983
O10   O     O_R   0.837080 0.593860 0.915300 -0.515567
O11   O     O_R   0.064770 0.636080 0.932550 -0.556594
O12   O     O_R   0.280830 0.527190 0.577940 -0.494694
O13   O     O_R   0.068250 0.829200 0.092940 -0.514040
O14   O     O_R   0.799650 0.057040 0.080330 -0.494917
O15   O     O_R   0.586130 0.079760 0.077080 -0.509068
O16   O     O_R   0.627700 0.809630 0.066580 -0.491492
O17   O     O_R   0.816140 0.597180 0.075920 -0.504398
O18   O     O_R   0.045360 0.639170 0.081440 -0.495352
O19   O     O_3   0.833980 0.833750 0.001700 -0.288018
O20   O     O_R   0.261360 0.738990 0.584270 -0.425752
O21   O     O_R   0.532590 0.694780 0.574370 -0.406048
O22   O     O_R   0.744470 0.503750 0.577000 -0.539174
O23   O     O_R   0.698520 0.277230 0.571620 -0.479558
O24   O     O_R   0.498530 0.256920 0.419280 -0.526316
O25   O     O_R   0.272880 0.527780 0.428680 -0.515113
O26   O     O_R   0.252780 0.739630 0.423250 -0.514078
F1    F     F_    0.162387 0.797630 0.800849 -0.622249
F2    F     F_    0.430337 0.834529 0.688023 -0.545269
S1    S     S_3+6 0.542200 0.516642 0.729204 0.009528
O27   O     O_2   0.499304 0.499022 0.656019 -0.224292
O28   O     O_2   0.573122 0.389856 0.773258 -0.362907
O29   O     O_3   0.413300 0.659422 0.768634 -0.391337
H30   H     H_    0.430246 0.642281 0.820680 0.338513

loop_
_geom_bond_atom_site_label_1
_geom_bond_atom_site_label_2
_ccdc_geom_bond_type
C1    O12   A    
C7    C10   D    
Cr2   O5    S    
C1    C11   S    
Cr3   O23   S    
C23   O1    A    
C10   H6    S    
Cr1   O5    S    
S1    O28   D    
Cr5   O8    S    
Cr3   O3    S    
C37   O4    A    
C26   C27   D    
C16   H16   S    
Cr2   O21   S    
C8    C29   S    
C20   H20   S    
C28   H22   S    
C29   O8    A    
Cr4   O7    S    
C36   O2    A    
C33   O16   A    
C38   C39   S    
Cr6   O17   S    
Cr3   O4    S    
C40   H3    S    
C18   C19   S    
C13   C14   D    
C17   H15   S    
C22   H17   S    
C11   C15   D    
C32   O15   A    
C20   C24   D    
C3    C38   S    
C8    C9    D    
C9    H5    S    
C34   O25   A    
O29   H30   S    
Cr1   O24   S    
C6    S1    S    
C4    C12   S    
C11   H12   S    
C9    C10   S    
C2    H28   S    
C25   C34   S    
Cr6   O10   S    
C14   H9    S    
C24   H18   S    
C31   O11   A    
C21   C22   D    
C30   O9    A    
C2    C6    S    
C17   C33   S    
Cr5   O19   S    
S1    O27   D    
C35   O18   A    
Cr1   O12   S    
C21   C32   S    
C34   O26   A    
Cr2   O20   S    
C27   H21   S    
C4    C6    S    
Cr4   O6    S    
C33   O17   A    
Cr3   O5    S    
C25   C28   D    
C3    C30   S    
C38   H11   S    
C35   O13   A    
C18   H13   S    
C32   O14   A    
Cr6   O19   S    
C4    C39   S    
C1    O20   A    
C17   C18   D    
C12   O22   A    
Cr1   O25   S    
C30   O10   A    
Cr5   O15   S    
C38   H1    S    
C6    H2    S    
C3    C40   S    
C22   C24   S    
C5    H4    S    
Cr5   O9    S    
Cr2   O26   S    
C37   O24   A    
C40   H26   S    
C21   H19   S    
C13   C31   S    
Cr3   O22   S    
C4    C5    S    
C8    H7    S    
C39   F2    S    
C19   H14   S    
C31   O6    A    
C15   H10   S    
C2    C3    S    
C29   O7    A    
C36   O3    A    
C16   C36   S    
Cr1   O1    S    
C20   C37   S    
Cr6   O18   S    
C16   C19   D    
C7    C23   S    
C5    H27   S    
Cr5   O16   S    
Cr4   O19   S    
Cr4   O14   S    
C26   C35   S    
C23   O23   A    
Cr2   O2    S    
C5    C40   S    
C27   C28   S    
C26   H23   S    
C39   H25   S    
C14   C15   S    
C12   O21   A    
C25   H24   S    
C7    H8    S    
C13   F1    S    
Cr4   O13   S    
S1    O29   S    
C2    H29   S    
Cr6   O11   S    
