data_mof_unit_771.cif
_audit_creation_date              2012-12-10T17:35:03-0500
_audit_creation_method            fapswitch 2.2
_symmetry_space_group_name_H-M    P1
_symmetry_Int_Tables_number       1
_space_group_crystal_system       triclinic
_cell_length_a                    12.367403
_cell_length_b                    13.182035
_cell_length_c                    13.871937
_cell_angle_alpha                 105.4763
_cell_angle_beta                  73.744098
_cell_angle_gamma                 116.946329
_cell_volume                      1909.31345309

loop_
_atom_site_label
_atom_site_type_symbol
_atom_type_description
_atom_site_fract_x
_atom_site_fract_y
_atom_site_fract_z
_atom_type_partial_charge
C1    C     C_R   0.144059 0.713589 0.508024 0.852943
C2    C     C_1   0.975083 0.507085 0.791754 -0.129230
C3    C     C_R   0.696604 0.004371 0.587151 -0.138928
C4    C     C_R   0.772118 0.165143 0.498137 -0.170376
C5    C     C_R   0.203971 0.880743 0.424471 0.218274
C6    C     C_R   0.301760 0.965766 0.373985 -0.172754
C7    C     C_R   0.421351 0.005042 0.390141 0.225059
C8    C     C_R   0.441877 0.974700 0.472743 -0.000254
C9    C     C_R   0.340652 0.889329 0.526656 -0.097024
C10   C     C_R   0.559401 0.021178 0.501206 0.101877
C11   C     C_R   0.578212 0.969486 0.568542 -0.024799
C12   C     C_R   0.984266 0.504394 0.686387 0.830701
C13   C     C_R   0.477479 0.891526 0.624099 -0.174805
C14   C     C_R   0.358555 0.858050 0.609707 0.403496
C15   C     C_R   0.654914 0.124942 0.474716 -0.206406
C16   C     C_R   0.795643 0.098157 0.547779 0.405167
C17   C     C_R   0.225654 0.833909 0.493779 -0.172003
C18   C     C_R   0.633195 0.665144 0.666627 -0.291977
C19   C     C_R   0.251237 0.355409 0.360210 0.040272
C20   C     C_R   0.352435 0.327873 0.322102 -0.328992
C21   C     C_R   0.456181 0.383745 0.369370 0.427377
C22   C     C_R   0.453746 0.464380 0.461355 -0.039368
C23   C     C_R   0.855738 0.286178 0.490367 0.819114
C24   C     C_R   0.347491 0.491419 0.494971 0.201647
C25   C     C_R   0.551479 0.522202 0.520616 -0.010753
C26   C     C_R   0.539639 0.604240 0.608742 0.141234
C27   C     C_R   0.434428 0.625653 0.639493 -0.264783
C28   C     C_R   0.343152 0.573952 0.581860 -0.125760
C29   C     C_R   0.659517 0.501605 0.499841 0.089545
C30   C     C_R   0.738530 0.644083 0.638744 0.114370
C31   C     C_R   0.015923 0.495889 0.313633 0.837929
C32   C     C_1   0.025817 0.494242 0.208352 -0.109535
C33   C     C_2   0.042215 0.491760 0.014353 -0.147091
C34   C     C_2   0.959749 0.511168 0.985900 -0.132981
C35   C     C_1   0.967542 0.509191 0.880415 0.021940
C36   C     C_1   0.033944 0.493005 0.119769 0.037935
Cu1   Cu    Cu3+1 0.899780 0.525060 0.522890 0.991072
Cu2   Cu    Cu3+1 0.100220 0.474940 0.477110 0.963969
H1    H     H_    0.885843 0.528262 0.041560 0.173013
H2    H     H_    0.811315 0.690448 0.682948 0.132105
H3    H     H_    0.422499 0.683833 0.709194 0.169342
H4    H     H_    0.624841 0.728786 0.733010 0.143767
H5    H     H_    0.675120 0.435641 0.441160 0.208645
H6    H     H_    0.173537 0.313024 0.321322 0.154963
H7    H     H_    0.351094 0.264608 0.253546 0.157453
H8    H     H_    0.270484 0.602182 0.607643 0.240287
H9    H     H_    0.116068 0.474582 0.958686 0.162199
H10   H     H_    0.490644 0.865072 0.685752 0.151582
H11   H     H_    0.711766 0.960645 0.634866 0.162467
H12   H     H_    0.635566 0.181586 0.445168 0.205264
H13   H     H_    0.286475 0.992741 0.313554 0.197325
N1    N     N_R   0.748810 0.563010 0.557590 -0.201270
N2    N     N_R   0.250540 0.437620 0.443020 -0.206062
O1    O     O_R   0.025040 0.682470 0.528790 -0.549531
O2    O     O_R   0.194310 0.640150 0.490130 -0.577621
O3    O     O_R   0.903380 0.524130 0.659910 -0.586227
O4    O     O_R   0.072660 0.481800 0.621240 -0.584144
O5    O     O_R   0.805690 0.359850 0.509870 -0.589089
O6    O     O_R   0.974960 0.317530 0.471210 -0.590512
O7    O     O_R   0.927340 0.518200 0.378760 -0.544510
O8    O     O_R   0.096620 0.475870 0.340090 -0.590604
O9    O     O_3   0.262582 0.799223 0.680914 -0.762786
H14   H     H_    0.191463 0.817202 0.685789 0.313311
O10   O     O_3   0.560152 0.363117 0.323154 -0.749206
H15   H     H_    0.545835 0.307408 0.259026 0.357210
O11   O     O_3   0.909241 0.128726 0.570049 -0.710557
H16   H     H_    0.972334 0.155001 0.509501 0.348757
Br1   Br    Br    0.048267 0.819845 0.381214 -0.479767
Br2   Br    Br    0.547375 0.073481 0.279510 -0.541907

loop_
_geom_bond_atom_site_label_1
_geom_bond_atom_site_label_2
_ccdc_geom_bond_type
C2    C35   T    
C4    C16   A    
C23   O5    A    
C9    C14   A    
C7    Br2   S    
C6    C7    A    
C18   C30   A    
C3    C16   A    
C6    H13   S    
C13   H10   S    
Cu2   O4    S    
C31   O8    A    
C1    C17   S    
Cu1   O5    S    
C18   C26   A    
C19   H6    S    
C1    O1    A    
Cu2   O8    S    
C2    C12   S    
O10   H15   S    
C19   N2    A    
C4    C15   A    
C20   H7    S    
O11   H16   S    
C3    H11   S    
C30   H2    S    
C7    C8    A    
C21   C22   A    
C29   H5    S    
C23   O6    A    
C11   C13   A    
C28   H8    S    
C26   C27   A    
C12   O3    A    
Cu2   N2    S    
C5    Br1   S    
Cu1   O1    S    
C32   C36   T    
C9    C17   A    
Cu1   Cu2   S    
C33   C34   D    
C10   C15   A    
C18   H4    S    
C1    O2    A    
C5    C6    A    
C33   H9    S    
C22   C24   A    
Cu1   O7    S    
C3    C11   A    
C10   C11   A    
C12   O4    A    
Cu2   O6    S    
C14   O9    S    
C22   C25   A    
C24   C28   A    
C33   C36   S    
C5    C17   A    
C20   C21   A    
C24   N2    A    
C25   C29   A    
C8    C10   A    
C34   C35   S    
C15   H12   S    
C27   C28   A    
C4    C23   S    
Cu1   N1    S    
C30   N1    A    
C8    C9    A    
C16   O11   S    
C31   O7    A    
C25   C26   A    
C13   C14   A    
Cu1   O3    S    
C34   H1    S    
C29   N1    A    
C31   C32   S    
O9    H14   S    
C19   C20   A    
C27   H3    S    
C21   O10   S    
Cu2   O2    S    
