data_mof_unit_4571.cif
_audit_creation_date              2013-03-05T15:55:35-0500
_audit_creation_method            fapswitch 2.2
_symmetry_space_group_name_H-M    P1
_symmetry_Int_Tables_number       1
_space_group_crystal_system       triclinic
_cell_length_a                    13.959514
_cell_length_b                    13.966642
_cell_length_c                    31.925624
_cell_angle_alpha                 90.050584
_cell_angle_beta                  90.012672
_cell_angle_gamma                 120.011212
_cell_volume                      5389.92785451

loop_
_atom_site_label
_atom_site_type_symbol
_atom_site_description
_atom_site_fract_x
_atom_site_fract_y
_atom_site_fract_z
_atom_type_partial_charge
O1    O     O_R   0.480350 0.140770 0.796330 -0.531650
O2    O     O_R   0.660420 0.519650 0.703670 -0.528321
O3    O     O_R   0.859230 0.339580 0.796330 -0.531712
O4    O     O_R   0.480350 0.140770 0.703670 -0.528406
O5    O     O_R   0.660420 0.519650 0.796330 -0.530145
O6    O     O_R   0.859230 0.339580 0.703670 -0.529556
O7    O     O_R   0.140770 0.480350 0.296330 -0.534349
O8    O     O_R   0.519650 0.660420 0.203670 -0.535896
O9    O     O_R   0.339580 0.859230 0.296330 -0.533768
O10   O     O_R   0.140770 0.480350 0.203670 -0.538011
O11   O     O_R   0.519650 0.660420 0.296330 -0.526275
O12   O     O_R   0.339580 0.859230 0.203670 -0.537090
O13   O     O_R   0.514930 0.348530 0.793250 -0.554188
O14   O     O_R   0.833600 0.485070 0.706750 -0.553270
O15   O     O_R   0.651470 0.166400 0.793250 -0.553327
O16   O     O_R   0.514930 0.348530 0.706750 -0.553650
O17   O     O_R   0.833600 0.485070 0.793250 -0.552886
O18   O     O_R   0.651470 0.166400 0.706750 -0.553033
O19   O     O_R   0.348530 0.514930 0.293250 -0.548160
O20   O     O_R   0.485070 0.833600 0.206750 -0.513160
O21   O     O_R   0.166400 0.651470 0.293250 -0.517564
O22   O     O_R   0.348530 0.514930 0.206750 -0.517957
O23   O     O_R   0.485070 0.833600 0.293250 -0.513393
O24   O     O_R   0.166400 0.651470 0.206750 -0.514235
C1    C     C_R   0.566174 0.445086 0.810145 0.819542
C2    C     C_R   0.878924 0.433895 0.689814 0.817700
C3    C     C_R   0.554876 0.120982 0.810115 0.820270
C4    C     C_R   0.565772 0.444967 0.689920 0.821736
C5    C     C_R   0.879084 0.433946 0.810134 0.818122
C6    C     C_R   0.554767 0.120661 0.689941 0.822040
C7    C     C_R   0.444951 0.566247 0.310269 0.779823
C8    C     C_R   0.433192 0.877790 0.189514 0.792475
C9    C     C_R   0.121993 0.555603 0.310341 0.820046
C10   C     C_R   0.444545 0.566770 0.189512 0.788454
C11   C     C_R   0.433542 0.878082 0.310402 0.797812
C12   C     C_R   0.121873 0.555273 0.189632 0.793199
C13   C     C_1   0.020814 0.475276 0.017306 0.093290
C14   C     C_1   0.459299 0.978434 0.482975 0.107625
C15   C     C_1   0.523515 0.550031 0.016701 0.094981
C16   C     C_1   0.012625 0.477125 0.481996 0.126049
C17   C     C_1   0.450018 0.973444 0.016628 0.094466
C18   C     C_1   0.516830 0.530583 0.482307 0.090414
C19   C     C_1   0.466526 0.990174 0.520279 0.080283
C20   C     C_1   0.007985 0.470140 0.980047 0.063257
C21   C     C_1   0.521261 0.525448 0.519713 0.087144
C22   C     C_1   0.457731 0.986421 0.979353 0.063487
C23   C     C_1   0.000746 0.472521 0.519261 0.101352
C24   C     C_1   0.528746 0.542226 0.979433 0.061953
Cr1   Cr    Cr6+3 0.504240 0.249200 0.750000 0.974785
Cr2   Cr    Cr6+3 0.744960 0.495760 0.750000 0.974293
Cr3   Cr    Cr6+3 0.750800 0.255040 0.750000 0.973693
Cr4   Cr    Cr6+3 0.249200 0.504240 0.250000 1.013758
Cr5   Cr    Cr6+3 0.495760 0.744960 0.250000 1.057350
Cr6   Cr    Cr6+3 0.255040 0.750800 0.250000 1.058557
O25   O     O_3   0.666667 0.333333 0.750000 -0.336796
O26   O     O_3   0.333333 0.666667 0.250000 -0.364767
C25   C     C_R   0.942332 0.475029 0.850253 -0.178663
C26   C     C_R   0.532175 0.055875 0.650188 -0.188710
C27   C     C_R   0.524837 0.467613 0.850068 -0.179190
C28   C     C_R   0.941681 0.475153 0.649601 -0.184406
C29   C     C_R   0.532246 0.056919 0.849983 -0.176365
C30   C     C_R   0.523009 0.466190 0.650060 -0.190357
C31   C     C_R   0.472104 0.935280 0.351697 -0.126866
C32   C     C_R   0.064387 0.535508 0.148386 -0.126962
C33   C     C_R   0.465447 0.526144 0.350954 -0.196675
C34   C     C_R   0.469780 0.933847 0.147949 -0.124919
C35   C     C_R   0.063851 0.537214 0.351309 -0.115717
C36   C     C_R   0.463720 0.530018 0.147928 -0.128027
C37   C     C_R   0.914305 0.534170 0.879305 -0.103307
C38   C     C_R   0.619903 0.077914 0.622152 -0.108369
C39   C     C_R   0.467055 0.381281 0.879502 -0.101485
C40   C     C_R   0.918347 0.540375 0.621819 -0.105614
C41   C     C_R   0.618596 0.085337 0.879454 -0.102080
C42   C     C_R   0.456206 0.377284 0.622557 -0.111400
C43   C     C_R   0.528554 0.901718 0.379866 -0.136827
C44   C     C_R   0.097644 0.624560 0.119843 -0.137873
C45   C     C_R   0.375405 0.458560 0.377820 -0.112836
C46   C     C_R   0.524751 0.899583 0.119365 -0.135974
C47   C     C_R   0.099248 0.626602 0.379964 -0.136063
C48   C     C_R   0.374458 0.475836 0.119270 -0.136473
C49   C     C_R   0.935154 0.530247 0.922370 0.002606
C50   C     C_R   0.597015 0.055329 0.579033 0.005236
C51   C     C_R   0.469784 0.407550 0.922356 0.004687
C52   C     C_R   0.938191 0.538794 0.578504 -0.000980
C53   C     C_R   0.592386 0.062342 0.922326 0.004748
C54   C     C_R   0.455929 0.398062 0.579295 0.010074
C55   C     C_R   0.516624 0.909575 0.423320 -0.043687
C56   C     C_R   0.089693 0.603430 0.076453 -0.055241
C57   C     C_R   0.393235 0.462125 0.421493 0.008073
C58   C     C_R   0.510340 0.905960 0.075946 -0.055861
C59   C     C_R   0.088009 0.605121 0.423266 -0.036512
C60   C     C_R   0.395472 0.490320 0.075886 -0.056392
C61   C     C_R   0.989804 0.473944 0.935811 -0.031623
C62   C     C_R   0.486965 0.007122 0.564622 -0.043693
C63   C     C_R   0.525054 0.518991 0.935275 -0.032271
C64   C     C_R   0.985400 0.476492 0.563658 -0.048225
C65   C     C_R   0.480908 0.005965 0.935190 -0.029164
C66   C     C_R   0.517866 0.507303 0.564224 -0.041865
C67   C     C_R   0.461840 0.964253 0.438392 -0.016448
C68   C     C_R   0.036204 0.493481 0.061815 -0.015752
C69   C     C_R   0.501206 0.526745 0.437602 -0.050125
C70   C     C_R   0.453411 0.958866 0.061215 -0.016129
C71   C     C_R   0.028837 0.495150 0.437584 -0.002467
C72   C     C_R   0.505443 0.546688 0.061258 -0.016191
C73   C     C_R   0.034968 0.432117 0.906516 -0.004099
C74   C     C_R   0.398372 0.967273 0.593185 -0.016216
C75   C     C_R   0.566272 0.604887 0.905530 -0.003346
C76   C     C_R   0.027355 0.428974 0.591834 -0.035871
C77   C     C_R   0.394957 0.961133 0.905389 -0.002199
C78   C     C_R   0.567099 0.597154 0.592301 -0.015762
C79   C     C_R   0.424514 0.016924 0.410522 -0.085500
C80   C     C_R   0.985377 0.404170 0.090026 -0.067113
C81   C     C_R   0.592922 0.575717 0.410433 -0.084496
C82   C     C_R   0.415671 0.010629 0.089360 -0.069789
C83   C     C_R   0.975012 0.406589 0.409098 -0.047719
C84   C     C_R   0.594834 0.583808 0.089463 -0.069256
C85   C     C_R   0.012453 0.433938 0.863356 -0.023729
C86   C     C_R   0.420970 0.988872 0.636445 -0.031732
C87   C     C_R   0.564119 0.579038 0.862513 -0.035426
C88   C     C_R   0.007741 0.430573 0.635225 -0.021846
C89   C     C_R   0.420750 0.984905 0.862386 -0.035983
C90   C     C_R   0.567110 0.576645 0.635692 -0.031393
C91   C     C_R   0.429284 0.002185 0.366813 -0.104819
C92   C     C_R   0.998642 0.425186 0.133654 -0.119758
C93   C     C_R   0.575211 0.574273 0.366704 -0.107566
C94   C     C_R   0.424417 0.998694 0.133063 -0.120973
C95   C     C_R   0.992703 0.427544 0.365551 -0.060502
C96   C     C_R   0.573944 0.574601 0.133111 -0.112090
C97   C     C_2   0.861158 0.597762 0.864930 0.495880
H1    H     H_    0.891114 0.648478 0.836996 0.077356
O27   O     O_2   0.783113 0.593338 0.883824 -0.516238
C98   C     C_2   0.735398 0.126350 0.637625 0.503000
H2    H     H_    0.752209 0.096212 0.666423 0.073144
O28   O     O_2   0.812406 0.200855 0.618652 -0.516613
C99   C     C_2   0.406625 0.263766 0.865861 0.492930
H3    H     H_    0.355193 0.239918 0.838017 0.085778
O29   O     O_2   0.414367 0.192889 0.885371 -0.518205
C100  C     C_2   0.871848 0.608636 0.637801 0.506321
H4    H     H_    0.903865 0.655928 0.666467 0.071499
O30   O     O_2   0.796886 0.611786 0.619407 -0.515451
C101  C     C_2   0.736019 0.141517 0.865777 0.491955
H5    H     H_    0.759222 0.113632 0.837861 0.082664
O31   O     O_2   0.807548 0.219737 0.885317 -0.517321
C102  C     C_2   0.388388 0.262714 0.638738 0.508082
H6    H     H_    0.341652 0.247794 0.667505 0.069518
O32   O     O_2   0.385169 0.184444 0.620438 -0.514745
C103  C     C_2   0.597436 0.855143 0.364848 0.575289
H7    H     H_    0.590064 0.781593 0.379304 0.018433
O33   O     O_2   0.667288 0.902429 0.337777 -0.466637
C104  C     C_2   0.144201 0.740357 0.134461 0.575609
H8    H     H_    0.217437 0.806281 0.119735 0.013105
O34   O     O_2   0.097273 0.763435 0.161533 -0.464097
C105  C     C_2   0.263155 0.384824 0.360310 0.501786
H9    H     H_    0.253864 0.339246 0.331620 0.084815
O35   O     O_2   0.180588 0.375444 0.377270 -0.520214
C106  C     C_2   0.594498 0.853681 0.134012 0.572840
H10   H     H_    0.587040 0.780130 0.119501 0.014852
O36   O     O_2   0.665042 0.901450 0.160862 -0.466002
C107  C     C_2   0.151713 0.743120 0.365692 0.571899
H11   H     H_    0.227135 0.805914 0.380401 0.008313
O37   O     O_2   0.107242 0.770527 0.339094 -0.460919
C108  C     C_2   0.258554 0.406932 0.133793 0.579503
H12   H     H_    0.192981 0.415378 0.119321 0.011417
O38   O     O_2   0.234940 0.335960 0.160464 -0.462531
C109  C     C_2   0.138496 0.696380 0.045890 0.750015
O39   O     O_2   0.112633 0.768083 0.046735 -0.513386
O40   O     O_R   0.213442 0.700419 0.015941 -0.638560
H13   H     H_    0.241165 0.766911 0.996892 0.321151
C110  C     C_2   0.560922 0.859904 0.453447 0.741490
O41   O     O_2   0.658776 0.886649 0.452685 -0.527939
O42   O     O_R   0.489817 0.782837 0.482765 -0.644963
H14   H     H_    0.528559 0.753671 0.501173 0.317900
C111  C     C_2   0.302364 0.447383 0.045321 0.749711
O43   O     O_2   0.229967 0.350044 0.045926 -0.514514
O44   O     O_R   0.298919 0.519138 0.015657 -0.636618
H15   H     H_    0.232096 0.481185 0.996650 0.321073
C112  C     C_2   0.138895 0.697853 0.454019 0.738687
O45   O     O_2   0.116867 0.772267 0.452873 -0.526068
O46   O     O_R   0.211657 0.698895 0.484343 -0.638540
H16   H     H_    0.241586 0.766004 0.503261 0.318609
C113  C     C_2   0.553970 0.856452 0.045418 0.749574
O47   O     O_2   0.651424 0.881729 0.046242 -0.514299
O48   O     O_R   0.482756 0.781726 0.015440 -0.637035
H17   H     H_    0.521309 0.753952 0.996266 0.320795
C114  C     C_2   0.299610 0.394971 0.450464 0.857108
O49   O     O_2   0.278204 0.439871 0.478947 -0.545379
O50   O     O_R   0.236458 0.280461 0.444989 -0.627965
H18   H     H_    0.174839 0.243890 0.466346 0.311348
C115  C     C_2   0.687984 0.079704 0.548913 0.860018
O51   O     O_2   0.702555 0.138687 0.518514 -0.538258
O52   O     O_R   0.756906 0.035268 0.555633 -0.631365
H19   H     H_    0.815701 0.057796 0.533209 0.322034
C116  C     C_2   0.899430 0.584501 0.953882 0.858574
O53   O     O_2   0.934242 0.684008 0.952083 -0.519696
O54   O     O_R   0.825970 0.520952 0.985544 -0.634870
H20   H     H_    0.806693 0.566435 0.004786 0.325633
C117  C     C_2   0.388600 0.305685 0.549742 0.858792
O55   O     O_2   0.432410 0.289197 0.519567 -0.539662
O56   O     O_R   0.275256 0.237499 0.556800 -0.633824
H21   H     H_    0.238548 0.177216 0.534906 0.310352
C118  C     C_2   0.681480 0.097790 0.954241 0.857683
O57   O     O_2   0.747459 0.064542 0.952314 -0.519833
O58   O     O_R   0.689168 0.169265 0.986394 -0.635332
H22   H     H_    0.753353 0.188332 0.005935 0.325655
C119  C     C_2   0.912982 0.605307 0.548667 0.858881
O59   O     O_2   0.852641 0.560786 0.518539 -0.535317
O60   O     O_R   0.958449 0.718827 0.555304 -0.631216
H23   H     H_    0.935418 0.755104 0.533076 0.322364
C120  C     C_2   0.415011 0.318502 0.954157 0.859539
O61   O     O_2   0.315768 0.252725 0.951794 -0.518333
O62   O     O_R   0.477677 0.310558 0.986682 -0.635454
H24   H     H_    0.431745 0.246452 0.006099 0.326412
C121  C     C_2   0.947224 0.332106 0.164099 0.905203
O63   O     O_2   0.900837 0.340312 0.195255 -0.500933
O64   O     O_R   0.954135 0.236662 0.157710 -0.620460
H25   H     H_    0.916585 0.180006 0.180741 0.342565
C122  C     C_2   0.387002 0.053930 0.336786 0.877737
O65   O     O_2   0.439471 0.098045 0.305001 -0.524537
O66   O     O_R   0.286694 0.050523 0.344432 -0.629081
H26   H     H_    0.267021 0.088220 0.321629 0.321705
C123  C     C_2   0.667086 0.614722 0.163542 0.893233
O67   O     O_2   0.658741 0.558678 0.194223 -0.520893
O68   O     O_R   0.762747 0.717235 0.157693 -0.619922
H27   H     H_    0.819421 0.735192 0.180670 0.340853
C124  C     C_2   0.939518 0.335164 0.334769 0.890297
O69   O     O_2   0.900122 0.347749 0.302426 -0.509647
O70   O     O_R   0.936171 0.234916 0.342348 -0.618285
H28   H     H_    0.898191 0.179187 0.319014 0.338623
C125  C     C_2   0.383885 0.051061 0.163630 0.904524
O71   O     O_2   0.295003 0.046636 0.158223 -0.503868
O72   O     O_R   0.446735 0.102771 0.199336 -0.619932
H29   H     H_    0.410599 0.134512 0.217958 0.341621
C126  C     C_2   0.670663 0.624064 0.337194 0.895834
O73   O     O_2   0.752639 0.713145 0.345097 -0.509648
O74   O     O_R   0.665107 0.569326 0.299789 -0.621752
H30   H     H_    0.734188 0.611340 0.282100 0.341992
C127  C     C_2   0.328761 0.944158 0.667380 0.872803
O75   O     O_2   0.337207 0.902896 0.699942 -0.518925
O76   O     O_R   0.233677 0.950939 0.659724 -0.629395
H31   H     H_    0.177617 0.918041 0.683229 0.303527
C128  C     C_2   0.059084 0.389989 0.831808 0.848030
O77   O     O_2   0.055036 0.301445 0.837537 -0.528365
O78   O     O_R   0.106255 0.449811 0.795170 -0.631859
H32   H     H_    0.137303 0.412859 0.776650 0.335776
C129  C     C_2   0.615401 0.670210 0.666098 0.870485
O79   O     O_2   0.566825 0.662988 0.698857 -0.520825
O80   O     O_R   0.716654 0.765281 0.657700 -0.629020
H33   H     H_    0.740412 0.822350 0.680889 0.303989
C130  C     C_2   0.331207 0.938046 0.830339 0.863465
O81   O     O_2   0.344502 0.899516 0.797899 -0.515583
O82   O     O_R   0.233090 0.939939 0.836829 -0.635030
H34   H     H_    0.179232 0.906102 0.812656 0.306513
C131  C     C_2   0.054187 0.383919 0.665660 0.853382
O83   O     O_2   0.098778 0.435284 0.697601 -0.544658
O84   O     O_R   0.045829 0.281330 0.658167 -0.631149
H35   H     H_    0.080451 0.258972 0.681302 0.301926
C132  C     C_2   0.606511 0.668445 0.830491 0.865023
O85   O     O_2   0.554517 0.654941 0.798074 -0.518535
O86   O     O_R   0.706473 0.766651 0.836965 -0.633552
H36   H     H_    0.726299 0.820385 0.812810 0.307104
C133  C     C_2   0.919090 0.289423 0.073650 0.846526
O87   O     O_2   0.826080 0.227932 0.087211 -0.524420
O88   O     O_R   0.963392 0.252043 0.042679 -0.617814
H37   H     H_    0.911410 0.172232 0.034491 0.344348
C134  C     C_2   0.381818 0.087858 0.427337 0.901586
O89   O     O_2   0.416986 0.181367 0.413687 -0.518115
O90   O     O_R   0.301886 0.047667 0.458945 -0.621994
H38   H     H_    0.279079 0.103211 0.467634 0.336360
C135  C     C_2   0.709553 0.632252 0.073056 0.846557
O91   O     O_2   0.770904 0.600290 0.086379 -0.524016
O92   O     O_R   0.747038 0.714353 0.042293 -0.618107
H39   H     H_    0.826772 0.742018 0.034037 0.344789
C136  C     C_2   0.900133 0.293005 0.425110 0.895829
O93   O     O_2   0.806580 0.238120 0.410914 -0.516326
O94   O     O_R   0.936728 0.249293 0.456549 -0.626374
H40   H     H_    0.878918 0.171079 0.464470 0.334902
C137  C     C_2   0.367255 0.076767 0.072817 0.850757
O95   O     O_2   0.399260 0.170140 0.086098 -0.521297
O96   O     O_R   0.285262 0.032009 0.041939 -0.619368
H41   H     H_    0.257752 0.084071 0.033543 0.343938
C138  C     C_2   0.706658 0.625369 0.427912 0.903204
O97   O     O_2   0.769882 0.595173 0.415101 -0.510078
O98   O     O_R   0.740960 0.706150 0.459105 -0.624124
H42   H     H_    0.820099 0.733980 0.468272 0.333267
C139  C     C_2   0.282789 0.902615 0.577517 0.830493
O99   O     O_2   0.219823 0.811129 0.591980 -0.543024
O100  O     O_R   0.246637 0.946442 0.545967 -0.626535
H43   H     H_    0.166895 0.894720 0.537641 0.339915
C140  C     C_2   0.105281 0.386619 0.921266 0.823917
O101  O     O_2   0.197212 0.420200 0.906215 -0.543412
O102  O     O_R   0.066217 0.305758 0.952519 -0.614696
H44   H     H_    0.121442 0.281475 0.959979 0.355218
C141  C     C_2   0.617605 0.711910 0.576064 0.831220
O103  O     O_2   0.587491 0.774575 0.589574 -0.543057
O104  O     O_R   0.699478 0.747854 0.545274 -0.627095
H45   H     H_    0.727450 0.827281 0.536606 0.339860
C142  C     C_2   0.278752 0.889942 0.919481 0.820480
O105  O     O_2   0.221549 0.798147 0.904127 -0.545842
O106  O     O_R   0.235221 0.928121 0.950450 -0.615452
H46   H     H_    0.155497 0.872474 0.957434 0.353308
C143  C     C_2   0.092815 0.379405 0.575638 0.892660
O107  O     O_2   0.184589 0.408334 0.589993 -0.535738
O108  O     O_R   0.049461 0.300314 0.543722 -0.623641
H47   H     H_    0.101416 0.272687 0.535343 0.327718
C144  C     C_2   0.611258 0.721056 0.919692 0.821238
O109  O     O_2   0.576733 0.778246 0.904335 -0.546219
O110  O     O_R   0.692756 0.764530 0.950767 -0.614712
H48   H     H_    0.716680 0.844167 0.957835 0.354174

loop_
_geom_bond_atom_site_label_1
_geom_bond_atom_site_label_2
_geom_bond_distance
_ccdc_geom_bond_type
C36   C48   1.420359 A    
C16   C23   1.198581 T    
O58   H22   1.011801 S    
C129  O80   1.398642 S    
O16   C4    1.285194 A    
C109  O39   1.222958 D    
C50   C62   1.410494 A    
C24   C63   1.441464 S    
C74   C139  1.486723 S    
C69   C81   1.408878 A    
C118  O57   1.222922 D    
C76   C88   1.414472 A    
O20   Cr5   1.910294 S    
O76   H31   1.013814 S    
C103  H7    1.083473 S    
O106  H46   1.013653 S    
O19   C7    1.286295 A    
C27   C39   1.420184 A    
O4    C6    1.281404 A    
C15   C72   1.441470 S    
C41   C101  1.485777 S    
C113  O47   1.222932 D    
C46   C58   1.409927 A    
C121  O63   1.223179 D    
C56   C68   1.409122 A    
O86   H36   1.013837 S    
C45   C57   1.412704 A    
C130  O81   1.222986 D    
C139  O99   1.223185 D    
O80   H33   1.013814 S    
C66   C78   1.409116 A    
C25   C85   1.422925 A    
C106  H10   1.083002 S    
C103  O33   1.221105 D    
C124  O69   1.223240 D    
C38   C98   1.486286 S    
C80   C92   1.416086 A    
C124  O70   1.398652 S    
C21   C66   1.440308 S    
C101  O31   1.219419 D    
C55   C67   1.408295 A    
C39   C99   1.486152 S    
C131  O83   1.222163 D    
C82   C94   1.417779 A    
O9    C11   1.282839 A    
C7    C33   1.498057 S    
C114  O50   1.398064 S    
C102  O32   1.219871 D    
O21   C9    1.282935 A    
C28   C40   1.421513 A    
O24   Cr6   1.908126 S    
O78   H32   1.013472 S    
C55   C110  1.489573 S    
C6    C26   1.497080 S    
C26   C86   1.422614 A    
C19   C62   1.439877 S    
C83   C95   1.417041 A    
C17   C70   1.442266 S    
C29   C89   1.423343 A    
C132  O85   1.223049 D    
C52   C64   1.410373 A    
C115  O52   1.397969 S    
O70   H28   1.013837 S    
C88   C131  1.487459 S    
C58   C70   1.409474 A    
C20   C61   1.440565 S    
C3    C29   1.496620 S    
C82   C137  1.488019 S    
C136  O94   1.397842 S    
C72   C84   1.410082 A    
Cr4   O26   1.964807 S    
C89   C130  1.489102 S    
C52   C119  1.490843 S    
O102  H44   1.013731 S    
C98   H2    1.084873 S    
C112  O46   1.397835 S    
O1    Cr1   2.022712 S    
O104  H45   1.013371 S    
O74   H30   1.013884 S    
C107  O37   1.221068 D    
C48   C108  1.484059 S    
C119  O59   1.223108 D    
O15   Cr3   1.910116 S    
O6    Cr3   2.022193 S    
C105  O35   1.219906 D    
O2    Cr2   2.021344 S    
C134  O89   1.223231 D    
C44   C56   1.408821 A    
C25   C37   1.420450 A    
C108  O38   1.221061 D    
C116  O53   1.222907 D    
C53   C65   1.409062 A    
C53   C118  1.487532 S    
C80   C133  1.487566 S    
C15   C24   1.200269 T    
C61   C73   1.407539 A    
C76   C143  1.487974 S    
C12   C32   1.493821 S    
C40   C100  1.486246 S    
C91   C122  1.489067 S    
C37   C97   1.486463 S    
O11   C7    1.282418 A    
O56   H21   1.013520 S    
C109  O40   1.397649 S    
O108  H47   1.013050 S    
C111  O43   1.222946 D    
C135  O91   1.223230 D    
C74   C86   1.414870 A    
C118  O58   1.397387 S    
C73   C85   1.416293 A    
C77   C142  1.486641 S    
C117  O55   1.223039 D    
C43   C103  1.484261 S    
O14   Cr2   1.909228 S    
C34   C46   1.420390 A    
O19   Cr4   1.908718 S    
C75   C87   1.416208 A    
O40   H13   1.011749 S    
C141  O103  1.223186 D    
O18   Cr3   1.908093 S    
O23   Cr5   1.908758 S    
C39   C51   1.411732 A    
C92   C121  1.489661 S    
C111  O44   1.397644 S    
O22   C10   1.286011 A    
C78   C141  1.485220 S    
Cr6   O26   1.964683 S    
C130  O82   1.398553 S    
C33   C45   1.421838 A    
O7    C9    1.283858 A    
C79   C91   1.416776 A    
O52   H19   1.013639 S    
C77   C89   1.416371 A    
C110  O41   1.222975 D    
C85   C128  1.487908 S    
C99   H3    1.084705 S    
C94   C125  1.490067 S    
C37   C49   1.412080 A    
O16   Cr1   1.910454 S    
C79   C134  1.488224 S    
O68   H27   1.013826 S    
C120  O61   1.222958 D    
C113  O48   1.397635 S    
C10   C36   1.494657 S    
O66   H26   1.013829 S    
C133  O88   1.398222 S    
C135  O92   1.398309 S    
O3    Cr3   2.020175 S    
C138  O98   1.396890 S    
C26   C38   1.421092 A    
C60   C111  1.489920 S    
C144  O110  1.398091 S    
C138  O97   1.223217 D    
C143  O107  1.223186 D    
C23   C64   1.438712 S    
C75   C144  1.486796 S    
O60   H23   1.013501 S    
C132  O86   1.398559 S    
C18   C21   1.199873 T    
C33   C93   1.421700 A    
C48   C60   1.409523 A    
O17   Cr2   1.909020 S    
C71   C83   1.410522 A    
O48   H17   1.011642 S    
O62   H24   1.011894 S    
C11   C31   1.494563 S    
C125  O71   1.223214 D    
C70   C82   1.409848 A    
C35   C95   1.420905 A    
C123  O67   1.223074 D    
C49   C61   1.408914 A    
O10   Cr4   2.020670 S    
C83   C136  1.487763 S    
C60   C72   1.409438 A    
O15   C3    1.286775 A    
C107  H11   1.083307 S    
C47   C59   1.406978 A    
C58   C113  1.489748 S    
C44   C104  1.484222 S    
C17   C22   1.200628 T    
C67   C79   1.410247 A    
C129  O79   1.223057 D    
O14   C2    1.286620 A    
C116  O54   1.397393 S    
C136  O93   1.223204 D    
C32   C44   1.420352 A    
C35   C47   1.421401 A    
O96   H41   1.013754 S    
C142  O106  1.398076 S    
O8    C10   1.281124 A    
C51   C63   1.409046 A    
C42   C54   1.411983 A    
C117  O56   1.397995 S    
C134  O90   1.397615 S    
O42   H14   1.012156 S    
C41   C53   1.412027 A    
C40   C52   1.412719 A    
C143  O108  1.397744 S    
C63   C75   1.408481 A    
C112  O45   1.223042 D    
C90   C129  1.490205 S    
O13   Cr1   1.908632 S    
C36   C96   1.421759 A    
C86   C127  1.489879 S    
C98   O28   1.219737 D    
C87   C132  1.489266 S    
O94   H40   1.013530 S    
C5    C25   1.496898 S    
C144  O109  1.223233 D    
O23   C11   1.284456 A    
O110  H48   1.013662 S    
C127  O76   1.398628 S    
O100  H43   1.013281 S    
C84   C96   1.416467 A    
O18   C6    1.286393 A    
C125  O72   1.398248 S    
C104  O34   1.221089 D    
O5    Cr2   2.021293 S    
C51   C120  1.487782 S    
O1    C3    1.280631 A    
C122  O66   1.398590 S    
O84   H35   1.013817 S    
C18   C69   1.440643 S    
C30   C90   1.421492 A    
O3    C5    1.281255 A    
C45   C105  1.487537 S    
C9    C35   1.492599 S    
C73   C140  1.487700 S    
C8    C34   1.495624 S    
C108  H12   1.083144 S    
O20   C8    1.286745 A    
Cr5   O26   1.963820 S    
C43   C55   1.407993 A    
C99   O29   1.219719 D    
C42   C102  1.486582 S    
C62   C74   1.408428 A    
C27   C87   1.423213 A    
C57   C69   1.410264 A    
C38   C50   1.412396 A    
C57   C114  1.489672 S    
C22   C65   1.442084 S    
C59   C71   1.408037 A    
C14   C67   1.439760 S    
O13   C1    1.286399 A    
O11   Cr5   2.022351 S    
O8    Cr5   2.020936 S    
O5    C1    1.280798 A    
C31   C91   1.421779 A    
O90   H38   1.013342 S    
C50   C115  1.490580 S    
C68   C80   1.409768 A    
O6    C2    1.282678 A    
C100  O30   1.219695 D    
O82   H34   1.013834 S    
C84   C135  1.487885 S    
C133  O87   1.223204 D    
C32   C92   1.421812 A    
O4    Cr1   2.020650 S    
Cr2   O25   1.964847 S    
O24   C12   1.285796 A    
O7    Cr4   2.021588 S    
C102  H6    1.084965 S    
C29   C41   1.419863 A    
O98   H42   1.013554 S    
C13   C20   1.199597 T    
C137  O96   1.398328 S    
C65   C77   1.408476 A    
C97   H1    1.084843 S    
C96   C123  1.489314 S    
C14   C19   1.199355 T    
C141  O104  1.397132 S    
O44   H15   1.011876 S    
Cr1   O25   1.963831 S    
C101  H5    1.084722 S    
C78   C90   1.414849 A    
C16   C71   1.438337 S    
C47   C107  1.483757 S    
C46   C106  1.484028 S    
C114  O49   1.223109 D    
O21   Cr6   1.910291 S    
C31   C43   1.421050 A    
C128  O77   1.223315 D    
O88   H37   1.013746 S    
C127  O75   1.223001 D    
C59   C112  1.490992 S    
C122  O65   1.223035 D    
C106  O36   1.221077 D    
C140  O102  1.398060 S    
O10   C12   1.281547 A    
C28   C88   1.422220 A    
O22   Cr4   1.909355 S    
Cr3   O25   1.964634 S    
O64   H25   1.013817 S    
C64   C76   1.407931 A    
C115  O51   1.223012 D    
C54   C66   1.410231 A    
O12   Cr6   2.022583 S    
C93   C126  1.490458 S    
C100  H4    1.084905 S    
C139  O100  1.397792 S    
C54   C117  1.490831 S    
C49   C116  1.487232 S    
O54   H20   1.011789 S    
C142  O105  1.223203 D    
C34   C94   1.421790 A    
O17   C5    1.287474 A    
O50   H18   1.013446 S    
C81   C93   1.416100 A    
C121  O64   1.398602 S    
C123  O68   1.398581 S    
C56   C109  1.489739 S    
C131  O84   1.398571 S    
C126  O74   1.398422 S    
O72   H29   1.013815 S    
C95   C124  1.490269 S    
O46   H16   1.012408 S    
C120  O62   1.397388 S    
C140  O101  1.223238 D    
C30   C42   1.421921 A    
O2    C4    1.283234 A    
O9    Cr6   2.020242 S    
C1    C27   1.495895 S    
C128  O78   1.396991 S    
C105  H9    1.085047 S    
C137  O95   1.223193 D    
C119  O60   1.397932 S    
C2    C28   1.498176 S    
C13   C68   1.440346 S    
O12   C8    1.280898 A    
O92   H39   1.013775 S    
C126  O73   1.223201 D    
C81   C138  1.486810 S    
C104  H8    1.083186 S    
C97   O27   1.219692 D    
C110  O42   1.397633 S    
C4    C30   1.496977 S    
