data_mof_unit_4525.cif
_audit_creation_date              2012-12-10T17:11:26-0500
_audit_creation_method            fapswitch 2.2
_symmetry_space_group_name_H-M    P1
_symmetry_Int_Tables_number       1
_space_group_crystal_system       triclinic
_cell_length_a                    15.078321
_cell_length_b                    13.047705
_cell_length_c                    11.748448
_cell_angle_alpha                 101.126734
_cell_angle_beta                  93.589126
_cell_angle_gamma                 89.99556
_cell_volume                      2263.29457704

loop_
_atom_site_label
_atom_site_type_symbol
_atom_type_description
_atom_site_fract_x
_atom_site_fract_y
_atom_site_fract_z
_atom_type_partial_charge
C1    C     C_R   0.503309 0.298540 0.477271 0.864160
C2    C     C_R   0.495632 0.701260 0.523049 0.872926
C3    C     C_R   0.048302 0.312026 0.510703 -0.014987
C4    C     C_R   0.950813 0.679187 0.468477 -0.085063
C5    C     C_R   0.485157 0.816216 0.539622 -0.106315
C6    C     C_R   0.511081 0.183278 0.462043 -0.079051
C7    C     C_R   0.493768 0.008027 0.343013 -0.082654
C8    C     C_R   0.502993 0.991080 0.659061 -0.044553
C9    C     C_R   0.501664 0.116793 0.350855 -0.123014
C10   C     C_R   0.495179 0.882222 0.651011 -0.095465
C11   C     C_R   0.528936 0.137998 0.560959 0.082256
C12   C     C_R   0.464524 0.861362 0.441556 0.144613
C13   C     C_R   0.507242 0.032275 0.555966 0.021356
C14   C     C_R   0.487871 0.966873 0.445929 0.052312
C15   C     C_R   0.410574 0.407770 0.022575 0.027194
C16   C     C_R   0.589520 0.592015 0.977468 0.014470
C17   C     C_R   0.420280 0.416494 0.144779 0.327205
C18   C     C_R   0.579790 0.583398 0.855261 0.312410
C19   C     C_R   0.539637 0.537759 0.158690 0.323746
C20   C     C_R   0.460594 0.461783 0.841264 0.315794
C21   C     C_R   0.533012 0.533090 0.034639 -0.064978
C22   C     C_R   0.467093 0.466669 0.965354 -0.070635
C23   C     C_R   0.329167 0.501969 0.500899 0.879102
C24   C     C_R   0.670849 0.497860 0.498973 0.877846
C25   C     C_R   0.813665 0.590823 0.507631 0.085939
C26   C     C_R   0.187664 0.405420 0.487054 0.042772
C27   C     C_R   0.767362 0.495816 0.496357 -0.122490
C28   C     C_R   0.232619 0.501781 0.502075 -0.122544
C29   C     C_R   0.813028 0.400455 0.476027 -0.121980
C30   C     C_R   0.185294 0.595941 0.517757 -0.056585
C31   C     C_R   0.906752 0.401980 0.492952 -0.069473
C32   C     C_R   0.092335 0.591715 0.493612 0.021049
C33   C     C_R   0.953009 0.496140 0.491602 0.013394
C34   C     C_R   0.046523 0.496886 0.493648 0.006994
C35   C     C_R   0.905445 0.589926 0.489381 0.117771
C36   C     C_R   0.094470 0.403430 0.496702 0.025338
C37   C     C_R   0.954669 0.312648 0.513158 -0.076738
C38   C     C_R   0.044275 0.679165 0.467965 -0.134650
Cu1   Cu    Cu3+1 0.506660 0.507730 0.615930 1.013118
Cu2   Cu    Cu3+1 0.493340 0.492270 0.384070 1.037226
N1    N     N_R   0.516670 0.519360 0.790130 -0.180403
N2    N     N_R   0.483330 0.480640 0.209870 -0.183069
O1    O     O_R   0.504720 0.354460 0.582000 -0.600455
O2    O     O_R   0.495280 0.645540 0.418000 -0.566398
O3    O     O_R   0.493480 0.341410 0.386200 -0.530686
O4    O     O_R   0.506520 0.658590 0.613800 -0.536064
O5    O     O_R   0.375880 0.506510 0.597910 -0.547555
O6    O     O_R   0.624120 0.493490 0.402090 -0.545254
O7    O     O_R   0.364640 0.493450 0.402110 -0.568741
O8    O     O_R   0.635360 0.506550 0.597890 -0.574945
N3    N     N_3   0.768056 0.687911 0.540196 -0.572163
H1    H     H_    0.715393 0.691626 0.478867 0.246625
H2    H     H_    0.741954 0.689737 0.620875 0.218292
N4    N     N_3   0.236801 0.310094 0.461411 -0.589930
H3    H     H_    0.285246 0.308677 0.528794 0.202434
H4    H     H_    0.268243 0.308132 0.384267 0.237294
N5    N     N_3   0.343136 0.338715 0.958256 -0.640553
H5    H     H_    0.281044 0.361654 0.988378 0.227492
H6    H     H_    0.355833 0.262489 0.969687 0.225056
N6    N     N_3   0.656958 0.661015 0.041880 -0.589368
H7    H     H_    0.719062 0.637844 0.011967 0.230314
H8    H     H_    0.644514 0.737185 0.030101 0.263101
C39   C     C_2   0.765885 0.300776 0.423147 0.392141
H9    H     H_    0.800268 0.240486 0.365975 0.130267
O9    O     O_2   0.690035 0.283519 0.444253 -0.559680
C40   C     C_2   0.228982 0.697373 0.573226 0.436619
H10   H     H_    0.189826 0.759468 0.620235 0.065180
O10   O     O_2   0.307750 0.713665 0.566915 -0.553189
C41   C     C_2   0.907673 0.228936 0.557612 0.340128
H11   H     H_    0.855441 0.250169 0.617055 0.083941
O11   O     O_2   0.923493 0.136573 0.525110 -0.488024
C42   C     C_2   0.089579 0.763809 0.423218 0.355305
H12   H     H_    0.068448 0.844183 0.445954 0.089285
O12   O     O_2   0.149412 0.743507 0.357295 -0.514997
C43   C     C_2   0.098076 0.221248 0.539464 0.513391
H13   H     H_    0.142429 0.231312 0.617311 0.029309
O13   O     O_2   0.093246 0.136577 0.473380 -0.480717
C44   C     C_2   0.901542 0.767246 0.431374 0.448966
H14   H     H_    0.918572 0.847336 0.471755 0.082235
O14   O     O_2   0.843686 0.750556 0.352312 -0.504999
N7    N     N_3   0.412545 0.803330 0.342339 -0.508149
H15   H     H_    0.370326 0.750913 0.370140 0.266933
H16   H     H_    0.367093 0.854265 0.312511 0.211141
N8    N     N_3   0.581833 0.193118 0.660378 -0.551869
H17   H     H_    0.543609 0.247206 0.712807 0.229376
H18   H     H_    0.635456 0.230845 0.633131 0.270282
C45   C     C_2   0.487486 0.841094 0.759538 0.457850
H19   H     H_    0.537576 0.860654 0.830684 0.093826
O15   O     O_2   0.422684 0.789370 0.772330 -0.498016
C46   C     C_2   0.509934 0.156835 0.241693 0.452921
H20   H     H_    0.461194 0.134338 0.169291 0.013562
O16   O     O_2   0.574307 0.209443 0.229296 -0.467775
C47   C     C_2   0.502193 0.938299 0.227806 0.429728
H21   H     H_    0.466561 0.954723 0.150396 0.051786
O17   O     O_2   0.551949 0.863846 0.218206 -0.523076
C48   C     C_2   0.494553 0.062498 0.773287 0.395583
H22   H     H_    0.448461 0.126916 0.779389 0.055644
O18   O     O_2   0.540796 0.052566 0.859449 -0.546003
N9    N     N_3   0.395658 0.397527 0.766128 -0.526371
H23   H     H_    0.331856 0.421888 0.788057 0.237407
H24   H     H_    0.405414 0.319062 0.770151 0.212181
N10   N     N_3   0.605036 0.601098 0.233810 -0.497161
H25   H     H_    0.594915 0.679671 0.231300 0.296980
H26   H     H_    0.668710 0.576994 0.210989 0.248196
N11   N     N_3   0.637356 0.641248 0.797754 -0.539071
H27   H     H_    0.702722 0.617616 0.811605 0.199119
H28   H     H_    0.633158 0.720697 0.832899 0.185845
N12   N     N_3   0.363003 0.358304 0.202282 -0.539474
H29   H     H_    0.297505 0.381492 0.188430 0.207816
H30   H     H_    0.367643 0.278876 0.167195 0.182786

loop_
_geom_bond_atom_site_label_1
_geom_bond_atom_site_label_2
_ccdc_geom_bond_type
C40   O10   D    
C45   H19   S    
C29   C39   S    
C16   C21   A    
C37   C41   S    
C27   C29   A    
C8    C48   S    
C24   C27   S    
C6    C9    A    
C39   O9    D    
N7    H15   S    
N5    H5    S    
Cu1   N1    S    
C2    O4    A    
N11   H28   S    
C47   H21   S    
C19   C21   A    
N8    H18   S    
C19   N10   S    
C44   O14   D    
C23   O7    A    
Cu2   O7    S    
N12   H29   S    
N6    H8    S    
C16   N6    S    
C41   O11   D    
Cu2   O6    S    
C17   N2    A    
C1    O1    A    
C15   C22   A    
C2    O2    A    
C48   O18   D    
C31   C33   A    
C32   C38   A    
C3    C43   S    
C19   N2    A    
Cu2   N2    S    
C40   H10   S    
C4    C35   A    
C47   O17   D    
C13   C14   A    
C15   N5    S    
C41   H11   S    
C26   N4    S    
N7    H16   S    
C20   N1    A    
C38   C42   S    
C7    C14   A    
C24   O8    A    
Cu2   O3    S    
C7    C47   S    
N4    H4    S    
C10   C45   S    
C23   O5    A    
C1    C6    S    
C24   O6    A    
N8    H17   S    
C5    C12   A    
C42   O12   D    
C18   N1    A    
Cu1   Cu2   S    
C44   H14   S    
Cu1   O1    S    
N3    H1    S    
C31   C37   A    
N6    H7    S    
N3    H2    S    
C32   C34   A    
C43   H13   S    
C25   N3    S    
C4    C44   S    
C46   O16   D    
N9    H23   S    
C48   H22   S    
C33   C34   A    
C16   C18   A    
C23   C28   S    
N10   H26   S    
C43   O13   D    
C30   C40   S    
C25   C35   A    
Cu1   O4    S    
C26   C36   A    
N9    H24   S    
C12   C14   A    
C45   O15   D    
C17   N12   S    
C2    C5    S    
C6    C11   A    
Cu1   O5    S    
C15   C17   A    
N4    H3    S    
C20   C22   A    
C42   H12   S    
C9    C46   S    
C11   N8    S    
C25   C27   A    
N11   H27   S    
C26   C28   A    
C28   C30   A    
C18   N11   S    
C5    C10   A    
C29   C31   A    
C30   C32   A    
C11   C13   A    
C1    O3    A    
C46   H20   S    
C20   N9    S    
C3    C36   A    
C33   C35   A    
N12   H30   S    
C12   N7    S    
C34   C36   A    
N10   H25   S    
N5    H6    S    
C39   H9    S    
C8    C13   A    
C7    C9    A    
Cu2   O2    S    
Cu1   O8    S    
C3    C37   A    
C8    C10   A    
C4    C38   A    
C21   C22   A    
