data_mof_unit_1969.cif
_audit_creation_date              2012-12-10T18:04:01-0500
_audit_creation_method            fapswitch 2.2
_symmetry_space_group_name_H-M    P1
_symmetry_Int_Tables_number       1
_space_group_crystal_system       triclinic
_cell_length_a                    10.829583
_cell_length_b                    9.541034
_cell_length_c                    10.908761
_cell_angle_alpha                 90.000013
_cell_angle_beta                  90.498841
_cell_angle_gamma                 90.0
_cell_volume                      1127.10958797

loop_
_atom_site_label
_atom_site_type_symbol
_atom_type_description
_atom_site_fract_x
_atom_site_fract_y
_atom_site_fract_z
_atom_type_partial_charge
C1    C     C_R   0.262135 0.499956 0.499883 0.785901
C2    C     C_R   0.737865 0.499956 0.500117 0.785901
C3    C     C_R   0.409614 0.074457 0.440055 -0.119194
C4    C     C_R   0.590386 0.074457 0.559945 -0.119193
C5    C     C_R   0.409527 0.925906 0.440072 0.634067
C6    C     C_R   0.590473 0.925906 0.559928 0.634067
C7    C     C_R   0.497903 0.499747 0.262648 0.897622
C8    C     C_R   0.502097 0.499747 0.737352 0.897622
C9    C     C_R   0.494809 0.620040 0.061664 -0.113936
C10   C     C_R   0.505191 0.620040 0.938337 -0.113936
C11   C     C_R   0.496059 0.497377 0.129970 -0.268524
C12   C     C_R   0.503940 0.497377 0.870030 -0.268524
C13   C     C_R   0.499727 0.369605 0.064244 0.497868
C14   C     C_R   0.500273 0.369605 0.935755 0.497868
C15   C     C_3   0.510233 0.775704 0.929559 0.805909
C16   C     C_3   0.489767 0.775704 0.070442 0.805909
C17   C     C_R   0.063870 0.372560 0.499888 -0.173706
C18   C     C_R   0.936130 0.372560 0.500112 -0.173706
C19   C     C_R   0.871747 0.499945 0.500130 -0.018932
C20   C     C_R   0.128253 0.499945 0.499870 -0.018932
C21   C     C_R   0.936139 0.627312 0.500042 -0.144557
C22   C     C_R   0.063861 0.627312 0.499958 -0.144557
Cu1   Cu    Cu3+1 0.500000 0.640660 0.500000 1.119375
Cu2   Cu    Cu3+1 0.500000 0.359340 0.500000 1.009186
H1    H     H_    0.111899 0.272960 0.499771 0.160935
H2    H     H_    0.888101 0.272960 0.500229 0.160935
H3    H     H_    0.888155 0.726916 0.500002 0.197038
H4    H     H_    0.111845 0.726916 0.499997 0.197038
H5    H     H_    0.337390 0.130318 0.391421 0.159556
H6    H     H_    0.662610 0.130318 0.608579 0.159556
N1    N     N_R   0.500000 0.852070 0.500000 -0.239005
N2    N     N_R   0.500000 0.147940 0.500000 -0.205173
O1    O     O_R   0.319640 0.618740 0.499990 -0.533163
O2    O     O_R   0.680360 0.618740 0.500010 -0.533163
O3    O     O_R   0.319620 0.381170 0.499990 -0.607209
O4    O     O_R   0.680380 0.381170 0.500010 -0.607209
O5    O     O_R   0.499990 0.618810 0.319660 -0.514713
O6    O     O_R   0.500010 0.618810 0.680340 -0.514713
O7    O     O_R   0.499960 0.381240 0.319650 -0.536094
O8    O     O_R   0.500040 0.381240 0.680350 -0.536094
F1    F     F_    0.503478 0.244485 0.122916 -0.677763
F2    F     F_    0.496522 0.244485 0.877084 -0.677763
O9    O     O_3   0.629537 0.819355 0.893739 -0.572967
C23   C     C_3   0.636740 0.967008 0.892683 0.212111
H7    H     H_    0.604562 0.013573 0.980101 0.189505
H8    H     H_    0.580926 0.009493 0.815415 0.219580
C24   C     C_3   0.770503 0.011677 0.876578 -0.714249
H9    H     H_    0.808514 0.967648 0.790708 0.277119
H10   H     H_    0.776088 0.127816 0.872386 0.205894
H11   H     H_    0.827136 0.974102 0.955337 0.253452
O10   O     O_3   0.370463 0.819355 0.106261 -0.572967
C25   C     C_3   0.363260 0.967009 0.107317 0.212109
H12   H     H_    0.395438 0.013573 0.019899 0.189506
H13   H     H_    0.419074 0.009494 0.184585 0.219580
C26   C     C_3   0.229498 0.011677 0.123421 -0.714247
H14   H     H_    0.191487 0.967649 0.209292 0.277119
H15   H     H_    0.223912 0.127817 0.127613 0.205894
H16   H     H_    0.172864 0.974101 0.044663 0.253453
F3    F     F_    0.414075 0.828586 0.858334 -0.683967
F4    F     F_    0.585925 0.828585 0.141666 -0.683967
F5    F     F_    0.318744 0.856804 0.379284 -0.659776
F6    F     F_    0.681256 0.856804 0.620716 -0.659776

loop_
_geom_bond_atom_site_label_1
_geom_bond_atom_site_label_2
_ccdc_geom_bond_type
Cu1   O1    S    
C26   H14   S    
C16   O10   S    
Cu1   O5    S    
Cu1   O6    S    
C11   C13   A    
C9    C10   A    
C24   H9    S    
C18   H2    S    
C23   C24   S    
C8    C12   S    
Cu2   O4    S    
C14   F2    S    
Cu1   O2    S    
C17   H1    S    
C6    F6    S    
C13   F1    S    
C6    N1    A    
C21   H3    S    
C5    F5    S    
C24   H10   S    
C26   H15   S    
C22   H4    S    
C13   C14   A    
C23   H7    S    
C7    C11   S    
C9    C11   A    
C2    O2    A    
C4    N2    A    
C10   C12   A    
C19   C21   A    
C25   C26   S    
C12   C14   A    
C25   H13   S    
C17   C18   A    
C24   H11   S    
C10   C15   S    
C8    O6    A    
O9    C23   S    
C7    O5    A    
C3    N2    A    
Cu2   O3    S    
Cu1   Cu2   S    
C1    O1    A    
C15   C16   S    
C3    C5    A    
Cu2   O7    S    
C25   H12   S    
C15   O9    S    
C4    C6    A    
C18   C19   A    
C16   F4    S    
C26   H16   S    
C2    O4    A    
Cu2   N2    S    
C3    H5    S    
C1    O3    A    
C7    O7    A    
C1    C20   S    
C8    O8    A    
Cu2   O8    S    
C2    C19   S    
C21   C22   A    
C15   F3    S    
C17   C20   A    
C9    C16   S    
C23   H8    S    
C4    H6    S    
O10   C25   S    
C20   C22   A    
C5    N1    A    
Cu1   N1    S    
