data_mof_unit_3316.cif
_audit_creation_date              2012-12-11T14:19:24-0500
_audit_creation_method            fapswitch 2.2
_symmetry_space_group_name_H-M    P1
_symmetry_Int_Tables_number       1
_space_group_crystal_system       triclinic
_cell_length_a                    19.44143
_cell_length_b                    7.244395
_cell_length_c                    17.743857
_cell_angle_alpha                 90.000207
_cell_angle_beta                  107.8796
_cell_angle_gamma                 89.999785
_cell_volume                      2378.37400667

loop_
_atom_site_label
_atom_site_type_symbol
_atom_type_description
_atom_site_fract_x
_atom_site_fract_y
_atom_site_fract_z
_atom_type_partial_charge
O1    O     O_R   0.414820 0.494320 0.416790 -0.538727
O2    O     O_R   0.585180 0.994320 0.583210 -0.538736
O3    O     O_R   0.560270 0.819500 0.430140 -0.532838
O4    O     O_R   0.439730 0.319500 0.569860 -0.532839
C1    C     C_R   0.580585 0.655112 0.414325 0.747856
C2    C     C_R   0.419415 0.155113 0.585675 0.747879
O5    O     O_R   0.413840 0.823740 0.407440 -0.534712
O6    O     O_R   0.586160 0.323740 0.592560 -0.534708
O7    O     O_R   0.437710 0.998590 0.560350 -0.536930
O8    O     O_R   0.562290 0.498590 0.439650 -0.536928
C3    C     C_R   0.387600 0.654947 0.385239 0.729220
C4    C     C_R   0.612399 0.154947 0.614761 0.729206
O9    O     O_3   0.508000 0.662290 0.550200 -0.379864
O10   O     O_3   0.492000 0.162290 0.449800 -0.379859
V1    V     V_3+5 0.498520 0.935380 0.490690 1.485490
V2    V     V_3+5 0.501480 0.435380 0.509310 1.485508
C5    C     C_2   0.785069 0.271926 0.788792 -0.103048
C6    C     C_2   0.214931 0.771926 0.211208 -0.103032
C7    C     C_2   0.820680 0.113784 0.816682 -0.310121
C8    C     C_2   0.179321 0.613783 0.183317 -0.310086
H1    H     H_    0.806474 0.401904 0.816763 0.153595
H2    H     H_    0.193525 0.901904 0.183238 0.153598
H3    H     H_    0.801079 0.982532 0.789284 0.128233
H4    H     H_    0.198923 0.482532 0.210714 0.128222
C9    C     C_2   0.717405 0.284781 0.720416 -0.108574
C10   C     C_2   0.282595 0.784781 0.279584 -0.108608
C11   C     C_2   0.679234 0.138586 0.682711 -0.305283
C12   C     C_2   0.320766 0.638586 0.317289 -0.305292
H5    H     H_    0.698265 0.423025 0.701252 0.157446
H6    H     H_    0.301736 0.923025 0.298747 0.157454
H7    H     H_    0.696822 0.999527 0.701415 0.138624
H8    H     H_    0.303178 0.499527 0.298586 0.138634
C13   C     C_R   0.308005 0.035693 0.613443 -0.084623
C14   C     C_R   0.691983 0.535643 0.386542 -0.084629
C15   C     C_R   0.371578 0.145533 0.636996 -0.140329
C16   C     C_R   0.628421 0.645530 0.363002 -0.140344
C17   C     C_R   0.389406 0.244801 0.709553 0.105619
C18   C     C_R   0.610604 0.744845 0.290458 0.105634
C19   C     C_R   0.340136 0.247086 0.754372 0.099178
C20   C     C_R   0.659877 0.747137 0.245643 0.099176
C21   C     C_R   0.276952 0.137027 0.730898 0.016292
C22   C     C_R   0.723048 0.637029 0.269102 0.016289
C23   C     C_R   0.261440 0.028598 0.661208 0.025180
C24   C     C_R   0.738547 0.528547 0.338776 0.025171
C25   C     C_R   0.353072 0.355768 0.823217 -0.175344
C26   C     C_R   0.646955 0.855876 0.176815 -0.175333
C27   C     C_R   0.306028 0.353713 0.868521 -0.160847
C28   C     C_R   0.694000 0.853822 0.131512 -0.160856
C29   C     C_R   0.243293 0.244214 0.846874 0.030276
C30   C     C_R   0.756720 0.744268 0.153142 0.030265
C31   C     C_R   0.229117 0.134267 0.777739 0.064243
C32   C     C_R   0.770883 0.634269 0.222261 0.064239
C33   C     C_R   0.167496 0.019604 0.755730 0.107400
C34   C     C_R   0.832491 0.519556 0.244254 0.107390
C35   C     C_R   0.152685 0.913247 0.686925 -0.178363
C36   C     C_R   0.847288 0.413146 0.313043 -0.178354
C37   C     C_R   0.198305 0.919030 0.639905 -0.140686
C38   C     C_R   0.801668 0.418926 0.360064 -0.140692
C39   C     C_R   0.195335 0.238640 0.893405 -0.047403
C40   C     C_R   0.804677 0.738690 0.106610 -0.047405
C41   C     C_R   0.133902 0.121494 0.870563 -0.126170
C42   C     C_R   0.866098 0.621497 0.129437 -0.126179
C43   C     C_R   0.121113 0.012670 0.802399 -0.207220
C44   C     C_R   0.878874 0.512625 0.197586 -0.207187
H9    H     H_    0.399633 0.445344 0.843083 0.140177
H10   H     H_    0.600406 0.945496 0.156964 0.140175
H11   H     H_    0.320179 0.438367 0.921218 0.158509
H12   H     H_    0.679861 0.938523 0.078829 0.158507
H13   H     H_    0.073838 0.924169 0.784846 0.126078
H14   H     H_    0.926139 0.424088 0.215127 0.126094
H15   H     H_    0.105168 0.825865 0.668925 0.128034
H16   H     H_    0.894794 0.325722 0.331031 0.128034
H17   H     H_    0.183168 0.836405 0.586615 0.152966
H18   H     H_    0.816793 0.336256 0.413340 0.152962
O11   O     O_R   0.937810 0.773680 0.060480 -0.535413
O12   O     O_R   0.062190 0.273680 0.939520 -0.535415
O13   O     O_R   0.086190 0.439740 0.092580 -0.542763
O14   O     O_R   0.913810 0.939740 0.907420 -0.542761
C45   C     C_R   0.112423 0.608354 0.114842 0.750346
C46   C     C_R   0.887577 0.108355 0.885157 0.750345
O15   O     O_R   0.939760 0.444210 0.069890 -0.534126
O16   O     O_R   0.060240 0.944210 0.930110 -0.534129
O17   O     O_R   0.914790 0.269640 0.916760 -0.533877
O18   O     O_R   0.085210 0.769640 0.083240 -0.533877
C47   C     C_R   0.918154 0.612501 0.083429 0.725990
C48   C     C_R   0.081845 0.112500 0.916570 0.726004
O19   O     O_3   0.992050 0.601530 0.949880 -0.380604
O20   O     O_3   0.007950 0.101530 0.050120 -0.380597
V3    V     V_3+5 0.001480 0.328340 0.009300 1.492286
V4    V     V_3+5 0.998520 0.828340 0.990700 1.492285
C49   C     C_2   0.289898 0.930520 0.537937 0.750277
O21   O     O_2   0.278350 0.012742 0.475077 -0.568756
O22   O     O_R   0.287572 0.737678 0.539253 -0.662278
H19   H     H_    0.275393 0.681727 0.484345 0.289516
C50   C     C_2   0.710080 0.430420 0.462034 0.750293
O23   O     O_2   0.721647 0.512606 0.524906 -0.568755
O24   O     O_R   0.712374 0.237577 0.460693 -0.662277
H20   H     H_    0.724550 0.181590 0.515594 0.289507
C51   C     C_3   0.462358 0.339643 0.742098 -0.745223
H21   H     H_    0.488095 0.298470 0.804731 0.196491
H22   H     H_    0.501989 0.300123 0.711597 0.196214
H23   H     H_    0.455115 0.491758 0.738389 0.215247
C52   C     C_3   0.537659 0.839726 0.257920 -0.745179
H24   H     H_    0.511927 0.798619 0.195277 0.196479
H25   H     H_    0.498020 0.800174 0.288405 0.196214
H26   H     H_    0.544912 0.991838 0.261660 0.215257
C53   C     C_2   0.210933 0.346191 0.967999 0.746126
O25   O     O_2   0.214387 0.514657 0.966538 -0.561275
O26   O     O_R   0.220311 0.253789 0.039612 -0.666596
H27   H     H_    0.231478 0.340985 0.086474 0.285030
C54   C     C_2   0.789087 0.846281 0.032028 0.746134
O27   O     O_2   0.785661 0.014752 0.033508 -0.561276
O28   O     O_R   0.779683 0.753909 0.960403 -0.666596
H28   H     H_    0.768521 0.841129 0.913549 0.285032

loop_
_geom_bond_atom_site_label_1
_geom_bond_atom_site_label_2
_ccdc_geom_bond_type
O22   H19   S    
C21   C23   A    
C7    H3    S    
C50   O23   D    
O1    C3    A    
O2    C4    A    
C2    O7    A    
O24   H20   S    
C27   C29   A    
O14   V4    S    
O5    C3    A    
O13   V3    S    
O18   V4    S    
C15   C17   A    
C26   H10   S    
C13   C49   S    
C45   O18   A    
O14   C46   A    
C1    C16   S    
C2    C15   S    
C40   C42   A    
C25   C27   A    
C37   H17   S    
C41   C43   A    
C8    H4    S    
C42   C44   A    
O11   V4    S    
C5    C7    D    
O11   C47   A    
C54   O27   D    
C24   C38   A    
C36   H16   S    
C6    C10   S    
C30   C32   A    
C53   O25   D    
C44   H14   S    
C14   C16   A    
O12   V3    S    
C19   C25   A    
O15   V3    S    
O13   C45   A    
O6    V2    S    
C53   O26   S    
C22   C24   A    
C46   O17   A    
C27   H11   S    
C32   C34   A    
C26   C28   A    
C33   C35   A    
C9    H5    S    
O17   V3    S    
C42   C47   S    
C34   C36   A    
C39   C41   A    
C4    C11   S    
C11   H7    S    
C13   C23   A    
C43   H13   S    
C12   H8    S    
C14   C24   A    
C14   C50   S    
O4    C2    A    
C49   O21   D    
C29   C31   A    
O16   C48   A    
C28   C30   A    
C39   C53   S    
C31   C33   A    
O4    V2    S    
C20   C26   A    
C18   C52   S    
C49   O22   S    
C51   H21   S    
O6    C4    A    
C54   O28   S    
O1    V2    S    
C28   H12   S    
O2    V1    S    
C51   H22   S    
C10   H6    S    
C35   C37   A    
C25   H9    S    
C52   H25   S    
O19   V4    S    
O12   C48   A    
C17   C51   S    
O3    V1    S    
C38   H18   S    
O28   H28   S    
C8    C45   S    
C6    H2    S    
C20   C22   A    
O3    C1    A    
C29   C39   A    
C50   O24   S    
C9    C11   D    
C10   C12   D    
O16   V4    S    
C30   C40   A    
C16   C18   A    
O7    V1    S    
C5    C9    S    
C1    O8    A    
C17   C19   A    
C40   C54   S    
O8    V2    S    
O26   H27   S    
C18   C20   A    
C33   C43   A    
C34   C44   A    
C3    C12   S    
O5    V1    S    
C13   C15   A    
C36   C38   A    
C52   H26   S    
C6    C8    D    
C7    C46   S    
C35   H15   S    
C41   C48   S    
C23   C37   A    
C51   H23   S    
O20   V3    S    
C19   C21   A    
O9    V2    S    
C52   H24   S    
O10   V1    S    
C21   C31   A    
O15   C47   A    
C22   C32   A    
C5    H1    S    
