data_mof_unit_4609.cif
_audit_creation_date              2012-12-11T15:15:46-0500
_audit_creation_method            fapswitch 2.2
_symmetry_space_group_name_H-M    P1
_symmetry_Int_Tables_number       1
_space_group_crystal_system       triclinic
_cell_length_a                    18.784279
_cell_length_b                    18.81487
_cell_length_c                    20.433476
_cell_angle_alpha                 107.219897
_cell_angle_beta                  106.494726
_cell_angle_gamma                 110.859526
_cell_volume                      5800.29171892

loop_
_atom_site_label
_atom_site_type_symbol
_atom_type_description
_atom_site_fract_x
_atom_site_fract_y
_atom_site_fract_z
_atom_type_partial_charge
C1    C     C_R   0.089587 0.088426 0.356501 -0.130920
C2    C     C_R   0.237971 0.074356 0.493813 -0.141873
C3    C     C_R   0.162067 0.192772 0.718659 -0.116018
C4    C     C_R   0.754372 0.930188 0.455501 -0.129421
C5    C     C_R   0.051462 0.803912 0.478491 -0.134892
C6    C     C_R   0.244795 0.220463 0.727127 0.059530
C7    C     C_R   0.035076 0.777118 0.531398 0.074840
C8    C     C_R   0.241357 0.005879 0.447948 0.084166
C9    C     C_R   0.975475 0.976632 0.724782 0.074879
C10   C     C_R   0.052203 0.712206 0.620913 -0.262304
C11   C     C_R   0.076524 0.737777 0.569233 0.117695
C12   C     C_R   0.746019 0.002851 0.465604 0.073076
C13   C     C_R   0.133864 0.717229 0.547550 -0.256566
C14   C     C_R   0.152758 0.657731 0.564152 0.139992
C15   C     C_R   0.116507 0.621418 0.605595 0.026826
C16   C     C_R   0.847931 0.778789 0.289938 -0.115957
C17   C     C_R   0.070371 0.652475 0.638022 0.144161
C18   C     C_R   0.198819 0.626812 0.532320 -0.204133
C19   C     C_R   0.200307 0.553778 0.533728 -0.205767
C20   C     C_R   0.155824 0.511529 0.567052 0.142159
C21   C     C_R   0.117970 0.548002 0.606980 0.027267
C22   C     C_R   0.073247 0.505986 0.640745 0.142294
C23   C     C_R   0.772471 0.726695 0.287754 0.040948
C24   C     C_R   0.036109 0.542946 0.680630 -0.207981
C25   C     C_R   0.034822 0.616189 0.679401 -0.206875
C26   C     C_R   0.141001 0.429606 0.554212 -0.260427
C27   C     C_R   0.086996 0.383128 0.579007 0.114190
C28   C     C_R   0.002191 0.237282 0.569496 -0.148040
C29   C     C_R   0.058933 0.423997 0.627294 -0.261306
C30   C     C_R   0.296652 0.933655 0.368357 -0.259666
C31   C     C_R   0.303276 0.009185 0.416394 0.117008
C32   C     C_R   0.374152 0.087091 0.440519 -0.257091
C33   C     C_R   0.443775 0.088733 0.428043 0.143167
C34   C     C_R   0.053947 0.290821 0.548990 0.079283
C35   C     C_R   0.441239 0.011553 0.389223 0.025656
C36   C     C_R   0.365858 0.934136 0.355692 0.135971
C37   C     C_R   0.518904 0.165498 0.460896 -0.207776
C38   C     C_R   0.593472 0.164971 0.462749 -0.204438
C39   C     C_R   0.593303 0.087652 0.432015 0.140063
C40   C     C_R   0.770437 0.770709 0.354362 -0.148036
C41   C     C_R   0.516288 0.010972 0.391430 0.027384
C42   C     C_R   0.515631 0.932948 0.360462 0.141032
C43   C     C_R   0.438648 0.857048 0.319723 -0.202629
C44   C     C_R   0.363902 0.857663 0.317221 -0.213094
C45   C     C_R   0.240097 0.196611 0.654034 -0.140262
C46   C     C_R   0.669278 0.085022 0.448463 -0.255720
C47   C     C_R   0.668894 0.006627 0.427793 0.115956
C48   C     C_R   0.592280 0.931426 0.377929 -0.257109
C49   C     C_R   0.321211 0.257049 0.798785 0.064601
C50   C     C_R   0.327926 0.306095 0.869947 0.161978
C51   C     C_R   0.400888 0.337604 0.936043 -0.222820
C52   C     C_R   0.078445 0.242802 0.503905 -0.123567
C53   C     C_R   0.466576 0.319544 0.933174 0.198109
C54   C     C_R   0.460272 0.271849 0.862845 -0.181258
C55   C     C_R   0.388023 0.240364 0.796283 -0.204445
C56   C     C_R   0.971109 0.793454 0.540720 -0.123224
C57   C     C_R   0.695061 0.502505 0.146141 -0.154575
C58   C     C_R   0.748026 0.588237 0.196219 -0.187254
C59   C     C_R   0.636408 0.593247 0.231292 -0.174717
C60   C     C_R   0.583588 0.507491 0.181382 -0.186812
C61   C     C_R   0.611308 0.462472 0.136209 0.225080
C62   C     C_2   0.546688 0.361757 0.002231 -0.206266
C63   C     C_2   0.547036 0.380076 0.071071 -0.231856
C64   C     C_R   0.824148 0.071469 0.520246 -0.129338
C65   C     C_R   0.718223 0.635076 0.237425 0.142699
C66   C     C_R   0.121947 0.028090 0.247227 0.138503
C67   C     C_R   0.168606 0.934284 0.429158 -0.149208
C68   C     C_R   0.132701 0.959303 0.210635 -0.281724
C69   C     C_R   0.166695 0.960167 0.157995 0.190103
C70   C     C_R   0.187020 0.030007 0.140661 0.175429
C71   C     C_R   0.190850 0.104085 0.187230 -0.166339
C72   C     C_R   0.157115 0.102762 0.239523 -0.172619
C73   C     C_R   0.053654 0.031295 0.933537 -0.079572
C74   C     C_R   0.022645 0.035165 0.864628 -0.258645
C75   C     C_R   0.004589 0.896036 0.795872 -0.262387
C76   C     C_R   0.020746 0.947961 0.292180 -0.115357
C77   C     C_R   0.038703 0.892200 0.864172 0.194183
C78   C     C_R   0.005106 0.051324 0.717352 -0.137457
C79   C     C_R   0.065433 0.960843 0.933582 0.033074
C80   C     C_2   0.174805 0.018309 0.063220 -0.228802
C81   C     C_2   0.100708 0.955712 0.005008 -0.079894
C82   C     C_R   0.998455 0.968191 0.795870 0.122532
C83   C     C_R   0.073270 0.021827 0.292280 0.059635
C84   C     C_3   0.222410 0.298230 0.917367 -0.910734
C85   C     C_2   0.067324 0.098773 0.003255 0.991279
C86   C     C_3   0.255510 0.902809 0.126007 -0.896367
C87   C     C_3   0.129353 0.828062 0.873338 -0.894330
C88   C     C_R   0.934331 0.910912 0.652338 -0.143882
H1    H     H_    0.139093 0.153279 0.381053 0.087071
H2    H     H_    0.157405 0.740402 0.511451 0.118595
H3    H     H_    0.228241 0.655238 0.501504 0.130502
H4    H     H_    0.706843 0.865363 0.416933 0.095791
H5    H     H_    0.231009 0.527130 0.504115 0.129590
H6    H     H_    0.165908 0.400397 0.519362 0.116931
H7    H     H_    0.020000 0.390446 0.649496 0.117390
H8    H     H_    0.003013 0.512078 0.708143 0.129242
H9    H     H_    0.000655 0.640568 0.705863 0.129303
H10   H     H_    0.241118 0.873275 0.346319 0.114139
H11   H     H_    0.379072 0.146260 0.474922 0.115391
H12   H     H_    0.939813 0.775908 0.574233 0.086427
H13   H     H_    0.521279 0.225374 0.489697 0.129176
H14   H     H_    0.652130 0.224458 0.492974 0.130437
H15   H     H_    0.727924 0.143995 0.483438 0.119016
H16   H     H_    0.876400 0.761008 0.253209 0.084901
H17   H     H_    0.591065 0.870766 0.358172 0.118104
H18   H     H_    0.437087 0.796792 0.294425 0.129863
H19   H     H_    0.305922 0.797864 0.289973 0.131034
H20   H     H_    0.811805 0.617551 0.201702 0.111150
H21   H     H_    0.611928 0.627435 0.262748 0.111770
H22   H     H_    0.488331 0.347009 0.074246 0.139553
H23   H     H_    0.143485 0.871213 0.385284 0.083112
H24   H     H_    0.511530 0.259503 0.859438 0.124631
H25   H     H_    0.718724 0.468531 0.113403 0.113548
H26   H     H_    0.384339 0.202292 0.742764 0.131819
H27   H     H_    0.981803 0.255469 0.613141 0.089609
H28   H     H_    0.604129 0.392750 0.996665 0.132403
H29   H     H_    0.407534 0.379501 0.989501 0.129681
H30   H     H_    0.519033 0.477782 0.174354 0.113012
H31   H     H_    0.112196 0.903720 0.220722 0.111976
H32   H     H_    0.015290 0.089691 0.864487 0.149265
H33   H     H_    0.987112 0.844088 0.743078 0.114160
H34   H     H_    0.032077 0.114415 0.761606 0.093306
H35   H     H_    0.059783 0.903708 0.012077 0.146242
H36   H     H_    0.208467 0.158913 0.175683 0.134190
H37   H     H_    0.152262 0.157766 0.269032 0.114511
H38   H     H_    0.728534 0.743641 0.377471 0.092694
H39   H     H_    0.212958 0.071527 0.055720 0.129203
H40   H     H_    0.127795 0.265671 0.486459 0.085225
H41   H     H_    0.841727 0.137850 0.541960 0.096548
H42   H     H_    0.005151 0.884115 0.256647 0.085209
H43   H     H_    0.292099 0.207748 0.638551 0.097528
H44   H     H_    0.286620 0.393980 0.892676 0.169672
H45   H     H_    0.894123 0.845120 0.636259 0.088651
H46   H     H_    0.167660 0.310401 0.909784 0.253687
H47   H     H_    0.265994 0.330870 0.979059 0.254912
H48   H     H_    0.198399 0.228686 0.896190 0.261798
H49   H     H_    0.050525 0.128513 0.098989 0.320051
H50   H     H_    0.138981 0.833812 0.122178 0.161600
H51   H     H_    0.252296 0.843315 0.090247 0.247999
H52   H     H_    0.297127 0.923981 0.186535 0.253091
H53   H     H_    0.283235 0.951670 0.107580 0.256297
H54   H     H_    0.998815 0.763599 0.816143 0.155002
H55   H     H_    0.131239 0.770234 0.874853 0.248544
H56   H     H_    0.277043 0.140436 0.509690 0.084689
H57   H     H_    0.179288 0.883503 0.927995 0.265925
H58   H     H_    0.142540 0.835835 0.825459 0.249143
H59   H     H_    0.142103 0.201441 0.763112 0.130040
H60   H     H_    0.097226 0.801461 0.457153 0.097187
H61   H     H_    0.012533 0.731988 0.642252 0.114771
N1    N     N_R   0.052580 0.056040 0.395500 -0.038360
N2    N     N_R   0.890210 0.849400 0.355780 -0.039056
N3    N     N_R   0.997110 0.161140 0.539580 -0.039515
N4    N     N_R   0.841950 0.845400 0.395490 -0.037780
N5    N     N_R   0.045360 0.165140 0.499870 -0.039526
N6    N     N_R   0.877490 0.041510 0.539580 -0.041945
N7    N     N_R   0.009820 0.969030 0.355780 -0.040278
N8    N     N_R   0.158050 0.154600 0.604510 -0.039197
N9    N     N_2   0.265033 0.329786 0.875042 -0.128577
N10   N     N_2   0.171309 0.887408 0.116813 -0.115358
N11   N     N_2   0.046661 0.819316 0.862704 -0.116579
N12   N     N_R   0.954640 0.834860 0.500130 -0.040030
N13   N     N_R   0.122510 0.958490 0.460420 -0.037541
N14   N     N_R   0.990180 0.030970 0.644220 -0.039200
N15   N     N_R   0.947420 0.943960 0.604500 -0.037048
N16   N     N_R   0.165270 0.045500 0.500140 -0.037202
N17   N     N_R   0.109790 0.150600 0.644220 -0.043621
N18   N     N_R   0.002890 0.838860 0.460420 -0.041876
N19   N     N_R   0.834730 0.954500 0.499860 -0.041746
Ni1   Ni    Ni4+2 0.104370 0.104380 0.500010 0.208966
Ni2   Ni    Ni4+2 0.895630 0.895620 0.499990 0.214614
Ni3   Ni    Ni4+2 0.006300 0.904810 0.408930 0.206430
Ni4   Ni    Ni4+2 0.993700 0.095190 0.591070 0.214304
O1    O     O_2   0.099346 0.172773 0.013998 -0.659968
O2    O     O_R   0.039876 0.077291 0.054856 -0.799217

loop_
_geom_bond_atom_site_label_1
_geom_bond_atom_site_label_2
_ccdc_geom_bond_type
C26   H6    S    
C66   C68   A    
C84   H47   S    
N17   Ni4   S    
C87   H58   S    
C13   H2    S    
C27   C29   A    
C2    H56   S    
C41   C42   A    
C14   C18   A    
N15   Ni2   S    
N14   N15   A    
C67   N13   A    
C3    C6    A    
C52   H40   S    
C39   C41   A    
C53   C54   A    
C50   N9    S    
C7    C11   S    
C64   N6    A    
C84   H46   S    
C26   C27   A    
C62   C63   D    
C22   C29   A    
C81   H35   S    
C18   H3    S    
C6    C45   A    
C88   H45   S    
C24   H8    S    
C9    C88   A    
C30   C31   A    
N3    Ni4   S    
N1    Ni1   S    
C10   C17   A    
C52   N5    A    
C23   C40   A    
N2    Ni3   S    
C87   N11   S    
C18   C19   A    
C73   C74   A    
C61   C63   S    
N8    Ni1   S    
C66   C83   S    
C48   H17   S    
C76   H42   S    
H50   N10   S    
C16   H16   S    
C66   C72   A    
N13   Ni3   S    
C35   C36   A    
C68   C69   A    
N4    Ni2   S    
C85   O1    D    
C60   H30   S    
C70   C71   A    
C4    C12   A    
C86   N10   S    
C19   H5    S    
C86   H52   S    
C9    C82   S    
N19   Ni2   S    
C28   C34   A    
C59   C60   A    
C5    H60   S    
N1    N7    A    
C13   C14   A    
C7    C56   A    
C74   C82   A    
C12   C47   S    
C68   H31   S    
N6    Ni4   S    
C76   C83   A    
C85   O2    S    
C77   C79   A    
C27   C34   S    
N16   Ni1   S    
C70   C80   S    
C71   H36   S    
C5    N18   A    
C45   N8    A    
C24   C25   A    
C5    C7    A    
C84   N9    S    
N18   Ni3   S    
C49   C55   A    
C56   N12   A    
C76   N7    A    
C33   C37   A    
C59   H21   S    
N5    Ni1   S    
C60   C61   A    
C51   C53   A    
C43   H18   S    
C43   C44   A    
C62   H28   S    
C37   C38   A    
N14   Ni4   S    
C28   H27   S    
N13   N16   A    
C53   C62   S    
C58   C65   A    
C47   C48   A    
N6    N19   A    
C40   H38   S    
C50   C51   A    
C73   C79   A    
C54   H24   S    
C1    N1    A    
C42   C48   A    
C64   H41   S    
C57   C61   A    
C78   N14   A    
C75   C77   A    
C2    N16   A    
C73   C85   S    
N12   N18   A    
C35   C41   A    
C86   H51   S    
C39   C46   A    
N12   Ni2   S    
C25   H9    S    
C80   H39   S    
N3    N5    A    
C45   H43   S    
C16   C23   A    
C51   H29   S    
C22   C24   A    
C40   N4    A    
C36   C44   A    
C42   C43   A    
C56   H12   S    
C29   H7    S    
C44   H19   S    
C67   H23   S    
C15   C17   A    
C54   C55   A    
C84   H48   S    
C1    H1    S    
C87   H57   S    
C75   H33   S    
C8    C31   S    
C34   C52   A    
C31   C32   A    
C2    C8    A    
H54   N11   S    
C80   C81   D    
N8    N17   A    
C57   H25   S    
C75   C82   A    
C28   N3    A    
C55   H26   S    
C1    C83   A    
C74   H32   S    
C46   H15   S    
C30   H10   S    
N7    Ni3   S    
C79   C81   S    
C32   H11   S    
C30   C36   A    
C72   H37   S    
C17   C25   A    
C32   C33   A    
C23   C65   S    
C19   C20   A    
H49   O2    S    
C10   H61   S    
C88   N15   A    
C3    H59   S    
C59   C65   A    
C37   H13   S    
C11   C13   A    
C33   C35   A    
C57   C58   A    
C38   C39   A    
C20   C26   A    
C63   H22   S    
C12   C64   A    
C69   N10   S    
C16   N2    A    
C58   H20   S    
C9    C78   A    
N2    N4    A    
C6    C49   S    
C69   C70   A    
C78   H34   S    
H44   N9    S    
C46   C47   A    
C10   C11   A    
C77   N11   S    
C4    N19   A    
C15   C21   A    
C71   C72   A    
C20   C21   A    
C3    N17   A    
C8    C67   A    
C38   H14   S    
C49   C50   A    
C14   C15   A    
C87   H55   S    
C21   C22   A    
C86   H53   S    
C4    H4    S    
