data_mof_unit_547.cif
_audit_creation_date              2013-03-05T16:45:07-0500
_audit_creation_method            fapswitch 2.2
_symmetry_space_group_name_H-M    P1
_symmetry_Int_Tables_number       1
_space_group_crystal_system       triclinic
_cell_length_a                    15.006347
_cell_length_b                    15.203074
_cell_length_c                    9.911973
_cell_angle_alpha                 89.665697
_cell_angle_beta                  90.499499
_cell_angle_gamma                 90.123589
_cell_volume                      2261.21389113

loop_
_atom_site_label
_atom_site_type_symbol
_atom_site_description
_atom_site_fract_x
_atom_site_fract_y
_atom_site_fract_z
_atom_type_partial_charge
O1    O     O_R   0.408400 0.908380 0.614690 -0.614946
O2    O     O_R   0.408400 0.091620 0.614690 -0.618834
O3    O     O_R   0.908400 0.408380 0.614690 -0.609738
O4    O     O_R   0.908400 0.591620 0.614690 -0.613595
O5    O     O_R   0.408370 0.908370 0.385350 -0.627378
O6    O     O_R   0.408370 0.091630 0.385350 -0.621932
O7    O     O_R   0.908370 0.408370 0.385350 -0.625735
O8    O     O_R   0.908370 0.591630 0.385350 -0.626201
C1    C     C_R   0.379862 0.880489 0.499995 0.861816
C2    C     C_R   0.376605 0.116115 0.499554 0.872264
C3    C     C_R   0.882042 0.378274 0.500154 0.875529
C4    C     C_R   0.879471 0.619193 0.499555 0.865092
Zn1   Zn    Zn3+2 0.500010 0.000000 0.653130 0.924906
Zn2   Zn    Zn3+2 0.000010 0.500000 0.653130 0.927776
Zn3   Zn    Zn3+2 0.499980 0.000000 0.346870 0.990273
Zn4   Zn    Zn3+2 0.999980 0.500000 0.346870 0.988253
O9    O     O_R   0.591610 0.091610 0.614650 -0.635661
O10   O     O_R   0.591610 0.908390 0.614650 -0.630533
O11   O     O_R   0.091610 0.591610 0.614650 -0.636149
O12   O     O_R   0.091610 0.408390 0.614650 -0.636763
O13   O     O_R   0.591590 0.091600 0.385310 -0.585905
O14   O     O_R   0.591590 0.908400 0.385310 -0.559204
O15   O     O_R   0.091590 0.591600 0.385310 -0.552907
O16   O     O_R   0.091590 0.408400 0.385310 -0.590511
C5    C     C_R   0.620870 0.118891 0.500099 0.885068
C6    C     C_R   0.620585 0.881081 0.500514 0.885178
C7    C     C_R   0.120330 0.619166 0.500146 0.884273
C8    C     C_R   0.119378 0.379070 0.500498 0.871151
C9    C     C_R   0.265992 0.199373 0.622069 0.023321
C10   C     C_R   0.254210 0.809141 0.604006 0.040203
C11   C     C_R   0.755720 0.691760 0.605838 0.047133
C12   C     C_R   0.783209 0.281101 0.622431 0.047224
C13   C     C_R   0.299181 0.169610 0.499859 -0.086469
C14   C     C_R   0.316918 0.811547 0.501649 -0.076572
C15   C     C_R   0.816071 0.687786 0.500289 -0.079570
C16   C     C_R   0.824891 0.304113 0.502406 -0.086774
C17   C     C_R   0.257912 0.194602 0.378334 -0.228332
C18   C     C_R   0.321692 0.744063 0.406562 -0.238641
C19   C     C_R   0.819198 0.754382 0.402309 -0.240650
C20   C     C_R   0.811588 0.253603 0.386178 -0.231139
H1    H     H_    0.277831 0.167224 0.282556 0.167440
H2    H     H_    0.373455 0.743148 0.331022 0.166543
H3    H     H_    0.869180 0.754366 0.324048 0.166845
H4    H     H_    0.848055 0.266526 0.294278 0.170443
C21   C     C_R   0.755668 0.820261 0.403778 -0.189511
C22   C     C_R   0.745804 0.189731 0.386004 -0.207723
C23   C     C_R   0.196131 0.262006 0.379062 -0.203255
C24   C     C_R   0.257370 0.678730 0.407045 -0.189833
H5    H     H_    0.756443 0.870782 0.326249 0.210341
H6    H     H_    0.732862 0.153274 0.294265 0.197038
H7    H     H_    0.167915 0.283918 0.283698 0.178523
H8    H     H_    0.259426 0.627317 0.331912 0.210035
C25   C     C_R   0.689608 0.818243 0.502676 -0.120566
C26   C     C_R   0.693635 0.178072 0.501526 -0.124022
C27   C     C_R   0.177325 0.304758 0.500884 -0.117812
C28   C     C_R   0.189034 0.682358 0.501987 -0.118534
C29   C     C_R   0.692109 0.756222 0.606233 0.103695
C30   C     C_R   0.716480 0.220043 0.621385 0.108886
C31   C     C_R   0.208619 0.269128 0.622505 0.117470
C32   C     C_R   0.189760 0.745267 0.603331 0.105963
C33   C     C_3   0.620865 0.693933 0.654351 0.358708
C34   C     C_3   0.661195 0.272010 0.718989 0.370928
C35   C     C_3   0.255527 0.309546 0.742362 0.368026
C36   C     C_3   0.118260 0.808991 0.643948 0.354193
C37   C     C_3   0.314807 0.228343 0.746256 -0.452720
C38   C     C_3   0.190585 0.879620 0.645141 -0.494464
C39   C     C_3   0.692006 0.622490 0.653588 -0.504431
C40   C     C_3   0.737681 0.338198 0.722817 -0.483929
H9    H     H_    0.386624 0.241381 0.729567 0.196627
H10   H     H_    0.206169 0.905461 0.746958 0.190947
H11   H     H_    0.709462 0.597410 0.755402 0.191229
H12   H     H_    0.775195 0.339287 0.820023 0.192617
H13   H     H_    0.302533 0.182671 0.832182 0.184460
H14   H     H_    0.182799 0.931643 0.566454 0.185415
H15   H     H_    0.681220 0.569865 0.577480 0.181135
H16   H     H_    0.721238 0.404415 0.681200 0.181666
C41   C     C_R   0.424604 0.020715 0.069728 0.089618
C42   C     C_R   0.924680 0.478551 0.070415 0.087667
N1    N     N_R   0.499140 0.000000 0.142800 -0.166998
N2    N     N_R   0.999140 0.500000 0.142800 -0.170623
C43   C     C_R   0.576570 0.989086 0.074753 0.630265
C44   C     C_R   0.075600 0.515582 0.074727 0.639525
C45   C     C_R   0.577345 0.988299 0.930846 0.050667
C46   C     C_R   0.075944 0.517525 0.931379 0.037629
N3    N     N_R   0.499160 1.000000 0.857150 -0.135746
N4    N     N_R   0.999160 0.500000 0.857150 -0.135664
C47   C     C_R   0.424632 0.020892 0.927705 0.159266
C48   C     C_R   0.924587 0.478608 0.928015 0.168965
C49   C     C_3   0.337633 0.973737 0.921802 -0.488785
C50   C     C_3   0.838849 0.528036 0.923420 -0.499148
C51   C     C_3   0.337501 0.973800 0.075016 -0.469071
C52   C     C_3   0.838487 0.526350 0.076143 -0.462762
H17   H     H_    0.284315 0.015415 0.876627 0.192073
H18   H     H_    0.343695 0.906739 0.878482 0.217850
H19   H     H_    0.846824 0.595409 0.880831 0.217990
H20   H     H_    0.783815 0.488886 0.878842 0.192602
H21   H     H_    0.284179 0.015535 0.117996 0.195925
H22   H     H_    0.343088 0.906875 0.120131 0.218690
H23   H     H_    0.845050 0.592749 0.121671 0.217392
H24   H     H_    0.784520 0.484732 0.118808 0.202477
C53   C     C_3   0.587282 0.716572 0.795901 -0.850726
H25   H     H_    0.543703 0.775505 0.791080 0.256424
H26   H     H_    0.548239 0.660558 0.837284 0.238387
H27   H     H_    0.643806 0.730480 0.865983 0.224136
C54   C     C_3   0.646524 0.224518 0.854203 -0.845059
H28   H     H_    0.593267 0.174254 0.843922 0.257763
H29   H     H_    0.708530 0.191563 0.889851 0.223449
H30   H     H_    0.625687 0.272621 0.931641 0.231787
C55   C     C_3   0.308892 0.393582 0.707349 -0.874594
H31   H     H_    0.336879 0.423761 0.800271 0.242824
H32   H     H_    0.364989 0.378826 0.638625 0.227734
H33   H     H_    0.267224 0.442051 0.652653 0.225634
C56   C     C_3   0.079897 0.788534 0.783786 -0.853779
H34   H     H_    0.036943 0.729016 0.779098 0.256953
H35   H     H_    0.133947 0.776819 0.859117 0.223751
H36   H     H_    0.039025 0.844739 0.818383 0.239542
C57   C     C_3   0.544977 0.677579 0.552198 -0.854566
H37   H     H_    0.571584 0.664718 0.449864 0.226981
H38   H     H_    0.504795 0.619838 0.584445 0.243127
H39   H     H_    0.500754 0.735793 0.546457 0.230459
C58   C     C_3   0.575116 0.310294 0.657231 -0.888162
H40   H     H_    0.588853 0.345257 0.560787 0.226507
H41   H     H_    0.526737 0.256868 0.636172 0.237145
H42   H     H_    0.544612 0.357453 0.728362 0.241791
C59   C     C_3   0.195831 0.316309 0.867077 -0.858592
H43   H     H_    0.167776 0.251051 0.895059 0.212928
H44   H     H_    0.234661 0.341802 0.954402 0.246063
H45   H     H_    0.138790 0.360176 0.846758 0.262781
C60   C     C_3   0.045824 0.824841 0.535855 -0.851653
H46   H     H_    0.075792 0.836464 0.435133 0.228320
H47   H     H_    0.001127 0.766859 0.529252 0.229012
H48   H     H_    0.005369 0.883152 0.562713 0.243601
F1    F     F_    0.652862 0.976194 0.146504 -0.682010
F2    F     F_    0.151286 0.532320 0.145949 -0.674831
C61   C     C_3   0.664627 0.970032 0.863106 -0.757132
H49   H     H_    0.722174 0.980202 0.932365 0.241344
H50   H     H_    0.666764 0.900461 0.830808 0.241804
H51   H     H_    0.675824 0.014904 0.777313 0.258458
C62   C     C_3   0.161195 0.543276 0.864862 -0.767060
H52   H     H_    0.220253 0.527999 0.928937 0.248010
H53   H     H_    0.169088 0.505640 0.772421 0.272875
H54   H     H_    0.161264 0.614796 0.842983 0.241077

loop_
_geom_bond_atom_site_label_1
_geom_bond_atom_site_label_2
_geom_bond_distance
_ccdc_geom_bond_type
C30   C34   1.508041 S    
C61   H51   1.100913 S    
C35   C37   1.523318 S    
C35   C55   1.545728 S    
C53   H25   1.110940 S    
C27   C31   1.396718 A    
Zn4   O16   1.991817 S    
C33   C53   1.536115 S    
O10   C6    1.286907 A    
C12   C30   1.363965 A    
C61   H49   1.109622 S    
C34   C54   1.535964 S    
C38   H10   1.107997 S    
O7    C3    1.288929 A    
C54   H29   1.111703 S    
C29   C33   1.505486 S    
Zn1   O10   1.999579 S    
C17   H1    1.083493 S    
C12   C16   1.391455 A    
C3    C16   1.415306 S    
C46   N4    1.387864 A    
C60   H46   1.111575 S    
C24   H8    1.083434 S    
C55   H32   1.111566 S    
C62   H54   1.107501 S    
C42   N2    1.362643 A    
C38   H14   1.113149 S    
C9    C13   1.392130 A    
C37   H13   1.112081 S    
C61   H50   1.107470 S    
C49   H18   1.111893 S    
O2    Zn1   1.992029 S    
C58   H42   1.110680 S    
O6    Zn3   1.999894 S    
Zn3   O14   1.991817 S    
Zn3   N1    2.022667 S    
C9    C31   1.367467 A    
C46   C62   1.494702 S    
C10   C32   1.369074 A    
C59   H45   1.102684 S    
O15   C7    1.285883 A    
O4    C4    1.285733 A    
O11   C7    1.285139 A    
C45   C61   1.504181 S    
C40   H12   1.111849 S    
C12   C40   1.494944 S    
C56   H36   1.110533 S    
N3    C47   1.363274 A    
C21   C25   1.400385 A    
O8    Zn4   1.999894 S    
O4    Zn2   1.992029 S    
C43   C45   1.426672 A    
C8    C27   1.427116 S    
C41   N1    1.363668 A    
C54   H30   1.110614 S    
O5    Zn3   1.992651 S    
C10   C14   1.390047 A    
N4    C48   1.364165 A    
C33   C57   1.538031 S    
Zn2   O12   1.999579 S    
C50   H19   1.112201 S    
O1    C1    1.285299 A    
C5    C26   1.413387 S    
Zn2   N4    2.022393 S    
N2    C44   1.355849 A    
C57   H39   1.108242 S    
N1    C43   1.359546 A    
C25   C29   1.390067 A    
C7    C28   1.407785 S    
C19   H3    1.083732 S    
O12   C8    1.291310 A    
C42   C52   1.486649 S    
C13   C17   1.400534 A    
C28   C32   1.390987 A    
Zn4   N2    2.022667 S    
C36   C38   1.525105 S    
C44   F2    1.356454 S    
O1    Zn1   1.990992 S    
C15   C19   1.399849 A    
O5    C1    1.286886 A    
C33   C39   1.524705 S    
C50   C52   1.513910 S    
C21   H5    1.083442 S    
O8    C4    1.288397 A    
C22   C26   1.402899 A    
C17   C23   1.383468 A    
C35   C59   1.536995 S    
C51   H21   1.111592 S    
C4    C15   1.413222 S    
C43   F1    1.356492 S    
C58   H40   1.111710 S    
C10   C38   1.497415 S    
O3    Zn2   1.990991 S    
C9    C37   1.495005 S    
O7    Zn4   1.992651 S    
C45   N3    1.387890 A    
C48   C50   1.491600 S    
Zn4   O15   1.990779 S    
C44   C46   1.421052 A    
C47   C49   1.488932 S    
C59   H43   1.111541 S    
C11   C15   1.391361 A    
C55   H33   1.104228 S    
C49   C51   1.518682 S    
C20   C22   1.383228 A    
O2    C2    1.286483 A    
C6    C25   1.410522 S    
C16   C20   1.400855 A    
C52   H24   1.111602 S    
C23   C27   1.405708 A    
C56   H34   1.110807 S    
C26   C30   1.391739 A    
C42   C48   1.411452 A    
C24   C28   1.399248 A    
O13   C5    1.286768 A    
C41   C51   1.488869 S    
C36   C56   1.535399 S    
C14   C18   1.399569 A    
C18   C24   1.383544 A    
Zn2   O11   1.992334 S    
O16   C8    1.289518 A    
O6    C2    1.289289 A    
C23   H7    1.083377 S    
C62   H52   1.109999 S    
C50   H20   1.107301 S    
Zn1   O9    1.992334 S    
C40   H16   1.113072 S    
C54   H28   1.109006 S    
C22   H6    1.083561 S    
C31   C35   1.508816 S    
C19   C21   1.384457 A    
C32   C36   1.506147 S    
O9    C5    1.287021 A    
C60   H48   1.110492 S    
C57   H38   1.110926 S    
C57   H37   1.111865 S    
C62   H53   1.090530 S    
C11   C29   1.369592 A    
C1    C14   1.409549 S    
Zn3   O13   1.990779 S    
C37   H9    1.109018 S    
C2    C13   1.419691 S    
C39   H11   1.106245 S    
C34   C40   1.525152 S    
C51   H22   1.112041 S    
C49   H17   1.111207 S    
C58   H41   1.107775 S    
O3    C3    1.285398 A    
C11   C39   1.498306 S    
C18   H2    1.083741 S    
C20   H4    1.083493 S    
C39   H15   1.113438 S    
C36   C60   1.537990 S    
C41   C47   1.407724 A    
C53   H26   1.111166 S    
O14   C6    1.285438 A    
Zn1   N3    2.022393 S    
C59   H44   1.110453 S    
C53   H27   1.112375 S    
C56   H35   1.111593 S    
C55   H31   1.110204 S    
C34   C58   1.538627 S    
C52   H23   1.111979 S    
C60   H47   1.108419 S    
