data_mof_unit_465.cif
_audit_creation_date              2012-12-11T16:11:18-0500
_audit_creation_method            fapswitch 2.2
_symmetry_space_group_name_H-M    P1
_symmetry_Int_Tables_number       1
_space_group_crystal_system       triclinic
_cell_length_a                    12.880128
_cell_length_b                    13.291736
_cell_length_c                    26.936486
_cell_angle_alpha                 97.109755
_cell_angle_beta                  90.179511
_cell_angle_gamma                 119.06598
_cell_volume                      3989.09074742

loop_
_atom_site_label
_atom_site_type_symbol
_atom_type_description
_atom_site_fract_x
_atom_site_fract_y
_atom_site_fract_z
_atom_type_partial_charge
C1    C     C_R   0.627925 0.894685 0.424363 0.544866
C2    C     C_1   0.140021 0.824312 0.179456 -0.043410
C3    C     C_1   0.160394 0.837498 0.231816 -0.003486
C4    C     C_R   0.601991 0.223862 0.443341 0.546183
C5    C     C_1   0.174909 0.844573 0.276507 -0.001215
C6    C     C_1   0.194922 0.851414 0.328517 -0.039087
C7    C     C_1   0.220908 0.859581 0.372315 -0.003236
C8    C     C_1   0.689437 0.798489 0.136238 -0.021192
C9    C     C_1   0.673009 0.807951 0.180081 -0.056605
C10   C     C_1   0.661803 0.816993 0.232170 -0.003587
C11   C     C_1   0.656064 0.826245 0.276921 0.001634
C12   C     C_R   0.591050 0.358847 0.232465 0.006205
C13   C     C_1   0.650489 0.841758 0.329295 -0.038706
C14   C     C_1   0.643191 0.861479 0.373558 -0.004008
C15   C     C_1   0.693717 0.382117 0.875203 -0.022743
C16   C     C_R   0.268404 0.875619 0.422477 0.544659
C17   C     C_1   0.685124 0.353950 0.830528 -0.071692
C18   C     C_1   0.676399 0.332549 0.777723 -0.025984
C19   C     C_1   0.667792 0.318056 0.732595 -0.015744
C20   C     C_1   0.653513 0.298602 0.679816 -0.063803
C21   C     C_1   0.634864 0.273260 0.634994 -0.032886
C22   C     C_1   0.215702 0.861195 0.608513 -0.002193
C23   C     C_R   0.586176 0.347198 0.283481 -0.106225
C24   C     C_R   0.149712 0.737882 0.721008 -0.016738
C25   C     C_R   0.145136 0.733284 0.773040 -0.005321
C26   C     C_R   0.177402 0.931777 0.787407 -0.129901
C27   C     C_R   0.185000 0.938309 0.736094 -0.008965
C28   C     C_R   0.630502 0.898074 0.563631 0.548197
C29   C     C_R   0.169976 0.840680 0.702815 0.010884
C30   C     C_R   0.159185 0.831152 0.805772 0.002662
C31   C     C_1   0.139861 0.822159 0.857706 -0.052745
C32   C     C_1   0.187603 0.849801 0.650616 -0.041646
C33   C     C_1   0.111563 0.801579 0.899092 -0.005073
C34   C     C_R   0.672156 0.331849 0.307984 0.024035
C35   C     C_1   0.654584 0.857107 0.606161 -0.014761
C36   C     C_R   0.781618 0.884464 0.725375 -0.112201
C37   C     C_R   0.790178 0.866764 0.774645 -0.120818
C38   C     C_R   0.607777 0.678855 0.758271 0.008473
C39   C     C_R   0.601736 0.697668 0.708346 -0.111321
C40   C     C_R   0.602805 0.226686 0.583037 0.537433
C41   C     C_R   0.687441 0.800468 0.692390 0.025685
C42   C     C_R   0.703088 0.765862 0.791612 0.030785
C43   C     C_1   0.712065 0.758222 0.843891 -0.065461
C44   C     C_1   0.670887 0.827675 0.644387 -0.060645
C45   C     C_R   0.682765 0.352455 0.205986 0.029945
C46   C     C_1   0.725042 0.754796 0.887639 -0.016132
C47   C     C_R   0.065255 0.771848 0.084181 0.545605
C48   C     C_R   0.715735 0.438420 0.066543 0.546311
C49   C     C_R   0.720181 0.782245 0.086097 0.555654
C50   C     C_R   0.060527 0.765971 0.944685 0.539719
C51   C     C_R   0.709492 0.431969 0.926720 0.535373
C52   C     C_R   0.267671 0.878831 0.561813 0.544917
C53   C     C_R   0.747280 0.751746 0.939064 0.564540
C54   C     C_1   0.636984 0.276019 0.398886 -0.008183
C55   C     C_R   0.763433 0.326964 0.281767 -0.107361
C56   C     C_1   0.693239 0.368062 0.154204 -0.054234
C57   C     C_R   0.768890 0.337565 0.230864 -0.116938
C58   C     C_R   0.511182 0.571219 0.774573 0.025619
C59   C     C_R   0.391606 0.534313 0.760386 -0.105260
C60   C     C_R   0.300229 0.431586 0.773862 -0.102377
C61   C     C_R   0.326574 0.365327 0.802552 -0.098083
C62   C     C_R   0.444784 0.401171 0.817195 -0.096554
C63   C     C_R   0.536960 0.503032 0.802925 -0.076888
C64   C     C_R   0.498832 0.376086 0.207847 0.027330
C65   C     C_R   0.377763 0.293622 0.208168 -0.096698
C66   C     C_R   0.290429 0.309508 0.185091 -0.107460
C67   C     C_1   0.657588 0.307161 0.358415 -0.053848
C68   C     C_R   0.323174 0.407908 0.161755 -0.100126
C69   C     C_R   0.443280 0.490836 0.161625 -0.091704
C70   C     C_R   0.530928 0.475507 0.184777 -0.074086
C71   C     C_R   0.139069 0.637843 0.685820 0.038424
C72   C     C_R   0.241616 0.632300 0.672697 -0.089368
C73   C     C_R   0.231899 0.537527 0.639864 -0.113056
C74   C     C_R   0.119884 0.448594 0.619605 -0.103307
C75   C     C_R   0.017556 0.454991 0.631712 -0.107530
C76   C     C_R   0.027055 0.549820 0.664442 -0.094650
C77   C     C_R   0.125002 0.627231 0.794062 0.033945
C78   C     C_1   0.702412 0.392274 0.112438 -0.008785
C79   C     C_R   0.014336 0.524821 0.785363 -0.083923
C80   C     C_R   0.992101 0.429524 0.809376 -0.110918
C81   C     C_R   0.078451 0.437002 0.843414 -0.105775
C82   C     C_R   0.188178 0.539058 0.852788 -0.096593
C83   C     C_R   0.212208 0.633168 0.827660 -0.089229
C84   C     C_R   0.205063 0.046482 0.717639 0.031787
C85   C     C_R   0.118729 0.081672 0.723051 -0.105375
C86   C     C_R   0.130798 0.176732 0.701379 -0.119016
C87   C     C_R   0.231023 0.239366 0.675425 -0.095515
C88   C     C_R   0.319889 0.207865 0.671665 -0.087614
C89   C     C_1   0.113497 0.805643 0.135125 -0.006428
C90   C     C_R   0.307092 0.111600 0.692578 -0.078035
Cr1   Cr    Cr6+3 0.416010 0.828400 0.490230 1.035853
Cr2   Cr    Cr6+3 0.676380 0.087280 0.505260 1.026539
Cr3   Cr    Cr6+3 0.407590 0.084280 0.504540 1.028405
Cr4   Cr    Cr6+3 0.914090 0.832340 0.018020 1.025438
Cr5   Cr    Cr6+3 0.923310 0.576840 0.003860 1.026893
Cr6   Cr    Cr6+3 0.654200 0.573160 0.004700 1.022602
H1    H     H_    0.828964 0.312911 0.300440 0.119799
H2    H     H_    0.255449 0.286096 0.813284 0.109661
H3    H     H_    0.464604 0.349364 0.839374 0.127400
H4    H     H_    0.628227 0.528056 0.813559 0.117515
H5    H     H_    0.351165 0.216679 0.225917 0.112479
H6    H     H_    0.197348 0.245424 0.185241 0.115736
H7    H     H_    0.255471 0.420004 0.143857 0.114145
H8    H     H_    0.468347 0.567060 0.143632 0.123714
H9    H     H_    0.623568 0.541182 0.184859 0.116923
H10   H     H_    0.328767 0.701284 0.687947 0.103455
H11   H     H_    0.311158 0.532991 0.630171 0.101168
H12   H     H_    0.862802 0.933904 0.800114 0.108104
H13   H     H_    0.112441 0.375087 0.594322 0.110250
H14   H     H_    0.930931 0.386575 0.615701 0.121556
H15   H     H_    0.947368 0.554389 0.673340 0.105780
H16   H     H_    0.944303 0.519750 0.761148 0.111124
H17   H     H_    0.907240 0.350395 0.802245 0.120152
H18   H     H_    0.060540 0.363613 0.862383 0.108241
H19   H     H_    0.255198 0.544744 0.879067 0.124272
H20   H     H_    0.297561 0.711863 0.835345 0.114442
H21   H     H_    0.041402 0.034104 0.743320 0.097066
H22   H     H_    0.062843 0.202273 0.704947 0.105606
H23   H     H_    0.528613 0.633761 0.682176 0.099586
H24   H     H_    0.240714 0.313408 0.658933 0.107796
H25   H     H_    0.398099 0.257507 0.652162 0.133360
H26   H     H_    0.375679 0.086888 0.688684 0.115661
H27   H     H_    0.840110 0.333908 0.210851 0.117278
H28   H     H_    0.514804 0.349279 0.304048 0.115831
H29   H     H_    0.185429 0.005229 0.813095 0.111978
H30   H     H_    0.845684 0.965599 0.713362 0.109508
H31   H     H_    0.368935 0.585592 0.739232 0.105080
H32   H     H_    0.208731 0.403814 0.762200 0.128578
O1    O     O_R   0.294740 0.800910 0.434410 -0.504868
O2    O     O_R   0.635480 0.460400 0.052590 -0.504407
O3    O     O_R   0.662650 0.681410 0.060750 -0.495270
O4    O     O_R   0.526010 0.837250 0.440870 -0.494302
O5    O     O_R   0.814500 0.852290 0.965490 -0.502985
O6    O     O_R   0.013160 0.821640 0.966980 -0.516005
O7    O     O_R   0.038850 0.666600 0.954370 -0.498636
O8    O     O_R   0.813260 0.476410 0.948680 -0.490839
O9    O     O_R   0.630060 0.454430 0.944230 -0.520067
O10   O     O_R   0.657630 0.675880 0.960300 -0.490321
O11   O     O_3   0.830530 0.660780 0.008860 -0.274807
O12   O     O_R   0.664100 0.185180 0.560770 -0.497260
O13   O     O_R   0.704290 0.994500 0.446090 -0.505394
O14   O     O_R   0.662870 0.181760 0.460430 -0.494322
O15   O     O_R   0.498970 0.199080 0.457120 -0.505153
O16   O     O_R   0.309350 0.975930 0.448180 -0.493091
O17   O     O_R   0.296060 0.804610 0.542650 -0.503143
O18   O     O_R   0.527240 0.840670 0.541200 -0.496094
O19   O     O_R   0.705610 0.998200 0.554330 -0.508202
O20   O     O_R   0.500290 0.202770 0.565360 -0.515642
O21   O     O_R   0.310570 0.979360 0.548520 -0.495378
O22   O     O_3   0.499990 0.999990 0.500010 -0.251165
O23   O     O_R   0.819910 0.858260 0.073860 -0.498318
O24   O     O_R   0.018180 0.827180 0.067430 -0.494205
O25   O     O_R   0.044260 0.672570 0.062730 -0.504886
O26   O     O_R   0.818270 0.481940 0.049130 -0.492633

loop_
_geom_bond_atom_site_label_1
_geom_bond_atom_site_label_2
_ccdc_geom_bond_type
C8    C9    T    
C66   C68   A    
C87   C88   A    
C52   O17   A    
C27   C29   A    
C47   C89   S    
C73   C74   A    
C66   H6    S    
Cr3   O21   S    
C19   C20   S    
C68   H7    S    
C65   H5    S    
C1    O4    A    
C74   H13   S    
C81   C82   A    
Cr3   O22   S    
C39   C41   A    
C85   C86   A    
C49   O3    A    
C12   C23   A    
C45   C57   A    
C26   C27   A    
C62   C63   A    
C22   C32   T    
C79   H16   S    
C25   C77   S    
Cr6   O2    S    
C36   C37   A    
C16   O16   A    
C82   H19   S    
C38   C42   A    
C29   C32   S    
C50   O7    A    
C4    O14   A    
C30   C31   S    
C12   C64   S    
C73   H11   S    
C77   C83   A    
C59   H31   S    
C25   C30   A    
Cr4   O5    S    
C56   C78   T    
Cr3   O20   S    
C18   C19   T    
C48   C78   S    
C37   C42   A    
C24   C29   A    
C33   C50   S    
C38   C58   S    
C61   H2    S    
C45   C56   S    
C68   C69   A    
C75   H14   S    
C81   H18   S    
C31   C33   T    
C15   C51   S    
Cr2   O14   S    
C9    C10   S    
Cr3   O15   S    
C59   C60   A    
C13   C14   T    
Cr2   O19   S    
Cr4   O11   S    
C90   H26   S    
C48   O2    A    
C36   C41   A    
C69   C70   A    
C84   C90   A    
Cr6   O11   S    
C4    O15   A    
C77   C79   A    
C38   C39   A    
C74   C75   A    
C40   O20   A    
C53   O10   A    
C60   H32   S    
C53   O5    A    
C24   C25   A    
C28   C35   S    
C37   H12   S    
C50   O6    A    
Cr6   O9    S    
C49   O23   A    
C86   C87   A    
C80   C81   A    
Cr1   O4    S    
C47   O25   A    
C58   C59   A    
C82   C83   A    
C79   C80   A    
C60   C61   A    
Cr5   O25   S    
C26   H29   S    
C2    C89   T    
C75   C76   A    
C63   H4    S    
C35   C44   T    
C57   H27   S    
C51   O8    A    
C52   O21   A    
C80   H17   S    
C23   C34   A    
C55   H1    S    
Cr5   O7    S    
C17   C18   S    
C86   H22   S    
C84   C85   A    
C85   H21   S    
C16   O1    A    
C23   H28   S    
Cr3   O16   S    
Cr6   O3    S    
Cr1   O1    S    
C51   O9    A    
C87   H24   S    
C7    C16   S    
C88   C90   A    
C26   C30   A    
C64   C70   A    
C55   C57   A    
Cr2   O22   S    
C41   C44   S    
C42   C43   S    
Cr2   O12   S    
C71   C76   A    
Cr1   O17   S    
Cr2   O13   S    
C22   C52   S    
C69   H8    S    
C58   C63   A    
C15   C17   T    
C48   O26   A    
C27   C84   S    
C28   O19   A    
C4    C54   S    
C20   C21   T    
C28   O18   A    
C83   H20   S    
C36   H30   S    
C72   H10   S    
C72   C73   A    
C3    C5    T    
C70   H9    S    
C34   C67   S    
Cr1   O22   S    
C6    C7    T    
C12   C45   A    
Cr5   O11   S    
Cr5   O26   S    
C64   C65   A    
C2    C3    S    
Cr4   O23   S    
C71   C72   A    
C54   C67   T    
Cr6   O10   S    
C11   C13   S    
C5    C6    S    
C21   C40   S    
C76   H15   S    
C39   H23   S    
C40   O12   A    
C46   C53   S    
Cr5   O8    S    
Cr4   O6    S    
C61   C62   A    
C43   C46   T    
C1    O13   A    
C10   C11   T    
C62   H3    S    
C34   C55   A    
C47   O24   A    
C65   C66   A    
C1    C14   S    
Cr4   O24   S    
C8    C49   S    
Cr1   O18   S    
C88   H25   S    
C24   C71   S    
