data_mof_unit_4819.cif
_audit_creation_date              2013-03-05T15:45:48-0500
_audit_creation_method            fapswitch 2.2
_symmetry_space_group_name_H-M    P1
_symmetry_Int_Tables_number       1
_space_group_crystal_system       triclinic
_cell_length_a                    9.897615
_cell_length_b                    11.094657
_cell_length_c                    15.816326
_cell_angle_alpha                 96.62773
_cell_angle_beta                  80.607175
_cell_angle_gamma                 109.232247
_cell_volume                      1614.3375225

loop_
_atom_site_label
_atom_site_type_symbol
_atom_site_description
_atom_site_fract_x
_atom_site_fract_y
_atom_site_fract_z
_atom_type_partial_charge
O1    O     O_R   0.426810 0.668300 0.492040 -0.549339
O2    O     O_R   0.573190 0.331700 0.507960 -0.549288
O3    O     O_R   0.658240 0.703130 0.517240 -0.557139
O4    O     O_R   0.341760 0.296870 0.482760 -0.544134
C1    C     C_R   0.552755 0.743301 0.507389 0.773471
C2    C     C_R   0.446538 0.254881 0.494191 0.731139
O5    O     O_R   0.319390 0.472820 0.610170 -0.569803
O6    O     O_R   0.680610 0.527180 0.389830 -0.527725
O7    O     O_R   0.550820 0.507640 0.635370 -0.508285
O8    O     O_R   0.449180 0.492360 0.364630 -0.508163
C3    C     C_R   0.412536 0.483635 0.662886 0.883862
C4    C     C_R   0.586952 0.517796 0.337713 0.940590
Cu1   Cu    Cu3+1 0.362980 0.479380 0.485080 1.187290
Cu2   Cu    Cu3+1 0.637020 0.520620 0.514920 1.191666
C5    C     C_R   0.359308 0.450998 0.754204 -0.223675
C6    C     C_R   0.638357 0.531746 0.244813 -0.145682
C7    C     C_R   0.186049 0.310937 0.858231 0.355720
C8    C     C_R   0.837600 0.587368 0.128462 0.289508
C9    C     C_R   0.221115 0.363193 0.777724 0.216884
C10   C     C_R   0.786229 0.588773 0.216946 0.294840
C11   C     C_R   0.453125 0.497899 0.816854 0.424802
C12   C     C_R   0.539468 0.494001 0.184457 0.390895
C13   C     C_R   0.429546 0.431409 0.892966 -0.095690
C14   C     C_R   0.589776 0.479280 0.095886 -0.098985
C15   C     C_R   0.292006 0.339521 0.914825 -0.150554
C16   C     C_R   0.739901 0.530063 0.067876 -0.127905
C17   C     C_R   0.537894 0.452580 0.948086 -0.091137
C18   C     C_R   0.494253 0.418276 0.033790 -0.079755
C19   C     C_R   0.363413 0.317156 0.052132 0.229015
C20   C     C_R   0.688807 0.494528 0.920270 0.211516
C21   C     C_R   0.266565 0.273047 0.990173 0.413536
C22   C     C_R   0.788547 0.520976 0.979607 0.443601
C23   C     C_2   0.572174 0.879010 0.517974 0.208895
C24   C     C_2   0.424685 0.115578 0.488554 0.185397
C25   C     C_2   0.519516 0.933494 0.464126 0.293672
C26   C     C_2   0.538774 0.070445 0.480399 0.259112
N1    N     N_2   0.842890 0.551600 0.537350 -0.121769
N2    N     N_2   0.157110 0.448400 0.462650 -0.113493
C27   C     C_2   0.934189 0.506309 0.483156 0.377357
C28   C     C_2   0.086213 0.526923 0.498191 0.377147
O9    O     O_3   0.150817 0.161825 0.999713 -0.607267
H1    H     H_    0.172083 0.104909 0.035805 0.383981
O10   O     O_3   0.933358 0.538073 0.952235 -0.612555
H2    H     H_    0.944116 0.489935 0.896144 0.370502
O11   O     O_3   0.396514 0.482920 0.213012 -0.602902
H3    H     H_    0.354705 0.506049 0.166839 0.363362
O12   O     O_3   0.558164 0.614941 0.804886 -0.629167
H4    H     H_    0.581224 0.656506 0.862002 0.353865
O13   O     O_3   0.875401 0.653705 0.277664 -0.622794
H5    H     H_    0.969681 0.707141 0.249928 0.394944
O14   O     O_3   0.116267 0.328253 0.724032 -0.597708
H6    H     H_    0.106757 0.408523 0.708026 0.387548
N3    N     N_R   0.039637 0.233280 0.883001 0.207555
O15   O     O_R   0.976356 0.137006 0.832642 -0.197454
O16   O     O_R   0.964789 0.266601 0.951792 -0.263748
N4    N     N_R   0.988211 0.647694 0.100870 0.172337
O17   O     O_R   0.030570 0.755205 0.063838 -0.252445
O18   O     O_R   0.083589 0.599930 0.118146 -0.266222
N5    N     N_R   0.336113 0.249385 0.128628 0.139042
O19   O     O_R   0.435116 0.209440 0.149662 -0.280866
O20   O     O_R   0.210784 0.223965 0.176010 -0.216746
N6    N     N_R   0.744836 0.505798 0.832000 0.144425
O21   O     O_R   0.705889 0.408869 0.776545 -0.260531
O22   O     O_R   0.848740 0.609011 0.809891 -0.219707
N7    N     N_R   0.684124 0.150210 0.488739 0.155143
O23   O     O_R   0.788035 0.125692 0.435321 -0.224441
O24   O     O_R   0.713921 0.209508 0.562749 -0.226569
N8    N     N_R   0.472368 0.869519 0.383875 0.143552
O25   O     O_R   0.390118 0.909536 0.345406 -0.213244
O26   O     O_R   0.535793 0.791662 0.340285 -0.349951
O27   O     O_3   0.287231 0.028374 0.489095 -0.614328
H7    H     H_    0.215490 0.074827 0.499406 0.392775
O28   O     O_3   0.632486 0.949849 0.588431 -0.635778
H8    H     H_    0.657163 0.892919 0.623064 0.373211
N9    N     N_R   0.161111 0.650243 0.535407 0.121803
O29   O     O_R   0.155851 0.752268 0.504809 -0.265823
O30   O     O_R   0.203958 0.660404 0.610174 -0.297018
N10   N     N_R   0.903150 0.456133 0.397996 0.140931
O31   O     O_R   0.001875 0.494370 0.332891 -0.260895
O32   O     O_R   0.796661 0.352494 0.386614 -0.277950
N11   N     N_R   0.075620 0.320428 0.453184 0.245584
O33   O     O_R   0.091584 0.257982 0.379453 -0.177870
O34   O     O_R   0.022868 0.256359 0.521474 -0.240807
N12   N     N_R   0.875218 0.590935 0.619999 0.274325
O35   O     O_R   0.837078 0.685984 0.660300 -0.194906
O36   O     O_R   0.926675 0.523613 0.660445 -0.272585

loop_
_geom_bond_atom_site_label_1
_geom_bond_atom_site_label_2
_geom_bond_distance
_ccdc_geom_bond_type
C15   C21   1.417787 A    
C20   C22   1.410463 A    
C16   C22   1.403973 A    
O9    H1    0.989395 S    
C25   C26   1.464977 S    
C8    C16   1.419263 A    
O7    Cu2   1.956995 S    
N11   O33   1.300138 A    
O11   H3    0.991084 S    
C5    C9    1.413492 A    
N6    O21   1.301507 A    
O1    C1    1.293843 A    
C18   C19   1.419573 A    
C14   C16   1.418723 A    
N10   O32   1.296600 A    
N4    O17   1.301248 A    
O28   H8    0.991871 S    
O4    Cu1   1.962349 S    
N6    O22   1.300156 A    
C7    C9    1.404118 A    
C3    C5    1.497128 S    
C19   N5    1.439311 S    
N8    O25   1.300834 A    
N7    O24   1.302736 A    
C1    C23   1.446926 S    
C6    C12   1.409721 A    
N1    N12   1.383642 S    
C13   C17   1.434287 A    
C8    C10   1.408993 A    
C6    C10   1.407274 A    
N5    O19   1.301463 A    
Cu1   Cu2   2.709116 S    
C17   C20   1.419870 A    
O2    C2    1.299084 A    
N11   O34   1.301204 A    
N3    O16   1.301450 A    
N5    O20   1.301840 A    
O14   H6    0.990508 S    
C27   N10   1.437985 S    
C4    C6    1.482690 S    
N12   O35   1.299772 A    
O4    C2    1.313047 A    
C27   C28   1.500138 S    
N10   O31   1.301706 A    
N3    O15   1.301269 A    
C2    C24   1.482437 S    
O5    C3    1.309371 A    
N9    O29   1.300647 A    
C10   O13   1.385014 S    
O7    C3    1.313694 A    
O12   H4    0.991258 S    
O5    Cu1   1.959516 S    
O6    C4    1.309819 A    
N9    O30   1.300916 A    
Cu1   N2    2.035264 S    
O3    Cu2   1.962347 S    
O8    C4    1.305780 A    
C23   O28   1.386267 S    
O13   H5    0.988251 S    
C11   C13   1.430975 A    
N2    N11   1.387342 S    
C12   C14   1.417778 A    
O1    Cu1   1.975232 S    
C7    N3    1.437304 S    
O6    Cu2   1.959514 S    
C21   O9    1.383169 S    
C26   N7    1.437514 S    
C14   C18   1.429907 A    
N12   O36   1.301431 A    
O3    C1    1.299480 A    
O8    Cu1   1.956992 S    
C8    N4    1.434703 S    
C28   N9    1.433977 S    
C7    C15   1.422452 A    
C20   N6    1.419225 S    
O27   H7    0.990096 S    
N1    C27   1.323129 D    
Cu2   N1    2.035265 S    
N2    C28   1.314646 D    
C25   N8    1.449071 S    
O10   H2    0.990396 S    
C23   C25   1.354129 D    
C22   O10   1.383839 S    
N4    O18   1.301472 A    
C24   C26   1.361088 D    
C13   C15   1.423192 A    
O2    Cu2   1.975234 S    
C9    O14   1.376584 S    
C5    C11   1.406363 A    
C12   O11   1.382271 S    
C19   C21   1.416174 A    
N7    O23   1.301229 A    
C17   C18   1.410152 A    
N8    O26   1.301548 A    
C24   O27   1.384906 S    
C11   O12   1.380581 S    
