data_mof_unit_2922.cif
_audit_creation_date              2013-03-05T16:03:30-0500
_audit_creation_method            fapswitch 2.2
_symmetry_space_group_name_H-M    P1
_symmetry_Int_Tables_number       1
_space_group_crystal_system       triclinic
_cell_length_a                    8.458496
_cell_length_b                    15.007093
_cell_length_c                    23.019034
_cell_angle_alpha                 95.707797
_cell_angle_beta                  89.321412
_cell_angle_gamma                 92.114122
_cell_volume                      2905.4129102

loop_
_atom_site_label
_atom_site_type_symbol
_atom_site_description
_atom_site_fract_x
_atom_site_fract_y
_atom_site_fract_z
_atom_type_partial_charge
P1    P     P_3+3 0.074990 0.420800 0.372080 0.529434
O1    O     O_2   0.901900 0.448470 0.362340 -0.299738
O2    O     O_3   0.142240 0.449440 0.433360 -0.394854
O3    O     O_3   0.645560 0.619080 0.391970 -0.407932
O4    O     O_2   0.805825 0.559125 0.295688 -0.384508
O5    O     O_3   0.029982 0.305413 0.361129 -0.551028
O6    O     O_3   0.638042 0.693150 0.286430 -0.519559
H1    H     H_    0.590274 0.782393 0.357760 0.080033
C1    C     C_3   0.482328 0.816788 0.279309 0.207617
H2    H     H_    0.590673 0.855499 0.268220 0.048099
H3    H     H_    0.433006 0.782383 0.238148 0.169908
P2    P     P_3+3 0.618830 0.715330 0.538180 0.490805
P3    P     P_3+3 0.079835 0.784910 0.422208 0.530378
O7    O     O_2   0.793170 0.729090 0.520590 -0.305632
O8    O     O_3   0.052800 0.667320 0.419180 -0.338994
O9    O     O_2   0.960765 0.826111 0.467343 -0.364008
O10   O     O_3   0.644564 0.738080 0.613761 -0.558797
O11   O     O_3   0.025511 0.835288 0.359350 -0.594044
C2    C     C_3   0.007463 0.772758 0.309977 0.890768
H4    H     H_    0.923517 0.718647 0.321757 0.080773
C3    C     C_3   0.934913 0.820244 0.259549 0.059332
H5    H     H_    0.845185 0.865502 0.280353 0.080022
C4    C     C_3   0.013615 0.743540 0.624711 0.904157
H6    H     H_    0.917456 0.697508 0.606992 0.072425
C5    C     C_3   0.952291 0.789815 0.682619 0.088938
H7    H     H_    0.055536 0.814071 0.710313 0.045099
H8    H     H_    0.881616 0.739235 0.704519 0.099681
Ba1   Ba    Ba6+2 0.846250 0.544220 0.470860 1.643288
C6    C     C_3   0.066258 0.260302 0.408999 0.452255
H9    H     H_    0.033905 0.298826 0.450741 0.088906
H10   H     H_    0.193539 0.249349 0.408718 0.145612
C7    C     C_3   0.972836 0.170070 0.404455 -0.936230
H11   H     H_    0.847966 0.183919 0.408357 0.218013
H12   H     H_    0.999233 0.132370 0.441505 0.204235
C8    C     C_3   0.516080 0.702766 0.643596 0.293463
H13   H     H_    0.543506 0.634581 0.654088 0.138244
H14   H     H_    0.409931 0.699247 0.616599 0.096002
C9    C     C_3   0.482913 0.762412 0.699985 0.054813
H15   H     H_    0.354666 0.757359 0.711574 0.092176
H16   H     H_    0.506259 0.833595 0.692211 0.134543
P4    P     P_3+3 0.114710 0.579280 0.627920 0.481647
O12   O     O_2   0.287790 0.551560 0.637690 -0.368162
O13   O     O_3   0.047460 0.550640 0.566640 -0.369786
O14   O     O_3   0.544140 0.380990 0.608030 -0.387804
O15   O     O_3   0.149346 0.695936 0.634084 -0.691130
P5    P     P_3+3 0.096307 0.218448 0.590306 0.453673
O16   O     O_3   0.640350 0.387150 0.474440 -0.379811
O17   O     O_3   0.136890 0.332750 0.580830 -0.338270
O18   O     O_2   0.251060 0.168795 0.575813 -0.384879
O19   O     O_3   0.072795 0.209203 0.665209 -0.645741
Ba2   Ba    Ba6+2 0.343570 0.455860 0.529140 1.640463
P6    P     P_3+3 0.640845 0.591136 0.315340 0.510677
C10   C     C_3   0.531054 0.747894 0.318408 0.224459
H17   H     H_    0.423430 0.710438 0.332156 0.113453
O20   O     O_3   0.549340 0.612930 0.525560 -0.427877
C11   C     C_3   0.563577 0.258274 0.334548 1.664085
C12   C     C_3   0.608486 0.178496 0.288060 -1.185998
H18   H     H_    0.531216 0.120136 0.293402 0.266936
H19   H     H_    0.595558 0.191343 0.241782 0.229413
H20   H     H_    0.731714 0.159070 0.294247 0.277665
P7    P     P_3+3 0.576653 0.271004 0.460072 0.516966
O21   O     O_2   0.396530 0.270940 0.479440 -0.372269
O22   O     O_3   0.597835 0.221266 0.387072 -0.638961
C13   C     C_3   0.155911 0.280176 0.696818 0.303389
H21   H     H_    0.275580 0.289301 0.677965 0.182804
H22   H     H_    0.090007 0.342859 0.696482 0.082375
C14   C     C_3   0.174006 0.258478 0.759616 0.101052
H23   H     H_    0.054366 0.249830 0.779264 0.092969
H24   H     H_    0.236741 0.194258 0.758742 0.097332
P8    P     P_3+3 0.558278 0.404252 0.685614 0.484405
C15   C     C_3   0.701755 0.259517 0.698773 0.203366
H25   H     H_    0.798571 0.297118 0.723769 0.020719
O23   O     O_2   0.396705 0.441550 0.706318 -0.353309
O24   O     O_3   0.556953 0.299743 0.713487 -0.512257
H26   H     H_    0.728979 0.259498 0.651348 0.064388
H27   H     H_    0.825057 0.145502 0.720027 -0.040613
C16   C     C_3   0.698775 0.162105 0.714676 0.899770
H28   H     H_    0.928820 0.280690 0.054939 0.168698
H29   H     H_    0.849020 0.286458 0.954223 0.156402
C17   C     C_R   0.344380 0.505195 0.325628 -0.367775
C18   C     C_R   0.179027 0.530316 0.931439 -0.290967
C19   C     C_R   0.145789 0.524162 0.870741 0.624364
O25   O     O_2   0.238646 0.559671 0.838649 -0.523013
N1    N     N_R   0.013194 0.475689 0.847612 -0.148547
C20   C     C_R   0.949616 0.409175 0.880563 0.539877
O26   O     O_2   0.858168 0.351376 0.858280 -0.643358
C21   C     C_R   0.994753 0.404550 0.939563 -0.018241
C22   C     C_R   0.104177 0.468450 0.965818 -0.074946
C23   C     C_R   0.285288 0.596574 0.958713 0.665055
C24   C     C_R   0.314972 0.599219 0.018878 -0.281010
C25   C     C_R   0.245149 0.535355 0.052929 -0.085474
C26   C     C_R   0.144130 0.467882 0.025902 -0.007959
C27   C     C_R   0.932604 0.337382 0.973058 -0.151107
C28   C     C_R   0.978286 0.334138 0.031233 -0.133600
C29   C     C_R   0.083904 0.399580 0.058657 -0.042772
C30   C     C_R   0.133259 0.397321 0.117486 0.560424
N2    N     N_R   0.228383 0.466415 0.145028 -0.152960
C31   C     C_R   0.275124 0.537773 0.113422 0.568223
C32   C     C_2   0.791432 0.466632 0.775206 -0.275824
C33   C     C_3   0.725327 0.484981 0.716478 0.100270
C34   C     C_1   0.993744 0.535179 0.688981 -0.014357
C35   C     C_2   0.029243 0.550636 0.746097 0.635989
C36   C     C_2   0.944688 0.492655 0.790060 -0.048300
C37   C     C_R   0.434453 0.495283 0.224929 -0.202065
C38   C     C_R   0.463956 0.520992 0.285219 0.086103
C39   C     C_R   0.199771 0.462970 0.310767 0.167372
C40   C     C_R   0.163294 0.446748 0.250695 -0.305366
C41   C     C_R   0.276766 0.466366 0.206625 0.100743
O27   O     O_2   0.092848 0.333181 0.143615 -0.603712
O28   O     O_2   0.342160 0.604337 0.137958 -0.619036
C42   C     C_2   0.860260 0.489954 0.673776 -0.488597
H30   H     H_    0.396905 0.650429 0.038502 0.184903
H31   H     H_    0.708948 0.439538 0.805697 0.226555
H32   H     H_    0.046075 0.421273 0.238648 0.180772
C43   C     C_R   0.694655 0.939606 0.531589 -0.109587
C44   C     C_R   0.511805 0.803181 0.504403 0.160533
C45   C     C_R   0.365278 0.772238 0.481633 -0.399058
C46   C     C_R   0.274154 0.825291 0.450654 0.331414
C47   C     C_R   0.323032 0.912581 0.445436 -0.250393
C48   C     C_R   0.460430 0.951976 0.473857 -0.028755
C49   C     C_R   0.558915 0.897232 0.503566 -0.032044
H33   H     H_    0.318473 0.707081 0.490393 0.211607
C50   C     C_R   0.629832 0.089468 0.501810 -0.092439
C51   C     C_R   0.732361 0.033419 0.530159 0.099250
C52   C     C_R   0.671556 0.185249 0.502847 0.203604
C53   C     C_R   0.814428 0.216669 0.527807 -0.449533
C54   C     C_R   0.916116 0.162920 0.554263 0.297670
C55   C     C_R   0.873357 0.071683 0.556719 -0.196872
C56   C     C_R   0.494312 0.045658 0.473635 -0.086648
H34   H     H_    0.245629 0.949977 0.420694 0.182163
H35   H     H_    0.951003 0.030348 0.578728 0.155162
H36   H     H_    0.854060 0.283284 0.521450 0.199946
H37   H     H_    0.771673 0.900102 0.555109 0.216633
O29   O     O_3   0.854043 0.860409 0.671905 -0.556679
C57   C     C_3   0.830552 0.915970 0.724074 -0.147626
H38   H     H_    0.937934 0.959269 0.734550 0.101591
H39   H     H_    0.798239 0.877039 0.761472 0.148881
H40   H     H_    0.731143 0.959844 0.717638 0.189686
C58   C     C_2   0.990506 0.108958 0.348984 1.193801
O30   O     O_2   0.056291 0.135110 0.306118 -0.599948
O31   O     O_R   0.924157 0.022000 0.345299 -0.764335
H41   H     H_    0.868413 0.007536 0.382625 0.299091
O32   O     O_3   0.582794 0.741596 0.745264 -0.642700
C59   C     C_3   0.503072 0.682159 0.780426 -0.063112
H42   H     H_    0.460384 0.619904 0.754158 0.176061
H43   H     H_    0.402710 0.715314 0.804310 0.190117
H44   H     H_    0.586123 0.662663 0.813442 0.149384
O33   O     O_3   0.366562 0.870372 0.307847 -0.587643
C60   C     C_3   0.384791 0.957123 0.291020 -0.120224
H45   H     H_    0.493210 0.987806 0.312064 0.176073
H46   H     H_    0.279602 0.994806 0.305924 0.224144
H47   H     H_    0.394096 0.958229 0.242823 0.114189
O34   O     O_3   0.400023 0.278466 0.334498 -0.683500
C61   C     C_3   0.329612 0.263611 0.278503 -0.290870
H48   H     H_    0.320650 0.191505 0.262424 0.198531
H49   H     H_    0.389332 0.303227 0.246249 0.150131
H50   H     H_    0.206433 0.284100 0.280999 0.242809
O35   O     O_3   0.658519 0.338014 0.330190 -0.611309
C62   C     C_3   0.724752 0.344344 0.273501 -0.201570
H51   H     H_    0.636146 0.335685 0.238421 0.093376
H52   H     H_    0.823486 0.297923 0.264835 0.183641
H53   H     H_    0.776709 0.410743 0.269807 0.204189
O36   O     O_3   0.859599 0.754920 0.219137 -0.594869
C63   C     C_3   0.783534 0.793497 0.173719 -0.084246
H54   H     H_    0.864483 0.794234 0.135437 0.139156
H55   H     H_    0.743970 0.862728 0.186268 0.073473
H56   H     H_    0.677675 0.750991 0.160164 0.189880
O37   O     O_3   0.258951 0.329558 0.791501 -0.553757
C64   C     C_3   0.305614 0.302358 0.845418 -0.075104
H57   H     H_    0.358787 0.361238 0.872133 0.153921
H58   H     H_    0.397193 0.251029 0.838821 0.171275
H59   H     H_    0.203115 0.276457 0.870301 0.089590
O38   O     O_3   0.644329 0.101715 0.666952 -0.683716
C65   C     C_3   0.478342 0.088549 0.666622 -0.078474
H60   H     H_    0.443588 0.051792 0.624220 0.151827
H61   H     H_    0.417340 0.152962 0.671028 0.174497
H62   H     H_    0.438912 0.046397 0.701517 0.128456
O39   O     O_3   0.607224 0.153694 0.766413 -0.623174
C66   C     C_3   0.703520 0.136481 0.813348 -0.334391
H63   H     H_    0.799991 0.188353 0.821035 0.185076
H64   H     H_    0.753823 0.069002 0.805467 0.123985
H65   H     H_    0.629710 0.137849 0.853550 0.183596
C67   C     C_2   0.565372 0.494761 0.181184 1.055544
O40   O     O_2   0.670007 0.553324 0.184706 -0.574567
O41   O     O_R   0.566931 0.426963 0.134889 -0.831021
H66   H     H_    0.660981 0.433435 0.107711 0.321362
O42   O     O_3   0.362834 0.658240 0.926539 -0.595393
C68   C     C_3   0.290857 0.741553 0.937899 -0.247932
H67   H     H_    0.161415 0.735749 0.929339 0.124203
H68   H     H_    0.343738 0.788505 0.908175 0.165450
H69   H     H_    0.313125 0.771218 0.983401 0.135457
O43   O     O_3   0.091826 0.635980 0.764125 -0.609854
C69   C     C_3   0.987315 0.683625 0.803332 -0.293413
H70   H     H_    0.995163 0.663378 0.848058 0.157427
H71   H     H_    0.862331 0.675561 0.788870 0.145327
H72   H     H_    0.021630 0.755915 0.805990 0.153759
C70   C     C_2   0.378641 0.527451 0.385882 1.103090
O44   O     O_2   0.327230 0.594569 0.412285 -0.667637
O45   O     O_R   0.480108 0.473914 0.411440 -0.708847
H73   H     H_    0.523608 0.507572 0.447726 0.383404
O46   O     O_3   0.157093 0.740130 0.293856 -0.646904
C71   C     C_3   0.144230 0.661059 0.256288 -0.186573
H74   H     H_    0.094527 0.671256 0.213311 0.235462
H75   H     H_    0.075585 0.609056 0.277125 0.162108
H76   H     H_    0.265167 0.638904 0.247538 0.179621
C72   C     C_2   0.817644 0.470762 0.613729 1.130708
O47   O     O_2   0.868537 0.405962 0.584987 -0.653570
O48   O     O_R   0.712344 0.525247 0.590704 -0.782515
H77   H     H_    0.667889 0.493775 0.553784 0.386844
C73   C     C_2   0.377849 0.093941 0.444530 1.065965
O49   O     O_2   0.255242 0.113329 0.469788 -0.661970
O50   O     O_R   0.391715 0.098669 0.385100 -0.841140
H78   H     H_    0.298268 0.125978 0.368039 0.315239
C74   C     C_2   0.056343 0.876041 0.228617 1.071229
O51   O     O_2   0.047273 0.957477 0.232301 -0.627372
O52   O     O_R   0.169088 0.833831 0.191615 -0.787421
H79   H     H_    0.235077 0.877525 0.169752 0.302406
O53   O     O_3   0.046443 0.805777 0.583031 -0.576002
C75   C     C_3   0.171018 0.868064 0.600359 -0.203650
H80   H     H_    0.190719 0.913179 0.565461 0.165862
H81   H     H_    0.283621 0.834601 0.605996 0.100659
H82   H     H_    0.141003 0.911653 0.640446 0.133223

loop_
_geom_bond_atom_site_label_1
_geom_bond_atom_site_label_2
_geom_bond_distance
_ccdc_geom_bond_type
C14   O37   1.411745 S    
C57   H40   1.107116 S    
C32   C36   1.377114 D    
C21   C22   1.404987 A    
Ba1   O16   2.885925 S    
C53   C54   1.386578 A    
C4    O15   1.404296 S    
C43   C49   1.421562 A    
C15   C16   1.541176 S    
O19   C13   1.400290 S    
C9    O32   1.415187 S    
C29   C30   1.425767 A    
C24   H30   1.083521 S    
C67   O40   1.221648 D    
N2    C31   1.396173 Am   
C12   H18   1.089335 S    
C57   H38   1.111691 S    
C10   H17   1.111593 S    
C44   C45   1.396773 A    
P5    O18   1.546656 D    
C34   C35   1.347643 D    
C71   H75   1.100311 S    
P3    O11   1.770662 S    
O3    P6    1.772644 S    
C68   H69   1.111975 S    
C31   O28   1.221461 D    
C63   H54   1.110196 S    
C2    C3    1.563839 S    
O6    P6    1.730002 S    
H29   C27   1.083202 S    
C6    C7    1.537485 S    
C60   H46   1.104744 S    
C62   H51   1.103145 S    
C9    H15   1.115685 S    
Ba1   Ba2   4.706641 S    
C74   O52   1.397915 S    
C12   H19   1.108653 S    
C39   C40   1.415688 A    
O32   C59   1.411309 S    
C17   C39   1.387205 A    
C2    O46   1.406339 S    
C47   H34   1.080502 S    
C11   C12   1.578566 S    
C68   H68   1.109097 S    
P1    O1    1.561211 D    
P4    O12   1.561493 D    
P7    O22   1.779390 S    
C46   C47   1.375335 A    
C11   O35   1.427604 S    
C27   C28   1.404136 A    
C65   H60   1.109558 S    
N2    C41   1.480509 S    
C73   O49   1.213481 D    
O17   Ba2   2.834608 S    
O41   H66   1.014032 S    
O36   C63   1.416316 S    
O48   H77   1.000665 S    
C69   H71   1.110842 S    
C71   H76   1.097464 S    
P2    O10   1.753901 S    
P8    O24   1.752219 S    
P1    Ba1   3.415661 S    
C35   O43   1.393634 S    
C4    H6    1.102490 S    
C62   H52   1.110811 S    
O4    P6    1.540797 D    
O14   P8    1.789853 S    
C23   O42   1.383896 S    
C1    H2    1.107781 S    
C61   H49   1.103021 S    
P7    O21   1.582375 D    
O12   Ba2   2.799477 S    
C51   C55   1.422247 A    
C66   H65   1.109069 S    
C18   C23   1.419153 A    
C37   C41   1.441909 A    
C4    O53   1.422240 S    
O45   H73   0.998904 S    
C9    H16   1.110780 S    
O38   C65   1.410596 S    
C3    H5    1.109678 S    
C50   C56   1.429706 A    
P4    O13   1.542234 S    
C35   C36   1.550749 S    
Ba2   O21   2.942587 S    
C59   H44   1.108481 S    
C37   C38   1.425395 A    
O3    Ba1   2.839191 S    
Ba1   O20   2.968800 S    
P8    C33   1.922325 S    
P3    C46   1.835934 S    
C20   C21   1.424103 A    
P5    O17   1.771156 S    
C11   O22   1.417028 S    
C71   H74   1.106147 S    
C45   C46   1.381211 A    
C14   H23   1.112039 S    
C18   C22   1.407130 A    
C13   C14   1.523685 S    
O39   C66   1.410428 S    
P5    C54   1.872038 S    
C50   C51   1.435921 A    
C8    C9    1.530870 S    
N1    C20   1.400791 Am   
C61   H50   1.096411 S    
C59   H43   1.111822 S    
C44   C49   1.454317 A    
C60   H47   1.113017 S    
C25   C26   1.402114 A    
O2    Ba2   2.793718 S    
C74   O51   1.221810 D    
O11   C2    1.406051 S    
C12   H20   1.107205 S    
O16   Ba2   2.967861 S    
C43   H37   1.081517 S    
C5    H7    1.115858 S    
C20   O26   1.218683 D    
C17   C38   1.395832 A    
C26   C29   1.408807 A    
C18   C19   1.421773 A    
C48   C56   1.424899 A    
C68   H67   1.113478 S    
P1    O2    1.542236 S    
C8    H13   1.107785 S    
C7    H12   1.098688 S    
C45   H33   1.078092 S    
C40   H32   1.078695 S    
C32   H31   1.081174 S    
C6    H9    1.107847 S    
C75   H81   1.107867 S    
C67   O41   1.398578 S    
C32   C33   1.522920 S    
C42   C72   1.431221 S    
C53   H36   1.066020 S    
C40   C41   1.432654 A    
C69   H72   1.108569 S    
C30   N2    1.394374 Am   
O5    C6    1.392277 S    
P8    O23   1.547952 D    
C62   H53   1.084867 S    
C28   C29   1.409406 A    
C3    O36   1.420835 S    
C64   H57   1.109233 S    
C22   C26   1.428567 A    
H27   C16   1.116720 S    
C47   C48   1.420771 A    
C5    O29   1.412642 S    
C1    H3    1.111078 S    
C65   H62   1.111654 S    
C61   H48   1.108433 S    
C7    C58   1.505502 S    
O14   Ba2   2.838635 S    
O37   C64   1.409624 S    
P2    Ba1   3.492561 S    
P6    C38   1.894913 S    
C69   H70   1.105449 S    
C73   O50   1.380274 S    
P3    O8    1.765619 S    
O35   C62   1.424490 S    
C64   H59   1.112876 S    
C1    C10   1.508031 S    
O6    C10   1.398036 S    
C24   C25   1.406568 A    
C54   C55   1.409650 A    
C23   C24   1.406867 A    
C55   H35   1.083172 S    
C75   H80   1.108207 S    
C48   C49   1.418564 A    
C64   H58   1.111044 S    
C57   H39   1.113459 S    
P5    O19   1.751868 S    
O2    Ba1   3.000629 S    
C16   O38   1.422471 S    
C43   C51   1.435511 A    
C1    O33   1.405287 S    
C8    H14   1.094685 S    
C72   O47   1.210322 D    
C63   H56   1.109462 S    
P2    O7    1.536626 D    
C11   O34   1.427135 S    
H1    C10   1.112587 S    
O16   P7    1.805006 S    
C15   O24   1.408319 S    
O1    Ba1   2.799025 S    
C58   O30   1.218694 D    
O29   C57   1.408630 S    
P2    C44   1.863014 S    
C34   C42   1.327978 D    
C30   O27   1.221121 D    
P1    C39   1.897248 S    
Ba1   O13   2.793091 S    
C19   N1    1.395511 Am   
C16   O39   1.426453 S    
O46   C71   1.398684 S    
C59   H42   1.112095 S    
O7    Ba1   2.942293 S    
O43   C69   1.416554 S    
C2    H4    1.110783 S    
C70   O45   1.372995 S    
O34   C61   1.420225 S    
O42   C68   1.410533 S    
C6    H10   1.094902 S    
O31   H41   1.013708 S    
C7    H11   1.084934 S    
C75   H82   1.109292 S    
C15   H26   1.113005 S    
C58   O31   1.396503 S    
O13   Ba2   3.001490 S    
O53   C75   1.416437 S    
C52   C53   1.390459 A    
H28   C28   1.083093 S    
C17   C70   1.424593 S    
C21   C27   1.411659 A    
C13   H21   1.105828 S    
C63   H55   1.112892 S    
P4    C34   1.887203 S    
Ba2   O20   2.885295 S    
O33   C60   1.397425 S    
C4    C5    1.534355 S    
C25   C31   1.415015 A    
C70   O44   1.215459 D    
C65   H61   1.107700 S    
P2    O20   1.624809 S    
C50   C52   1.465324 A    
C66   H63   1.110095 S    
O8    Ba1   2.833750 S    
O52   H79   1.013308 S    
C15   H25   1.110229 S    
C37   C67   1.487604 S    
O50   H78   1.005109 S    
C33   C42   1.502045 S    
C19   O25   1.216673 D    
P3    O9    1.539312 D    
P1    O5    1.753229 S    
N1    C36   1.500614 S    
P4    O15   1.756281 S    
C3    C74   1.516878 S    
P7    C52   1.901858 S    
O10   C8    1.394939 S    
C14   H24   1.115544 S    
C56   C73   1.452307 S    
C60   H45   1.105744 S    
C72   O48   1.376195 S    
P4    Ba2   3.416247 S    
C13   H22   1.111738 S    
C66   H64   1.110348 S    
C5    H8    1.105980 S    
