data_mof_unit_4181.cif
_audit_creation_date              2012-12-11T15:34:23-0500
_audit_creation_method            fapswitch 2.2
_symmetry_space_group_name_H-M    P1
_symmetry_Int_Tables_number       1
_space_group_crystal_system       triclinic
_cell_length_a                    15.04242
_cell_length_b                    15.034343
_cell_length_c                    34.957207
_cell_angle_alpha                 90.566457
_cell_angle_beta                  89.523632
_cell_angle_gamma                 60.193955
_cell_volume                      6858.7235685

loop_
_atom_site_label
_atom_site_type_symbol
_atom_type_description
_atom_site_fract_x
_atom_site_fract_y
_atom_site_fract_z
_atom_type_partial_charge
C1    C     C_R   0.302926 0.608029 0.556135 0.592682
C2    C     C_R   0.624460 0.662453 0.671517 -0.025115
C3    C     C_R   0.270250 0.664361 0.265392 0.153290
C4    C     C_R   0.206298 0.641780 0.288449 0.002596
C5    C     C_R   0.134913 0.620389 0.271683 -0.159263
C6    C     C_R   0.123392 0.624594 0.232401 -0.167303
C7    C     C_R   0.182758 0.650733 0.209141 0.014621
C8    C     C_R   0.240861 0.547725 0.349143 -0.127494
C9    C     C_R   0.259664 0.541161 0.388161 -0.122260
C10   C     C_R   0.216014 0.719820 0.390040 -0.132947
C11   C     C_R   0.195814 0.726552 0.351050 -0.111592
C12   C     C_R   0.213357 0.639121 0.330209 0.029562
C13   C     C_R   0.664428 0.699098 0.643212 -0.130532
C14   C     C_R   0.252335 0.625777 0.408537 0.022026
C15   C     C_R   0.735792 0.026956 0.943816 0.542146
C16   C     C_R   0.747133 0.722573 0.944802 0.551060
C17   C     C_R   0.039091 0.733382 0.948136 0.574583
C18   C     C_R   0.722965 0.038067 0.053124 0.542417
C19   C     C_R   0.733192 0.734585 0.054941 0.534616
C20   C     C_R   0.027850 0.744796 0.057728 0.546527
C21   C     C_R   0.660977 0.676153 0.604462 0.067808
C22   C     C_R   0.656077 0.700664 0.787824 0.334815
C23   C     C_R   0.630072 0.683459 0.712266 0.345907
C24   C     C_R   0.779886 0.634774 0.841417 0.117170
C25   C     C_R   0.800873 0.636628 0.880584 0.232660
C26   C     C_R   0.618212 0.755088 0.893400 0.181335
C27   C     C_R   0.599393 0.754069 0.854497 -0.107994
C28   C     C_R   0.679330 0.697638 0.828411 -0.039449
C29   C     C_R   0.610494 0.589067 0.554793 0.617604
C30   C     C_R   0.720429 0.700828 0.906486 0.016164
C31   C     C_R   0.720941 0.083167 0.908040 -0.015866
C32   C     C_R   0.623011 0.140658 0.892718 -0.140795
C33   C     C_R   0.611607 0.176688 0.855539 -0.145727
C34   C     C_R   0.697910 0.154140 0.832831 0.054854
C35   C     C_R   0.796584 0.104206 0.849179 0.160573
C36   C     C_R   0.806592 0.069420 0.886800 -0.100538
C37   C     C_R   0.705449 0.240930 0.772964 0.124325
C38   C     C_R   0.698667 0.249893 0.733173 -0.129258
C39   C     C_R   0.666792 0.192430 0.711438 -0.025453
C40   C     C_R   0.589539 0.301340 0.553857 0.570035
C41   C     C_R   0.642836 0.124318 0.729554 -0.091652
C42   C     C_R   0.651770 0.111207 0.769382 0.118792
C43   C     C_R   0.683974 0.170082 0.791154 0.049769
C44   C     C_R   0.564236 0.221234 0.652749 -0.143385
C45   C     C_R   0.547954 0.243198 0.614066 -0.161909
C46   C     C_R   0.716372 0.227897 0.607832 0.150278
C47   C     C_R   0.730974 0.207610 0.647072 -0.106864
C48   C     C_R   0.654370 0.206432 0.669767 0.001146
C49   C     C_R   0.621366 0.251185 0.591422 0.053379
C50   C     C_R   0.094530 0.693628 0.910748 0.078404
C51   C     C_R   0.300866 0.609728 0.446008 0.532354
C52   C     C_R   0.107905 0.759693 0.885495 0.087499
C53   C     C_R   0.127549 0.733637 0.846587 -0.115812
C54   C     C_R   0.137808 0.641824 0.832447 -0.038072
C55   C     C_R   0.138346 0.570489 0.857801 -0.134980
C56   C     C_R   0.117617 0.595064 0.897070 0.224161
C57   C     C_R   0.239712 0.549556 0.774707 -0.096658
C58   C     C_R   0.255875 0.542225 0.734963 0.171164
C59   C     C_R   0.175093 0.608569 0.711094 0.044230
C60   C     C_R   0.078680 0.676361 0.726977 -0.076023
C61   C     C_R   0.062839 0.684968 0.766725 0.151453
C62   C     C_R   0.608536 0.590008 0.445478 0.536087
C63   C     C_R   0.145507 0.622933 0.790786 0.001211
C64   C     C_R   0.236075 0.681719 0.660912 0.226353
C65   C     C_R   0.268702 0.681184 0.622751 0.211902
C66   C     C_R   0.196834 0.572549 0.603365 0.084576
C67   C     C_R   0.172540 0.567940 0.642087 -0.167253
C68   C     C_R   0.194736 0.619405 0.670528 -0.006079
C69   C     C_R   0.250506 0.625171 0.593992 0.031483
C70   C     C_R   0.693088 0.718030 0.091601 0.025699
C71   C     C_R   0.597852 0.792220 0.108281 0.140877
C72   C     C_R   0.575771 0.779950 0.146637 -0.100945
C73   C     C_R   0.589119 0.301206 0.443990 0.548300
C74   C     C_R   0.646034 0.696200 0.167969 -0.008438
C75   C     C_R   0.736861 0.621365 0.150494 -0.128072
C76   C     C_R   0.759349 0.631297 0.112793 -0.155104
C77   C     C_R   0.647173 0.599230 0.226851 0.160906
C78   C     C_R   0.650202 0.593935 0.267052 -0.068408
C79   C     C_R   0.636512 0.677468 0.289647 -0.021227
C80   C     C_R   0.613891 0.769582 0.272332 -0.143623
C81   C     C_R   0.611232 0.776251 0.232621 -0.146834
C82   C     C_R   0.630532 0.691156 0.209572 0.030765
C83   C     C_R   0.556595 0.735169 0.353801 -0.150983
C84   C     C_R   0.619152 0.613927 0.594384 0.116173
C85   C     C_R   0.549076 0.714382 0.392043 -0.144307
C86   C     C_R   0.717622 0.563545 0.387594 -0.057354
C87   C     C_R   0.726772 0.584324 0.349363 0.245296
C88   C     C_R   0.642506 0.667892 0.331612 0.017684
C89   C     C_R   0.627375 0.625596 0.408730 -0.028042
C90   C     C_R   0.699632 0.095781 0.089534 -0.028227
C91   C     C_R   0.773112 0.114336 0.106582 -0.062472
C92   C     C_R   0.762328 0.146873 0.144756 0.235049
C93   C     C_R   0.676543 0.159362 0.166502 0.015549
C94   C     C_R   0.599651 0.148348 0.148396 -0.147888
C95   C     C_R   0.580578 0.575519 0.622609 0.219623
C96   C     C_R   0.610419 0.118096 0.110199 -0.149151
C97   C     C_R   0.584809 0.245902 0.228262 0.139912
C98   C     C_R   0.583473 0.245938 0.268500 -0.083676
C99   C     C_R   0.665996 0.170132 0.288729 0.028948
C100  C     C_R   0.751007 0.093166 0.269008 -0.085381
C101  C     C_R   0.754015 0.092338 0.229267 -0.145811
C102  C     C_R   0.672352 0.168628 0.208636 0.010764
C103  C     C_R   0.734656 0.194795 0.349727 0.223644
C104  C     C_R   0.716685 0.228140 0.388550 0.117572
C105  C     C_R   0.564799 0.209534 0.389478 -0.114742
C106  C     C_R   0.583192 0.600555 0.660987 -0.143506
C107  C     C_R   0.581998 0.176320 0.351538 0.184112
C108  C     C_R   0.663356 0.175740 0.330814 0.026573
C109  C     C_R   0.627077 0.241620 0.407654 -0.042079
C110  C     C_R   0.084872 0.710366 0.093641 0.041961
C111  C     C_R   0.117179 0.611988 0.108700 0.131771
C112  C     C_R   0.152539 0.591703 0.146309 -0.126269
C113  C     C_R   0.158517 0.666788 0.168382 0.019653
C114  C     C_R   0.133193 0.761083 0.152454 -0.102296
C115  C     C_R   0.097346 0.782474 0.115438 -0.160440
C116  C     C_R   0.258015 0.669198 0.225300 0.176160
Cr1   Cr    Cr6+3 0.421670 0.426920 0.499620 1.029276
Cr2   Cr    Cr6+3 0.427030 0.651190 0.500980 1.047011
Cr3   Cr    Cr6+3 0.651280 0.421870 0.499380 1.060255
Cr4   Cr    Cr6+3 0.910810 0.908010 0.001130 1.017608
Cr5   Cr    Cr6+3 0.682800 0.909890 0.998370 1.040635
Cr6   Cr    Cr6+3 0.908370 0.682300 0.002180 1.091898
H1    H     H_    0.882568 0.024280 0.898347 0.152839
H2    H     H_    0.802198 0.192975 0.659945 0.099567
H3    H     H_    0.715263 0.304276 0.719300 0.108827
H4    H     H_    0.535712 0.215996 0.843423 0.132914
H5    H     H_    0.619446 0.080165 0.712003 0.112277
H6    H     H_    0.503984 0.220838 0.669812 0.121172
H7    H     H_    0.474657 0.260216 0.602520 0.143327
H8    H     H_    0.136619 0.524248 0.650740 0.123077
H9    H     H_    0.302093 0.500874 0.793276 0.119980
H10   H     H_    0.132938 0.786331 0.827046 0.131563
H11   H     H_    0.016742 0.725371 0.708316 0.120993
H12   H     H_    0.150442 0.497647 0.846742 0.102705
H13   H     H_    0.832515 0.573133 0.101055 0.148199
H14   H     H_    0.663627 0.524985 0.281362 0.141405
H15   H     H_    0.504852 0.835734 0.160484 0.106423
H16   H     H_    0.601519 0.835219 0.289522 0.124951
H17   H     H_    0.554509 0.569970 0.682643 0.113894
H18   H     H_    0.598951 0.846710 0.219785 0.115550
H19   H     H_    0.492051 0.799978 0.340831 0.115301
H20   H     H_    0.478819 0.764184 0.407708 0.138439
H21   H     H_    0.793127 0.557074 0.166614 0.150973
H22   H     H_    0.779844 0.495870 0.400186 0.154309
H23   H     H_    0.841777 0.098956 0.090831 0.151296
H24   H     H_    0.552250 0.104766 0.097793 0.146265
H25   H     H_    0.519411 0.305499 0.284605 0.126382
H26   H     H_    0.697202 0.746481 0.651083 0.134250
H27   H     H_    0.814791 0.033834 0.284412 0.143417
H28   H     H_    0.819870 0.031052 0.214423 0.141152
H29   H     H_    0.534123 0.156475 0.164523 0.143633
H30   H     H_    0.498247 0.215455 0.404122 0.171042
H31   H     H_    0.073919 0.858259 0.104759 0.146507
H32   H     H_    0.170466 0.798709 0.336824 0.117907
H33   H     H_    0.174160 0.517853 0.158562 0.097973
H34   H     H_    0.086414 0.602367 0.289237 0.132656
H35   H     H_    0.065102 0.611078 0.220179 0.125384
H36   H     H_    0.252981 0.480117 0.333348 0.120765
H37   H     H_    0.287241 0.467648 0.401635 0.140209
H38   H     H_    0.136292 0.820274 0.169343 0.144235
H39   H     H_    0.208711 0.786415 0.405158 0.123432
H40   H     H_    0.521494 0.798592 0.844482 0.157918
H41   H     H_    0.555688 0.153315 0.908759 0.143598
N1    N     N_R   0.587808 0.672957 0.775873 -0.245938
N2    N     N_R   0.575240 0.664314 0.738709 -0.243419
N3    N     N_R   0.695745 0.714632 0.724350 -0.250019
N4    N     N_R   0.708526 0.723000 0.761519 -0.245163
O1    O     O_R   0.502070 0.323090 0.541280 -0.524793
O2    O     O_R   0.520720 0.641670 0.461580 -0.510151
O3    O     O_R   0.674120 0.502090 0.457500 -0.514273
O4    O     O_R   0.640110 0.338380 0.459630 -0.462205
O5    O     O_3   0.499990 0.499990 0.499990 -0.246096
O6    O     O_R   0.017640 0.822070 0.960410 -0.500821
O7    O     O_R   0.822000 0.989470 0.960340 -0.503003
O8    O     O_R   0.666920 0.007430 0.955290 -0.501453
O9    O     O_R   0.694410 0.812480 0.959650 -0.498887
O10   O     O_R   0.831550 0.656950 0.958960 -0.435922
O11   O     O_R   0.998590 0.685540 0.963930 -0.429806
O12   O     O_R   0.338340 0.520690 0.539540 -0.485310
O13   O     O_R   0.008220 0.831200 0.045060 -0.536162
O14   O     O_R   0.813270 0.997930 0.038810 -0.506374
O15   O     O_R   0.657500 0.016560 0.039940 -0.504335
O16   O     O_R   0.685680 0.820940 0.038120 -0.482039
O17   O     O_R   0.822130 0.666070 0.043610 -0.521058
O18   O     O_R   0.989860 0.694000 0.042400 -0.464479
O19   O     O_3   0.833990 0.833400 0.000560 -0.261121
O20   O     O_R   0.324760 0.674070 0.543580 -0.447268
O21   O     O_R   0.522400 0.640310 0.540110 -0.480566
O22   O     O_R   0.675940 0.500630 0.542210 -0.490083
O23   O     O_R   0.641790 0.337020 0.538150 -0.448569
O24   O     O_R   0.500260 0.324550 0.456580 -0.534934
O25   O     O_R   0.336660 0.522040 0.461020 -0.510261
O26   O     O_R   0.322940 0.675540 0.458880 -0.527646
O27   O     O_3   0.540374 0.513992 0.611874 -0.678382
H42   H     H_    0.516270 0.493959 0.634996 0.313030
N5    N     N_2   0.736544 0.301320 0.794521 -0.524615
H43   H     H_    0.787307 0.316767 0.780068 0.237927
C117  C     C_3   0.653252 0.392511 0.812110 -0.301118
H44   H     H_    0.684829 0.428655 0.831446 0.147045
H45   H     H_    0.602807 0.373387 0.829330 0.159554
H46   H     H_    0.607660 0.448350 0.789792 0.151580
N6    N     N_2   0.629568 0.039662 0.788108 -0.529826
H47   H     H_    0.676232 0.000359 0.810535 0.258065
C118  C     C_3   0.593588 0.981530 0.766445 -0.287302
H48   H     H_    0.575241 0.935476 0.786292 0.163883
H49   H     H_    0.653954 0.928632 0.745886 0.173706
H50   H     H_    0.522385 0.034010 0.751149 0.149768
N7    N     N_2   0.887033 0.078471 0.827310 -0.533694
H51   H     H_    0.880134 0.080663 0.798012 0.255488
C119  C     C_3   0.947228 0.122829 0.841046 -0.308496
H52   H     H_    0.017071 0.095292 0.822806 0.135513
H53   H     H_    0.971837 0.099794 0.870883 0.142207
H54   H     H_    0.902175 0.207762 0.839857 0.172141
N8    N     N_2   0.701369 0.713847 0.575996 -0.533434
H55   H     H_    0.763562 0.719439 0.585038 0.251079
C120  C     C_3   0.625406 0.807144 0.558286 -0.306943
H56   H     H_    0.590288 0.870594 0.579860 0.142008
H57   H     H_    0.564583 0.796159 0.545117 0.165729
H58   H     H_    0.662460 0.828716 0.535408 0.142062
N9    N     N_2   0.795855 0.228613 0.585638 -0.482572
H59   H     H_    0.845138 0.243445 0.601223 0.242866
C121  C     C_3   0.849970 0.140972 0.560107 -0.298998
H60   H     H_    0.906236 0.150610 0.542458 0.134861
H61   H     H_    0.795991 0.133845 0.540520 0.142464
H62   H     H_    0.891639 0.069659 0.576855 0.133485
N10   N     N_2   0.097012 0.854734 0.898404 -0.500831
H63   H     H_    0.070887 0.910459 0.877816 0.248682
C122  C     C_3   0.186382 0.845124 0.917387 -0.278647
H64   H     H_    0.169643 0.921399 0.928539 0.144805
H65   H     H_    0.252216 0.815942 0.896904 0.146899
H66   H     H_    0.207255 0.792133 0.941863 0.163119
O28   O     O_3   0.116374 0.525262 0.922188 -0.669934
H67   H     H_    0.134259 0.460822 0.908076 0.319380
N11   N     N_2   0.353712 0.469214 0.719411 -0.521446
H68   H     H_    0.354189 0.449231 0.691078 0.251596
C123  C     C_3   0.435920 0.489206 0.728312 -0.289386
H69   H     H_    0.507957 0.430190 0.714207 0.137433
H70   H     H_    0.448131 0.486110 0.759627 0.151809
H71   H     H_    0.417747 0.565783 0.717780 0.190936
N12   N     N_2   0.963642 0.755074 0.782083 -0.514605
H72   H     H_    0.949645 0.741604 0.809744 0.267456
C124  C     C_3   0.927789 0.862193 0.774930 -0.292674
H73   H     H_    0.982358 0.884660 0.786588 0.155541
H74   H     H_    0.852139 0.909947 0.789136 0.155663
H75   H     H_    0.918521 0.877661 0.743823 0.152476
O29   O     O_3   0.245263 0.740529 0.689554 -0.715444
H76   H     H_    0.240344 0.802722 0.678045 0.329060
O30   O     O_3   0.899744 0.580192 0.894111 -0.652021
H77   H     H_    0.948783 0.541204 0.873160 0.350022
O31   O     O_3   0.324069 0.728944 0.613342 -0.674347
H78   H     H_    0.361076 0.732140 0.636132 0.331887
N13   N     N_2   0.170496 0.523685 0.573599 -0.494781
H79   H     H_    0.151367 0.561973 0.548009 0.247443
C125  C     C_3   0.111002 0.474640 0.582486 -0.303668
H80   H     H_    0.098914 0.441190 0.555911 0.141193
H81   H     H_    0.034925 0.531602 0.594670 0.141529
H82   H     H_    0.152991 0.411014 0.602695 0.151229
N14   N     N_2   0.526866 0.877693 0.086360 -0.491654
H83   H     H_    0.507930 0.858332 0.060513 0.251967
C126  C     C_3   0.444201 0.966801 0.105368 -0.310227
H84   H     H_    0.407321 0.029970 0.084614 0.142727
H85   H     H_    0.474274 0.993458 0.129126 0.146244
H86   H     H_    0.385528 0.948749 0.116321 0.135088
O32   O     O_3   0.817318 0.519310 0.330221 -0.709763
H87   H     H_    0.821424 0.552126 0.306368 0.330195
N15   N     N_2   0.662469 0.513730 0.203439 -0.535493
H88   H     H_    0.625368 0.531579 0.177621 0.251029
C127  C     C_3   0.673050 0.421992 0.220790 -0.306413
H89   H     H_    0.681588 0.366391 0.197989 0.147326
H90   H     H_    0.603993 0.440338 0.238356 0.150920
H91   H     H_    0.742668 0.385543 0.238628 0.181114
O33   O     O_3   0.514641 0.149865 0.335392 -0.711343
H92   H     H_    0.544050 0.112205 0.310974 0.325810
N16   N     N_2   0.500754 0.322127 0.207089 -0.541437
H93   H     H_    0.519905 0.352599 0.184277 0.247424
C128  C     C_3   0.404485 0.390735 0.226247 -0.317596
H94   H     H_    0.345901 0.434975 0.204584 0.147368
H95   H     H_    0.413459 0.445211 0.245282 0.149612
H96   H     H_    0.377016 0.346450 0.242989 0.164219
O34   O     O_3   0.839035 0.161139 0.159793 -0.714193
H97   H     H_    0.816678 0.196187 0.185008 0.328448
O35   O     O_3   0.816784 0.186705 0.328733 -0.709681
H98   H     H_    0.872559 0.175924 0.346163 0.329153
N17   N     N_2   0.782640 0.257016 0.407196 -0.485266
H99   H     H_    0.808918 0.295833 0.390661 0.261994
C129  C     C_3   0.860588 0.177785 0.430293 -0.295123
H100  H     H_    0.903484 0.209139 0.445725 0.137927
H101  H     H_    0.915123 0.112031 0.411942 0.123098
H102  H     H_    0.825035 0.150675 0.451834 0.149691
N18   N     N_2   0.111658 0.534478 0.086872 -0.495532
H103  H     H_    0.101941 0.482947 0.103139 0.239320
C130  C     C_3   0.192952 0.483704 0.058582 -0.279936
H104  H     H_    0.179884 0.428667 0.041523 0.148728
H105  H     H_    0.268202 0.441010 0.072862 0.126400
H106  H     H_    0.194493 0.540184 0.038729 0.161323
N19   N     N_2   0.860571 0.568925 0.815661 -0.534490
H107  H     H_    0.871062 0.603906 0.792263 0.289989
C131  C     C_3   0.864663 0.472839 0.806730 -0.314639
H108  H     H_    0.797076 0.486355 0.789774 0.162841
H109  H     H_    0.866890 0.432348 0.833445 0.157337
H110  H     H_    0.935132 0.423069 0.789647 0.140552
N20   N     N_2   0.352489 0.672543 0.281836 -0.523262
H111  H     H_    0.389234 0.623983 0.304146 0.259177
C132  C     C_3   0.336463 0.775192 0.287401 -0.319451
H112  H     H_    0.332489 0.793516 0.318435 0.133324
H113  H     H_    0.264631 0.833981 0.273935 0.145343
H114  H     H_    0.402035 0.779220 0.274552 0.160006
N21   N     N_2   0.320864 0.691847 0.201070 -0.517960
H115  H     H_    0.346575 0.737606 0.213003 0.269238
C133  C     C_3   0.400612 0.604973 0.180161 -0.306864
H116  H     H_    0.440964 0.631497 0.160631 0.140538
H117  H     H_    0.368133 0.566389 0.162613 0.156407
H118  H     H_    0.456461 0.549458 0.200389 0.162990
O36   O     O_3   0.534913 0.810918 0.917447 -0.694416
H119  H     H_    0.552940 0.783211 0.943575 0.324118

loop_
_geom_bond_atom_site_label_1
_geom_bond_atom_site_label_2
_ccdc_geom_bond_type
C120  H58   S    
C87   C88   A    
C114  C115  A    
C39   C41   A    
O30   H77   S    
C71   N14   S    
C26   O36   S    
O35   H98   S    
N17   H99   S    
C18   O14   A    
C27   H40   S    
C5    C6    A    
C54   C63   S    
C32   H41   S    
O31   H78   S    
C34   C35   A    
C61   C63   A    
C110  C111  A    
C125  H81   S    
C11   H32   S    
C46   C47   A    
C132  H114  S    
O33   H92   S    
C112  H33   S    
C50   C52   A    
C4    C12   S    
C83   C88   A    
C59   C60   A    
C115  H31   S    
N11   C123  S    
C122  H64   S    
C17   O6    A    
C62   O3    A    
C66   N13   S    
C124  H75   S    
N6    H47   S    
N5    H43   S    
O36   H119  S    
C75   C76   A    
C37   C38   A    
Cr1   O25   S    
C13   C21   A    
C53   H10   S    
C120  H56   S    
C94   C96   A    
C75   H21   S    
N19   H107  S    
C127  H90   S    
C10   C14   A    
C29   O22   A    
C131  H108  S    
C5    H34   S    
C129  H102  S    
C107  O33   S    
C78   C79   A    
C4    C5    A    
C6    C7    A    
C125  H82   S    
C29   O21   A    
C130  H105  S    
C64   C65   A    
C129  H101  S    
Cr1   O5    S    
C106  H17   S    
Cr5   O8    S    
C77   C82   A    
Cr4   O13   S    
C35   N7    S    
C64   O29   S    
C98   C99   A    
C31   C36   A    
C117  H45   S    
C122  H66   S    
C44   C48   A    
Cr3   O4    S    
N13   H79   S    
C81   H18   S    
C41   H5    S    
C111  C112  A    
C97   C98   A    
C90   C91   A    
C53   C54   A    
C99   C108  S    
C105  C107  A    
C64   C68   A    
C120  H57   S    
N16   H93   S    
C3    C116  A    
C38   C39   A    
N8    C120  S    
Cr6   O19   S    
C98   H25   S    
Cr1   O1    S    
C16   C30   S    
C40   C49   S    
C123  H69   S    
Cr2   O26   S    
C92   C93   A    
C23   N2    A    
C99   C100  A    
O32   H87   S    
C107  C108  A    
C132  H113  S    
C66   C67   A    
C65   O31   S    
N9    H59   S    
C24   N19   S    
C76   H13   S    
N21   C133  S    
C57   C63   A    
C1    O20   A    
N20   C132  S    
C46   N9    S    
O34   H97   S    
C29   C84   S    
C51   O26   A    
C91   C92   A    
C83   H19   S    
Cr2   O2    S    
C2    C106  A    
C50   C56   A    
C33   H4    S    
C84   C95   A    
C7    C116  A    
C92   O34   S    
C95   C106  A    
C22   N1    A    
C124  H74   S    
C31   C32   A    
C8    C12   A    
C73   O24   A    
C121  H61   S    
C114  H38   S    
N15   C127  S    
C20   C110  S    
C52   N10   S    
C26   C30   A    
C95   O27   S    
C119  H53   S    
C42   N6    S    
C3    C4    A    
C91   H23   S    
C52   C53   A    
Cr4   O7    S    
C105  C109  A    
O29   H76   S    
C132  H112  S    
C3    N20   S    
C34   C43   S    
C24   C28   A    
C128  H95   S    
C126  H84   S    
C19   O17   A    
C121  H62   S    
Cr2   O20   S    
C15   C31   S    
C119  H54   S    
C96   H24   S    
C123  H71   S    
N17   C129  S    
N14   H83   S    
C71   C72   A    
C57   C58   A    
C80   H16   S    
C60   H11   S    
C100  C101  A    
N16   C128  S    
C10   C11   A    
C25   O30   S    
Cr1   O12   S    
C128  H94   S    
N10   H63   S    
C2    C23   S    
Cr5   O15   S    
C55   C56   A    
C45   H7    S    
C101  C102  A    
Cr6   O10   S    
C41   C42   A    
C35   C36   A    
Cr3   O23   S    
C8    H36   S    
C6    H35   S    
C122  H65   S    
C86   H22   S    
C77   C78   A    
C16   O10   A    
C46   C49   A    
C26   C27   A    
N6    C118  S    
N1    N2    A    
C62   C89   S    
C101  H28   S    
N18   H103  S    
Cr1   O24   S    
Cr5   O19   S    
C54   C55   A    
N7    H51   S    
C70   C71   A    
C97   N16   S    
C103  O35   S    
C97   C102  A    
C16   O9    A    
N19   C131  S    
O27   H42   S    
C22   C28   S    
C131  H109  S    
C74   C82   S    
C126  H86   S    
C79   C88   S    
C133  H117  S    
C116  N21   S    
C67   C68   A    
C18   C90   S    
C36   H1    S    
C72   C74   A    
C85   C89   A    
C86   C87   A    
C94   H29   S    
C1    C69   S    
C60   C61   A    
C131  H110  S    
C37   C43   A    
C9    C14   A    
C125  H80   S    
C14   C51   S    
C118  H50   S    
C45   C49   A    
C124  H73   S    
C90   C96   A    
C22   N4    A    
N5    C117  S    
C83   C85   A    
C10   H39   S    
C67   H8    S    
C42   C43   A    
C44   C45   A    
N13   C125  S    
C113  C114  A    
C25   C30   A    
Cr6   O11   S    
C105  H30   S    
C133  H116  S    
C15   O7    A    
C61   N12   S    
C58   N11   S    
C86   C89   A    
C93   C102  S    
C73   C109  S    
C100  H27   S    
C55   H12   S    
C32   C33   A    
C58   C59   A    
C104  N17   S    
C47   H2    S    
C104  C109  A    
C65   C69   A    
O28   H67   S    
C123  H70   S    
C85   H20   S    
Cr5   O9    S    
C127  H89   S    
C103  C104  A    
C9    H37   S    
C110  C115  A    
C39   C48   S    
C133  H118  S    
C17   O11   A    
C93   C94   A    
N9    C121  S    
C81   C82   A    
C20   O13   A    
C77   N15   S    
C111  N18   S    
C130  H104  S    
C129  H100  S    
C66   C69   A    
C18   O15   A    
C56   O28   S    
C2    C13   A    
N12   H72   S    
C20   O18   A    
C8    C9    A    
C21   C84   A    
C117  H44   S    
Cr2   O5    S    
C73   O4    A    
Cr4   O14   S    
Cr3   O5    S    
Cr5   O16   S    
Cr6   O17   S    
C112  C113  A    
C128  H96   S    
C74   C75   A    
C37   N5    S    
C24   C25   A    
C126  H85   S    
C19   O16   A    
Cr2   O21   S    
N8    H55   S    
Cr6   O18   S    
N14   C126  S    
C59   C68   S    
C23   N3    A    
C47   C48   A    
C127  H91   S    
C117  H46   S    
N12   C124  S    
C33   C34   A    
C62   O2    A    
C118  H48   S    
C103  C108  A    
C72   H15   S    
C118  H49   S    
N10   C122  S    
C70   C76   A    
N3    N4    A    
C38   H3    S    
N21   H115  S    
N20   H111  S    
C44   H6    S    
C57   H9    S    
C130  H106  S    
Cr3   O22   S    
C80   C81   A    
Cr4   O19   S    
C17   C50   S    
C11   C12   A    
C15   O8    A    
C7    C113  S    
C1    O12   A    
N18   C130  S    
C121  H60   S    
C40   O1    A    
N15   H88   S    
Cr3   O3    S    
C79   C80   A    
Cr4   O6    S    
C40   O23   A    
N7    C119  S    
C119  H52   S    
N11   H68   S    
C27   C28   A    
C21   N8    S    
C19   C70   S    
C13   H26   S    
C78   H14   S    
C87   O32   S    
C51   O25   A    
