data_mof_unit_4341.cif
_audit_creation_date              2012-12-10T19:05:54-0500
_audit_creation_method            fapswitch 2.2
_symmetry_space_group_name_H-M    P1
_symmetry_Int_Tables_number       1
_space_group_crystal_system       triclinic
_cell_length_a                    19.334707
_cell_length_b                    10.913148
_cell_length_c                    9.554427
_cell_angle_alpha                 90.7185
_cell_angle_beta                  89.94867
_cell_angle_gamma                 90.043132
_cell_volume                      2015.84828855

loop_
_atom_site_label
_atom_site_type_symbol
_atom_type_description
_atom_site_fract_x
_atom_site_fract_y
_atom_site_fract_z
_atom_type_partial_charge
C1    C     C_R   0.496402 0.262780 0.498252 0.818406
C2    C     C_R   0.291367 0.501606 0.500426 -0.028277
C3    C     C_R   0.929616 0.511949 0.504245 0.465698
C4    C     C_R   0.069823 0.510491 0.502611 0.405961
C5    C     C_R   0.814874 0.572006 0.607515 0.481259
C6    C     C_R   0.742408 0.568614 0.600472 -0.291807
C7    C     C_R   0.708288 0.496038 0.500101 -0.164400
C8    C     C_R   0.747139 0.426631 0.401832 -0.020650
C9    C     C_R   0.819399 0.436680 0.403310 -0.202292
C10   C     C_R   0.853484 0.508384 0.504854 -0.073909
C11   C     C_R   0.479955 0.065103 0.614091 0.058764
C12   C     C_R   0.367427 0.500112 0.500113 0.798958
C13   C     C_R   0.485917 0.130579 0.491759 -0.166228
C14   C     C_R   0.479298 0.063267 0.363456 -0.037802
C15   C     C_R   0.475701 0.933240 0.365628 -0.026791
C16   C     C_R   0.482412 0.869927 0.495472 -0.215605
C17   C     C_R   0.476088 0.941341 0.617213 -0.099400
C18   C     C_3   0.479494 0.940613 0.775666 0.366680
C19   C     C_3   0.486040 0.082215 0.768314 -0.221397
C20   C     C_R   0.560348 0.489946 0.073420 0.274083
C21   C     C_R   0.439765 0.496720 0.074190 -0.087278
C22   C     C_R   0.439804 0.495227 0.925940 -0.102614
C23   C     C_R   0.494302 0.737223 0.499891 0.778000
C24   C     C_R   0.560335 0.488586 0.926253 0.283909
C25   C     C_3   0.622017 0.570217 0.920703 -0.507158
C26   C     C_3   0.620863 0.574651 0.079407 -0.469309
C27   C     C_R   0.632363 0.497230 0.499778 0.798981
C28   C     C_R   0.254745 0.491533 0.626678 -0.163205
C29   C     C_R   0.182739 0.495363 0.627527 -0.147785
C30   C     C_R   0.145970 0.507899 0.501865 0.058997
C31   C     C_R   0.182592 0.516749 0.375376 -0.142011
C32   C     C_R   0.254645 0.513984 0.374710 -0.177369
Cu1   Cu    Cu3+1 0.500000 0.499980 0.640670 0.947655
Cu2   Cu    Cu3+1 0.500000 0.500020 0.359330 0.943000
H1    H     H_    0.281617 0.480078 0.724938 0.147669
H2    H     H_    0.537524 0.119425 0.798975 0.120294
H3    H     H_    0.390761 0.496471 0.128157 0.144575
H4    H     H_    0.390841 0.493539 0.872059 0.154177
H5    H     H_    0.668002 0.521238 0.878381 0.192365
H6    H     H_    0.611037 0.659365 0.871464 0.222214
H7    H     H_    0.667178 0.531581 0.126578 0.210553
H8    H     H_    0.155941 0.487264 0.726554 0.155067
H9    H     H_    0.607298 0.666376 0.123330 0.230157
H10   H     H_    0.155667 0.526742 0.276849 0.155065
H11   H     H_    0.281468 0.522119 0.275745 0.142336
H12   H     H_    0.712380 0.625272 0.671613 0.145473
H13   H     H_    0.849685 0.384406 0.328060 0.207335
N1    N     N_R   0.033766 0.498668 0.381391 -0.235295
N2    N     N_R   0.964992 0.498995 0.382236 -0.242542
N3    N     N_R   0.965624 0.524007 0.625435 -0.177505
N4    N     N_R   0.034407 0.523256 0.624649 -0.240197
N5    N     N_R   0.500440 0.500930 0.147930 -0.196172
N6    N     N_R   0.500440 0.500890 0.852020 -0.200833
O1    O     O_R   0.500000 0.319640 0.618810 -0.550568
O2    O     O_R   0.500010 0.319680 0.381230 -0.606128
O3    O     O_R   0.400140 0.499970 0.618830 -0.588674
O4    O     O_R   0.400150 0.500010 0.381250 -0.597849
O5    O     O_R   0.499990 0.680320 0.618770 -0.613280
O6    O     O_R   0.500000 0.680360 0.381190 -0.594792
O7    O     O_R   0.599850 0.499990 0.618750 -0.574236
O8    O     O_R   0.599860 0.500030 0.381170 -0.591065
C33   C     C_2   0.458722 0.868027 0.232710 0.502629
H14   H     H_    0.495194 0.805516 0.183881 0.135224
O9    O     O_2   0.403622 0.887307 0.174962 -0.545522
O10   O     O_3   0.417236 0.907643 0.845905 -0.538236
C34   C     C_3   0.393884 0.789733 0.807346 0.145995
H15   H     H_    0.433193 0.720719 0.834972 0.174600
H16   H     H_    0.381409 0.784531 0.693938 0.142661
C35   C     C_3   0.327691 0.761000 0.886639 -0.745363
H17   H     H_    0.289078 0.834862 0.871035 0.267093
H18   H     H_    0.305602 0.673274 0.847543 0.170722
H19   H     H_    0.338514 0.751826 0.999920 0.272641
C36   C     C_2   0.543897 0.882183 0.832738 0.340601
H20   H     H_    0.583383 0.847614 0.761797 0.039517
O11   O     O_2   0.553618 0.878059 0.958608 -0.527991
C37   C     C_2   0.426562 0.153400 0.832694 0.556841
H21   H     H_    0.422507 0.160764 0.945457 0.085531
O12   O     O_2   0.382771 0.202609 0.760440 -0.552937
O13   O     O_3   0.848682 0.646225 0.704842 -0.566857
C38   C     C_3   0.826819 0.618807 0.842351 0.053303
H22   H     H_    0.819190 0.518416 0.857443 0.150158
H23   H     H_    0.777939 0.668077 0.867155 0.153411
C39   C     C_3   0.881651 0.662104 0.945783 -0.683910
H24   H     H_    0.889791 0.762401 0.936119 0.252917
H25   H     H_    0.864734 0.642064 0.054257 0.204080
H26   H     H_    0.931227 0.613903 0.924737 0.259724
C40   C     C_2   0.713966 0.338746 0.302328 0.357374
H27   H     H_    0.660748 0.310206 0.316577 0.098628
O14   O     O_2   0.746161 0.295547 0.203380 -0.536486
C41   C     C_2   0.476793 0.125515 0.226124 0.448431
H28   H     H_    0.438450 0.195947 0.207141 0.067976
O15   O     O_2   0.518211 0.098980 0.134146 -0.535963

loop_
_geom_bond_atom_site_label_1
_geom_bond_atom_site_label_2
_ccdc_geom_bond_type
C23   O5    A    
C34   H16   S    
C40   H27   S    
Cu1   O5    S    
C29   H8    S    
C36   H20   S    
C2    C12   S    
C3    N2    A    
C7    C8    A    
C18   O10   S    
C23   O6    A    
C11   C19   S    
C33   H14   S    
C28   C29   A    
C37   O12   D    
C27   O7    A    
C25   H6    S    
C30   C31   A    
C34   C35   S    
C15   C16   A    
C22   H4    S    
C7    C27   S    
C2    C32   A    
C18   C19   S    
C32   H11   S    
C35   H18   S    
C14   C41   S    
C33   O9    D    
C27   O8    A    
C11   C17   A    
C31   C32   A    
C28   H1    S    
C8    C9    A    
Cu2   O4    S    
C5    O13   S    
C9    C10   A    
C16   C23   S    
Cu1   O3    S    
C34   H15   S    
Cu2   O2    S    
C21   C22   A    
C36   O11   D    
C38   C39   S    
C25   C26   S    
C3    N3    A    
C26   H9    S    
C17   C18   S    
C22   N6    A    
Cu1   N6    S    
C31   H10   S    
C4    N4    A    
C20   C24   A    
C24   C25   S    
C38   H23   S    
C16   C17   A    
N3    N4    A    
C24   N6    A    
Cu2   O8    S    
C35   H19   S    
C1    O1    A    
C29   C30   A    
C41   O15   D    
C39   H24   S    
Cu1   Cu2   S    
C37   H21   S    
C12   O3    A    
C12   O4    A    
N1    N2    A    
C39   H25   S    
C9    H13   S    
C18   C36   S    
C40   O14   D    
Cu2   O6    S    
C1    C13   S    
C4    N1    A    
Cu1   O1    S    
C19   C37   S    
C6    H12   S    
C38   H22   S    
C6    C7    A    
Cu1   O7    S    
Cu2   N5    S    
C19   H2    S    
C8    C40   S    
C1    O2    A    
C5    C10   A    
C20   N5    A    
C3    C10   S    
C25   H5    S    
C11   C13   A    
C41   H28   S    
C5    C6    A    
C20   C26   S    
C15   C33   S    
C35   H17   S    
O13   C38   S    
C39   H26   S    
C21   H3    S    
O10   C34   S    
C14   C15   A    
C2    C28   A    
C13   C14   A    
C21   N5    A    
C4    C30   S    
C26   H7    S    
