data_mof_unit_3175.cif
_audit_creation_date              2012-12-10T18:56:30-0500
_audit_creation_method            fapswitch 2.2
_symmetry_space_group_name_H-M    P1
_symmetry_Int_Tables_number       1
_space_group_crystal_system       triclinic
_cell_length_a                    10.730873
_cell_length_b                    9.835338
_cell_length_c                    19.484671
_cell_angle_alpha                 90.596665
_cell_angle_beta                  91.5016
_cell_angle_gamma                 89.875899
_cell_volume                      2055.62517732

loop_
_atom_site_label
_atom_site_type_symbol
_atom_type_description
_atom_site_fract_x
_atom_site_fract_y
_atom_site_fract_z
_atom_type_partial_charge
C1    C     C_R   0.868831 0.492790 0.469725 -0.163949
C2    C     C_R   0.738888 0.498289 0.490646 0.895838
C3    C     C_R   0.496554 0.499209 0.364579 0.856668
C4    C     C_R   0.499941 0.500275 0.634067 0.929387
C5    C     C_R   0.064972 0.377121 0.451870 0.076016
C6    C     C_R   0.927193 0.613454 0.452557 0.071056
C7    C     C_R   0.933797 0.370416 0.455917 0.046795
C8    C     C_R   0.054223 0.624460 0.469597 0.049063
C9    C     C_R   0.416150 0.421877 0.745627 0.013379
C10   C     C_R   0.471309 0.625955 0.252022 -0.025314
C11   C     C_R   0.507351 0.378538 0.245787 -0.021522
C12   C     C_R   0.124664 0.500762 0.473733 -0.172307
C13   C     C_R   0.592954 0.582506 0.744917 0.027592
C14   C     C_R   0.415758 0.431397 0.817534 0.404295
C15   C     C_R   0.498038 0.634899 0.182077 0.330697
C16   C     C_R   0.509830 0.389558 0.173465 0.337522
C17   C     C_R   0.586533 0.597905 0.816145 0.398762
C18   C     C_R   0.499537 0.520982 0.852191 -0.174273
C19   C     C_R   0.507443 0.516957 0.143170 -0.062964
C20   C     C_R   0.561219 0.073107 0.550945 -0.066677
C21   C     C_R   0.432830 0.927506 0.451876 -0.115530
C22   C     C_R   0.434920 0.070699 0.450992 -0.116057
C23   C     C_R   0.405088 0.584619 0.962068 -0.199563
C24   C     C_R   0.562589 0.929088 0.550405 -0.093161
C25   C     C_R   0.502791 0.501195 0.709193 -0.255806
C26   C     C_R   0.491167 0.499701 0.287085 -0.196826
C27   C     C_3   0.135660 0.264613 0.413809 -0.399058
C28   C     C_3   0.175326 0.315582 0.343263 -0.346967
C29   C     C_3   0.192582 0.199571 0.291676 -0.911616
C30   C     C_3   0.867190 0.699804 0.396300 -0.426828
C31   C     C_3   0.837630 0.614295 0.331353 -0.341258
C32   C     C_3   0.786696 0.702439 0.273183 -0.882909
C33   C     C_3   0.866578 0.237798 0.439568 -0.387474
C34   C     C_R   0.610295 0.472179 0.033266 -0.131197
C35   C     C_3   0.882887 0.138511 0.499030 -0.322301
C36   C     C_3   0.833470 0.000466 0.477166 -0.934580
C37   C     C_3   0.106943 0.765590 0.485468 -0.384965
C38   C     C_3   0.120926 0.791698 0.563167 -0.306357
C39   C     C_3   0.202586 0.914910 0.579727 -0.862976
C40   C     C_3   0.328837 0.319485 0.709603 -0.320983
C41   C     C_3   0.218485 0.387743 0.671974 -0.327641
C42   C     C_3   0.141961 0.282256 0.631134 -0.902679
C43   C     C_3   0.401108 0.745438 0.282765 -0.373559
C44   C     C_3   0.268946 0.702459 0.302655 -0.321781
C45   C     C_R   0.407742 0.584071 0.033213 -0.098631
C46   C     C_3   0.177584 0.821703 0.301172 -0.945305
C47   C     C_3   0.519714 0.236108 0.274425 -0.367686
C48   C     C_3   0.657428 0.199342 0.285274 -0.340178
C49   C     C_3   0.672749 0.053557 0.309744 -0.920470
C50   C     C_3   0.701118 0.648117 0.708436 -0.341862
C51   C     C_3   0.794326 0.540903 0.683857 -0.336661
C52   C     C_3   0.900313 0.608301 0.646700 -0.935174
C53   C     C_R   0.606971 0.471316 0.962163 -0.159506
C54   C     C_R   0.509769 0.526592 0.068734 0.251273
C55   C     C_R   0.503849 0.526323 0.926766 0.078752
C56   C     C_R   0.258691 0.500343 0.492717 0.871442
H1    H     H_    0.611524 0.128390 0.591103 0.128565
H2    H     H_    0.102293 0.147411 0.281044 0.266280
H3    H     H_    0.226631 0.240958 0.242802 0.270257
H4    H     H_    0.103216 0.385340 0.321402 0.217787
H5    H     H_    0.263301 0.373626 0.349333 0.218193
H6    H     H_    0.213977 0.223748 0.444076 0.210611
H7    H     H_    0.083229 0.169441 0.406463 0.198914
H8    H     H_    0.699527 0.753030 0.289061 0.266444
H9    H     H_    0.855786 0.780860 0.259467 0.262110
H10   H     H_    0.766054 0.637831 0.227239 0.254958
H11   H     H_    0.923822 0.562573 0.314204 0.219367
H12   H     H_    0.375123 0.873403 0.415269 0.135246
H13   H     H_    0.767281 0.535280 0.342319 0.210194
H14   H     H_    0.780965 0.749406 0.414180 0.243946
H15   H     H_    0.931030 0.780258 0.380478 0.188623
H16   H     H_    0.733684 0.006541 0.462543 0.283498
H17   H     H_    0.882931 0.968615 0.430908 0.248269
H18   H     H_    0.847622 0.925648 0.518919 0.258399
H19   H     H_    0.982854 0.127898 0.514266 0.220308
H20   H     H_    0.831731 0.176134 0.544299 0.234607
H21   H     H_    0.767249 0.248307 0.426637 0.237065
H22   H     H_    0.896936 0.194799 0.390042 0.182902
H23   H     H_    0.384212 0.123229 0.411230 0.124446
H24   H     H_    0.301681 0.887894 0.573491 0.286801
H25   H     H_    0.177553 0.001076 0.545658 0.245805
H26   H     H_    0.190229 0.947086 0.633920 0.243303
H27   H     H_    0.027344 0.812769 0.583541 0.212130
H28   H     H_    0.160255 0.701687 0.590135 0.228428
H29   H     H_    0.193433 0.783639 0.457686 0.225801
H30   H     H_    0.045235 0.846364 0.465893 0.182551
H31   H     H_    0.201145 0.230255 0.593043 0.278402
H32   H     H_    0.103176 0.205502 0.666074 0.262007
H33   H     H_    0.063659 0.331914 0.602965 0.245679
H34   H     H_    0.614618 0.875873 0.589845 0.124165
H35   H     H_    0.157946 0.438483 0.709983 0.234675
H36   H     H_    0.251349 0.466294 0.636376 0.211750
H37   H     H_    0.381666 0.252945 0.674502 0.208206
H38   H     H_    0.289894 0.246470 0.746384 0.244464
H39   H     H_    0.199144 0.895083 0.343337 0.248364
H40   H     H_    0.179376 0.874799 0.251180 0.280077
H41   H     H_    0.082282 0.782320 0.306981 0.259286
H42   H     H_    0.232530 0.624322 0.265628 0.224390
H43   H     H_    0.270769 0.656671 0.354445 0.217232
H44   H     H_    0.456454 0.792692 0.324825 0.201192
H45   H     H_    0.325638 0.627600 0.934476 0.165525
H46   H     H_    0.389496 0.829000 0.245410 0.225088
H47   H     H_    0.625386 0.039797 0.358931 0.272884
H48   H     H_    0.631565 0.982409 0.270927 0.252498
H49   H     H_    0.773204 0.029089 0.316963 0.256491
H50   H     H_    0.708684 0.210108 0.236899 0.209967
H51   H     H_    0.700238 0.271650 0.322569 0.214128
H52   H     H_    0.466606 0.221408 0.320860 0.226935
H53   H     H_    0.474271 0.160685 0.239146 0.213224
H54   H     H_    0.862145 0.668312 0.603025 0.268753
H55   H     H_    0.954007 0.676114 0.682479 0.264605
H56   H     H_    0.689504 0.428260 0.060692 0.138227
H57   H     H_    0.964071 0.530167 0.626293 0.256119
H58   H     H_    0.833344 0.484299 0.728629 0.236229
H59   H     H_    0.748126 0.466858 0.648215 0.220446
H60   H     H_    0.666945 0.710558 0.665229 0.199115
H61   H     H_    0.752945 0.721191 0.742195 0.252626
H62   H     H_    0.358580 0.341584 0.900749 0.356775
H63   H     H_    0.551491 0.822390 0.182030 0.327149
H64   H     H_    0.575171 0.213092 0.146838 0.337777
H65   H     H_    0.634793 0.717055 0.893589 0.354266
H66   H     H_    0.329512 0.625560 0.060631 0.154000
H67   H     H_    0.683615 0.426706 0.934599 0.160946
H68   H     H_    0.261187 0.124463 0.311511 0.249859
N1    N     N_R   0.500000 0.857200 0.500000 -0.084057
N2    N     N_R   0.500000 0.142800 0.500000 -0.078567
O1    O     O_R   0.316770 0.614620 0.500000 -0.617674
O2    O     O_3   0.509773 0.758097 0.149402 -0.769709
O3    O     O_3   0.510309 0.277091 0.130237 -0.766441
O4    O     O_3   0.669081 0.686205 0.849420 -0.781833
O5    O     O_R   0.683230 0.385380 0.500000 -0.631335
O6    O     O_R   0.683230 0.614620 0.500000 -0.617455
O7    O     O_R   0.316770 0.385380 0.500000 -0.619437
O8    O     O_R   0.500030 0.614710 0.398180 -0.619980
O9    O     O_R   0.499970 0.385290 0.601820 -0.624574
O10   O     O_R   0.499970 0.614710 0.601820 -0.618102
O11   O     O_R   0.500030 0.385290 0.398180 -0.634722
O12   O     O_3   0.331825 0.352018 0.852183 -0.780052
Zn1   Zn    Zn3+2 0.500000 0.653120 0.500000 0.922768
Zn2   Zn    Zn3+2 0.500000 0.346880 0.500000 0.917850

loop_
_geom_bond_atom_site_label_1
_geom_bond_atom_site_label_2
_ccdc_geom_bond_type
C23   C45   A    
C38   H27   S    
C50   H61   S    
C34   H56   S    
C41   C42   S    
C14   C18   A    
C11   C47   S    
C35   C36   S    
C40   H37   S    
C43   C44   S    
C49   H48   S    
C4    C25   S    
C9    C25   A    
C31   C32   S    
C52   H57   S    
N1    Zn1   S    
O6    Zn1   S    
C15   C19   A    
N2    Zn2   S    
C37   H29   S    
C28   C29   S    
C22   H23   S    
C10   C15   A    
C30   C31   S    
C44   H43   S    
C33   H22   S    
C22   N2    A    
C48   H51   S    
C23   H45   S    
C29   H68   S    
C1    C2    S    
C56   O1    A    
C20   C24   A    
O5    Zn2   S    
C5    C27   S    
C44   H42   S    
C48   H50   S    
C46   H39   S    
C14   O12   S    
C2    O6    A    
C3    O11   A    
H65   O4    S    
C4    O10   A    
C38   H28   S    
H63   O2    S    
C10   C26   A    
C28   H4    S    
C10   C43   S    
C21   C22   A    
C7    C33   S    
C13   C25   A    
O1    Zn1   S    
O10   Zn1   S    
C56   O7    A    
C30   H14   S    
C44   C46   S    
C30   H15   S    
C53   C55   A    
O9    Zn2   S    
O11   Zn2   S    
C35   H20   S    
C51   H58   S    
C2    O5    A    
H64   O3    S    
C29   H3    S    
C37   H30   S    
C43   H44   S    
C39   H25   S    
C5    C12   A    
C53   H67   S    
O8    Zn1   S    
C5    C7    A    
C6    C8    A    
C11   C26   A    
C50   C51   S    
C47   H53   S    
C9    C40   S    
C51   H59   S    
C1    C6    A    
C31   H11   S    
C9    C14   A    
C20   N2    A    
C37   C38   S    
C27   H6    S    
C11   C16   A    
C47   C48   S    
C52   H54   S    
C8    C12   A    
C35   H19   S    
C17   C18   A    
C16   O3    S    
C32   H8    S    
C12   C56   S    
C36   H18   S    
C18   C55   S    
C34   C53   A    
C4    O9    A    
C19   C54   S    
C40   C41   S    
C6    C30   S    
C46   H41   S    
C45   C54   A    
C34   C54   A    
C15   O2    S    
C21   H12   S    
C24   N1    A    
C42   H32   S    
C8    C37   S    
C21   N1    A    
C32   H10   S    
C48   C49   S    
C41   H35   S    
C17   O4    S    
C1    C7    A    
C3    C26   S    
C39   H26   S    
C40   H38   S    
C24   H34   S    
C49   H47   S    
C49   H49   S    
C23   C55   A    
C45   H66   S    
C52   H55   S    
C13   C17   A    
C42   H33   S    
C39   H24   S    
C3    O8    A    
C43   H46   S    
C51   C52   S    
C28   H5    S    
C33   H21   S    
C38   C39   S    
C16   C19   A    
C33   C35   S    
C50   H60   S    
C36   H17   S    
C13   C50   S    
C31   H13   S    
C41   H36   S    
C46   H40   S    
C29   H2    S    
O7    Zn2   S    
C47   H52   S    
C27   C28   S    
C27   H7    S    
C42   H31   S    
C20   H1    S    
H62   O12   S    
C36   H16   S    
C32   H9    S    
