data_mof_unit_3811.cif
_audit_creation_date              2012-10-26T18:47:55-0400
_audit_creation_method            fapswitch 2.2
_symmetry_space_group_name_H-M    P1
_symmetry_Int_Tables_number       1
_space_group_crystal_system       triclinic
_cell_length_a                    15.854754
_cell_length_b                    8.69094
_cell_length_c                    7.450449
_cell_angle_alpha                 103.023849
_cell_angle_beta                  94.002137
_cell_angle_gamma                 92.209493
_cell_volume                      996.212765124

loop_
_atom_site_label
_atom_site_type_symbol
_atom_type_description
_atom_site_fract_x
_atom_site_fract_y
_atom_site_fract_z
_atom_type_partial_charge
C1    C     C_R   0.497469 0.199722 0.453249 0.550112
C2    C     C_2   0.503680 0.968185 0.573011 -0.151222
C3    C     C_R   0.340339 0.499748 0.502657 0.557204
C4    C     C_R   0.502498 0.800277 0.546753 0.546265
C5    C     C_R   0.659668 0.500203 0.497359 0.547944
C6    C     C_3   0.050545 0.436326 0.673401 -0.015444
C7    C     C_3   0.042106 0.393486 0.320547 -0.198549
C8    C     C_3   0.944340 0.390630 0.317797 -0.214056
C9    C     C_1   0.749136 0.499457 0.492298 -0.029083
C10   C     C_3   0.082925 0.496737 0.506429 0.036444
C11   C     C_2   0.082516 0.277212 0.688805 0.553777
C12   C     C_3   0.952099 0.433927 0.664304 -0.210689
C13   C     C_3   0.916984 0.498041 0.497480 0.043967
C14   C     C_3   0.955872 0.667940 0.516583 -0.222248
C15   C     C_3   0.053711 0.667281 0.521533 -0.247437
C16   C     C_1   0.824723 0.498896 0.492602 -0.072727
C17   C     C_1   0.175310 0.498361 0.508757 -0.042834
C18   C     C_1   0.250878 0.499312 0.507886 0.004399
C19   C     C_2   0.496245 0.031812 0.426994 -0.150740
Cu1   Cu    Cu3+1 0.509300 0.517380 0.684380 0.971046
Cu2   Cu    Cu3+1 0.490700 0.482620 0.315620 0.976768
H1    H     H_    0.923866 0.312422 0.652857 0.150414
H2    H     H_    0.063804 0.271111 0.296551 0.185914
H3    H     H_    0.918786 0.267015 0.303687 0.144713
H4    H     H_    0.918046 0.431580 0.195196 0.113601
H5    H     H_    0.082017 0.746694 0.652330 0.122171
H6    H     H_    0.075884 0.715625 0.405664 0.131151
H7    H     H_    0.937252 0.747120 0.645382 0.128633
H8    H     H_    0.079422 0.041432 0.585395 0.332738
H9    H     H_    0.075047 0.523670 0.802173 0.102267
H10   H     H_    0.932168 0.508224 0.795008 0.091373
H11   H     H_    0.931216 0.716496 0.398342 0.131502
H12   H     H_    0.489235 0.960191 0.286285 0.136256
H13   H     H_    0.510686 0.039807 0.713720 0.136233
H14   H     H_    0.434913 0.376813 0.948705 0.248610
H15   H     H_    0.565079 0.623199 0.051298 0.238953
H16   H     H_    0.062498 0.442664 0.203771 0.132676
N1    N     N_2   0.476670 0.456430 0.038530 -0.252024
N2    N     N_2   0.523330 0.543570 0.961470 -0.257090
O1    O     O_R   0.506050 0.286130 0.619770 -0.506324
O2    O     O_R   0.053463 0.139527 0.558763 -0.730423
O3    O     O_R   0.490330 0.256780 0.308370 -0.496215
O4    O     O_R   0.387300 0.514690 0.655770 -0.494182
O5    O     O_R   0.371580 0.485340 0.344370 -0.486852
O6    O     O_R   0.509670 0.743220 0.691630 -0.498484
O7    O     O_R   0.493950 0.713870 0.380230 -0.507324
O8    O     O_R   0.628420 0.514660 0.655630 -0.496109
O9    O     O_R   0.612700 0.485310 0.344230 -0.502412
O10   O     O_2   0.133109 0.269337 0.817638 -0.532664

loop_
_geom_bond_atom_site_label_1
_geom_bond_atom_site_label_2
_ccdc_geom_bond_type
C6    C10   S    
C7    C10   S    
C2    C4    S    
C5    C9    S    
C8    C13   S    
C11   O10   D    
Cu2   O5    S    
C15   H6    S    
Cu1   O6    S    
C10   C15   S    
Cu2   O9    S    
C14   H7    S    
C2    H13   S    
C17   C18   T    
C7    H16   S    
C7    C8    S    
C4    O7    A    
C13   C14   S    
C12   C13   S    
C8    H3    S    
C8    H4    S    
C5    O8    A    
C3    O4    A    
C7    H2    S    
C6    H9    S    
C9    C16   T    
C11   O2    S    
C4    O6    A    
C12   H10   S    
C6    C12   S    
N1    N2    D    
Cu1   O1    S    
C5    O9    A    
C3    O5    A    
C1    C19   S    
Cu1   O8    S    
C10   C17   S    
Cu2   O3    S    
C12   H1    S    
C1    O3    A    
Cu1   O4    S    
Cu1   Cu2   S    
C3    C18   S    
Cu2   O7    S    
C19   H12   S    
C13   C16   S    
C6    C11   S    
Cu1   N2    S    
H14   N1    S    
C15   H5    S    
C1    O1    A    
H8    O2    S    
C2    C19   D    
C14   C15   S    
H15   N2    S    
Cu2   N1    S    
C14   H11   S    
