data_mof_unit_1689.cif
_audit_creation_date              2012-12-11T16:33:31-0500
_audit_creation_method            fapswitch 2.2
_symmetry_space_group_name_H-M    P1
_symmetry_Int_Tables_number       1
_space_group_crystal_system       triclinic
_cell_length_a                    6.941895
_cell_length_b                    18.145625
_cell_length_c                    20.283939
_cell_angle_alpha                 68.504606
_cell_angle_beta                  89.545882
_cell_angle_gamma                 90.646028
_cell_volume                      2377.00361152

loop_
_atom_site_label
_atom_site_type_symbol
_atom_type_description
_atom_site_fract_x
_atom_site_fract_y
_atom_site_fract_z
_atom_type_partial_charge
O1    O     O_R   0.488960 0.443750 0.941980 -0.539790
O2    O     O_R   0.823890 0.406510 0.087590 -0.536033
O3    O     O_R   0.999680 0.556250 0.058020 -0.540570
C1    C     C_R   0.653557 0.383216 0.114867 0.696838
O4    O     O_R   0.818360 0.434410 0.944340 -0.538885
O5    O     O_R   0.994110 0.584350 0.913750 -0.536183
C2    C     C_R   0.650093 0.419867 0.924350 0.727552
O6    O     O_R   0.494530 0.415650 0.086250 -0.538242
O7    O     O_3   0.662590 0.549160 0.990130 -0.367638
V1    V     V_3+5 0.935320 0.490880 0.001830 1.411228
O8    O     O_R   0.324180 0.593490 0.912410 -0.542890
C3    C     C_R   0.156575 0.618324 0.885772 0.736000
O9    O     O_R   0.329720 0.565590 0.055660 -0.536917
C4    C     C_R   0.161334 0.576359 0.078811 0.732582
V2    V     V_3+5 0.435990 0.509120 0.998170 1.398182
O10   O     O_3   0.158850 0.450840 0.009870 -0.369077
C5    C     C_3   0.037556 0.711968 0.308314 0.229355
C6    C     C_3   0.220706 0.678906 0.286045 -0.164481
H1    H     H_    0.285222 0.620569 0.315804 0.114397
H2    H     H_    0.471342 0.771577 0.281755 0.122938
C7    C     C_1   0.152464 0.620852 0.125242 -0.188284
C8    C     C_1   0.115405 0.878101 0.375071 -0.189808
C9    C     C_3   0.958438 0.737758 0.232414 -0.152128
C10   C     C_3   0.142389 0.705632 0.209995 0.099057
C11   C     C_3   0.059323 0.820045 0.213860 -0.204752
C12   C     C_3   0.136699 0.793137 0.290308 0.150456
C13   C     C_3   0.243047 0.786757 0.191484 0.056300
C14   C     C_3   0.321847 0.761160 0.267743 -0.210751
C15   C     C_1   0.146180 0.658353 0.163939 -0.057134
C16   C     C_1   0.126005 0.840091 0.336738 -0.047361
H3    H     H_    0.992148 0.878024 0.184972 0.113588
H4    H     H_    0.808691 0.726813 0.219637 0.114146
H5    H     H_    0.073945 0.507244 0.699684 0.121675
C17   C     C_R   0.166533 0.791015 0.871204 0.154981
C18   C     C_R   0.166780 0.871687 0.861426 -0.096122
C19   C     C_R   0.151323 0.929210 0.795136 -0.188038
C20   C     C_R   0.136356 0.908133 0.736695 -0.131429
C21   C     C_R   0.135885 0.827650 0.742502 0.039049
C22   C     C_R   0.151885 0.766346 0.810953 0.042775
C23   C     C_R   0.112513 0.809807 0.680430 -0.155328
C24   C     C_R   0.094818 0.728716 0.685660 0.021032
C25   C     C_R   0.131384 0.666352 0.752797 0.019995
C26   C     C_R   0.152033 0.684997 0.815643 -0.161316
C27   C     C_R   0.043094 0.706023 0.626722 0.144474
C28   C     C_R   0.023633 0.626252 0.635844 -0.134958
C29   C     C_R   0.076443 0.567830 0.697629 -0.148329
C30   C     C_R   0.143961 0.586265 0.754178 0.128436
H6    H     H_    0.177656 0.890952 0.905900 0.117592
H7    H     H_    0.148439 0.990930 0.788959 0.125604
H8    H     H_    0.121394 0.956967 0.686744 0.119781
H9    H     H_    0.977962 0.608331 0.592865 0.122083
C31   C     C_R   0.531945 0.095730 0.245047 0.133420
C32   C     C_R   0.433403 0.092504 0.185148 0.217713
C33   C     C_R   0.407609 0.161800 0.126481 -0.177369
C34   C     C_R   0.483023 0.233269 0.125100 -0.195528
C35   C     C_R   0.565720 0.240195 0.185861 0.041056
C36   C     C_R   0.575118 0.171539 0.249461 0.022583
C37   C     C_R   0.639465 0.314413 0.183479 -0.150838
C38   C     C_R   0.697880 0.323135 0.246904 0.067202
C39   C     C_R   0.686103 0.257507 0.312313 0.027249
C40   C     C_R   0.627129 0.181533 0.314002 -0.156447
C41   C     C_R   0.759558 0.397707 0.246961 -0.194242
C42   C     C_R   0.803813 0.407998 0.309875 -0.118000
C43   C     C_R   0.788144 0.344366 0.374410 0.220148
C44   C     C_R   0.731585 0.269801 0.375485 -0.143097
H10   H     H_    0.336879 0.160042 0.079621 0.127160
H11   H     H_    0.469786 0.283479 0.076040 0.129808
H12   H     H_    0.770226 0.449435 0.198627 0.117487
H13   H     H_    0.848150 0.466141 0.308120 0.114933
H14   H     H_    0.721322 0.222055 0.426650 0.106373
O11   O     O_R   0.770540 0.084530 0.414050 -0.540170
O12   O     O_R   0.445710 0.065660 0.555720 -0.537136
O13   O     O_R   0.270420 0.915650 0.586190 -0.534162
C45   C     C_R   0.614177 0.080837 0.575525 0.731383
O14   O     O_R   0.441140 0.093540 0.412470 -0.536926
O15   O     O_R   0.265820 0.943740 0.441930 -0.543804
C46   C     C_R   0.611186 0.114878 0.383950 0.711297
O16   O     O_R   0.775150 0.056440 0.558310 -0.534983
O17   O     O_3   0.602370 0.950960 0.510050 -0.369443
V3    V     V_3+5 0.329450 0.009140 0.498150 1.420189
O18   O     O_R   0.935790 0.934280 0.444060 -0.538255
C47   C     C_R   0.104564 0.923562 0.420896 0.719162
O19   O     O_R   0.940370 0.906390 0.587310 -0.540057
C48   C     C_R   0.108266 0.878640 0.611266 0.714817
V4    V     V_3+5 0.828810 0.990710 0.501460 1.407354
O20   O     O_3   0.105780 0.049100 0.489960 -0.365230
C49   C     C_3   0.761183 0.313380 0.724952 -0.172381
C50   C     C_3   0.579180 0.300692 0.686462 0.026541
H15   H     H_    0.865736 0.363727 0.706127 0.112065
H16   H     H_    0.313233 0.299409 0.761830 0.119695
C51   C     C_1   0.621977 0.128566 0.619330 -0.189528
C52   C     C_1   0.643984 0.373540 0.879665 -0.190447
C53   C     C_3   0.813855 0.224864 0.743081 -0.228195
C54   C     C_3   0.631183 0.213234 0.704356 0.110202
C55   C     C_3   0.694469 0.202221 0.812882 0.049740
C56   C     C_3   0.641922 0.289680 0.794459 0.095348
C57   C     C_3   0.514252 0.190466 0.773989 0.174884
C58   C     C_3   0.459509 0.278087 0.756124 -0.195800
C59   C     C_1   0.626510 0.167686 0.656757 -0.038222
C60   C     C_1   0.643109 0.335295 0.841668 -0.049813
H17   H     H_    0.960325 0.204384 0.736723 0.118547
C61   C     C_3   0.007524 0.762202 0.552577 -0.753588
H18   H     H_    0.140018 0.797916 0.532500 0.187519
H19   H     H_    0.978864 0.731729 0.514986 0.189658
H20   H     H_    0.877906 0.797497 0.551410 0.227944
C62   C     C_3   0.250657 0.519958 0.808792 -0.711673
H21   H     H_    0.284968 0.471198 0.789945 0.182305
H22   H     H_    0.392201 0.542656 0.818531 0.210785
H23   H     H_    0.162925 0.492376 0.857728 0.220008
C63   C     C_3   0.829340 0.355135 0.442720 -0.815091
H24   H     H_    0.865139 0.417913 0.433741 0.200507
H25   H     H_    0.700714 0.336975 0.478176 0.226010
H26   H     H_    0.952291 0.317553 0.469090 0.211548
C64   C     C_3   0.611159 0.019518 0.297638 -0.760976
H27   H     H_    0.514551 0.995274 0.344377 0.221191
H28   H     H_    0.628441 0.973105 0.274766 0.203681
H29   H     H_    0.758643 0.029865 0.313352 0.201170
C65   C     C_3   0.355255 0.015874 0.182209 -0.812825
H30   H     H_    0.253240 0.026866 0.137854 0.199440
H31   H     H_    0.474329 0.979481 0.174365 0.213151
H32   H     H_    0.275185 0.982432 0.231917 0.223571
C66   C     C_3   0.919604 0.668234 0.375032 -0.841076
H33   H     H_    0.865245 0.611194 0.373368 0.203434
H34   H     H_    0.011082 0.656292 0.422353 0.211010
H35   H     H_    0.795683 0.704844 0.378455 0.214746
C67   C     C_R   0.506167 0.358111 0.617394 0.105496
C68   C     C_R   0.623126 0.421169 0.573817 -0.135474
C69   C     C_R   0.548374 0.477577 0.512411 -0.120054
C70   C     C_R   0.356290 0.471942 0.494539 -0.083486
C71   C     C_R   0.239352 0.409489 0.537761 -0.130399
C72   C     C_R   0.314271 0.352170 0.598447 -0.139848
H36   H     H_    0.771571 0.427131 0.587112 0.099615
H37   H     H_    0.638957 0.526024 0.479040 0.111817
H38   H     H_    0.297695 0.516195 0.447540 0.103760
H39   H     H_    0.089821 0.406092 0.524954 0.114023
H40   H     H_    0.221186 0.304497 0.631704 0.107735
C73   C     C_3   0.374151 0.120825 0.802428 -0.838279
H41   H     H_    0.309126 0.119554 0.852975 0.215342
H42   H     H_    0.259378 0.127139 0.763119 0.201772
H43   H     H_    0.451684 0.064748 0.812019 0.218598
C74   C     C_R   0.753113 0.144124 0.884054 0.111685
C75   C     C_R   0.890101 0.086186 0.888609 -0.142929
C76   C     C_R   0.941578 0.031146 0.954582 -0.142086
C77   C     C_R   0.856132 0.033231 0.016425 -0.077501
C78   C     C_R   0.717361 0.089732 0.012252 -0.120827
C79   C     C_R   0.664240 0.144566 0.946355 -0.141031
H44   H     H_    0.954689 0.082569 0.841233 0.107149
H45   H     H_    0.045189 0.986103 0.957591 0.106249
H46   H     H_    0.894104 0.990191 0.067512 0.098178
H47   H     H_    0.649788 0.090297 0.060136 0.131685
H48   H     H_    0.553437 0.186876 0.944077 0.110978
C80   C     C_R   0.364233 0.823038 0.125104 0.103792
C81   C     C_R   0.322286 0.897699 0.074536 -0.152988
C82   C     C_R   0.431146 0.928628 0.011776 -0.126063
C83   C     C_R   0.581425 0.884960 0.998829 -0.079894
C84   C     C_R   0.624931 0.810777 0.049031 -0.124114
C85   C     C_R   0.516628 0.779862 0.111830 -0.135639
H49   H     H_    0.204867 0.931649 0.083173 0.102206
H50   H     H_    0.398642 0.986327 0.972947 0.122488
H51   H     H_    0.664124 0.908621 0.949922 0.121806
H52   H     H_    0.741386 0.776908 0.039034 0.118923
H53   H     H_    0.548466 0.721393 0.149419 0.107434
C86   C     C_3   0.179370 0.736331 0.947199 -0.788748
H54   H     H_    0.048645 0.698116 0.961837 0.201522
H55   H     H_    0.315090 0.703047 0.955220 0.223675
H56   H     H_    0.183771 0.768135 0.984757 0.201047

loop_
_geom_bond_atom_site_label_1
_geom_bond_atom_site_label_2
_ccdc_geom_bond_type
C11   H3    S    
C49   C50   S    
C13   C80   S    
C24   C25   A    
C23   C48   S    
C55   C56   S    
C10   C13   S    
O11   C46   A    
C1    O6    A    
C69   C70   A    
C57   C58   S    
C28   C29   A    
C68   H36   S    
C73   H42   S    
C20   C21   A    
C6    C10   S    
C5    C12   S    
C8    C47   S    
C4    C7    S    
C19   C20   A    
C86   H55   S    
C6    H1    S    
C3    C26   S    
O5    C3    A    
C21   C22   A    
C62   H21   S    
C28   H9    S    
O4    V1    S    
V2    O10   S    
C49   C53   S    
C67   C72   A    
C35   C36   A    
C61   H20   S    
C17   C18   A    
C81   H49   S    
C65   H30   S    
C62   H23   S    
C50   C67   S    
O11   V4    S    
O8    V2    S    
C42   H13   S    
C32   C33   A    
C40   C46   S    
C56   C58   S    
V3    O20   S    
C9    C10   S    
O1    V2    S    
C79   H48   S    
O14   V3    S    
O13   C48   A    
C78   H47   S    
O18   V4    S    
C38   C39   A    
C53   C55   S    
O9    C4    A    
H5    C29   S    
C18   H6    S    
C57   C73   S    
C78   C79   A    
C63   H25   S    
C76   H45   S    
C73   H43   S    
C50   C54   S    
C42   C43   A    
C17   C22   A    
C64   H29   S    
C86   H56   S    
C6    C14   S    
O12   C45   A    
C72   H40   S    
C64   H27   S    
C53   H17   S    
C63   H24   S    
O4    C2    A    
C27   C61   S    
C32   C65   S    
C22   C26   A    
H2    C14   S    
C54   C57   S    
C11   C12   S    
V4    O20   S    
C7    C15   T    
O18   C47   A    
C70   H38   S    
C39   C40   A    
C65   H32   S    
C45   C51   S    
C44   H14   S    
O2    C1    A    
O5    V1    S    
C41   C42   A    
C43   C63   S    
O19   C48   A    
C30   C62   S    
C49   C56   S    
C34   C35   A    
C5    C6    S    
C53   C54   S    
C5    C9    S    
C31   C32   A    
C61   H19   S    
O14   C46   A    
C63   H26   S    
C82   C83   A    
O3    C4    A    
C74   C79   A    
O16   V4    S    
C23   C24   A    
O19   V4    S    
C71   H39   S    
C39   C44   A    
C55   C74   S    
O6    V2    S    
C49   H15   S    
C24   C27   A    
C25   C26   A    
O15   C47   A    
C68   C69   A    
O2    V1    S    
O17   V4    S    
C82   H50   S    
C27   C28   A    
C52   C60   T    
C70   C71   A    
O7    V1    S    
C33   C34   A    
C29   C30   A    
C84   C85   A    
C38   C41   A    
C8    C16   T    
C77   H46   S    
C83   H51   S    
O1    C2    A    
C75   H44   S    
O15   V3    S    
C77   C78   A    
C84   H52   S    
C64   H28   S    
O8    C3    A    
C55   C57   S    
C36   C40   A    
C33   H10   S    
C31   C64   S    
C11   C13   S    
C73   H41   S    
C12   C14   S    
C41   H12   S    
C9    H4    S    
C66   H35   S    
O9    V2    S    
C71   C72   A    
C37   C38   A    
C34   H11   S    
O12   V3    S    
O3    V1    S    
V1    O10   S    
C74   C75   A    
C43   C44   A    
C21   C23   A    
C20   H8    S    
C62   H22   S    
C54   C59   S    
C67   C68   A    
C2    C52   S    
C56   C60   S    
C17   C86   S    
O13   V3    S    
C35   C37   A    
C80   C85   A    
C25   C30   A    
C9    C11   S    
O7    V2    S    
C61   H18   S    
C65   H31   S    
C86   H54   S    
C31   C36   A    
O17   V3    S    
C5    C66   S    
C10   C15   S    
C80   C81   A    
C45   O16   A    
C1    C37   S    
C83   C84   A    
C66   H33   S    
C75   C76   A    
C18   C19   A    
C51   C59   T    
C81   C82   A    
C69   H37   S    
C66   H34   S    
C85   H53   S    
H16   C58   S    
C50   C58   S    
C19   H7    S    
C76   C77   A    
C13   C14   S    
C12   C16   S    
