data_mof_unit_1200.cif
_audit_creation_date              2012-12-10T17:33:11-0500
_audit_creation_method            fapswitch 2.2
_symmetry_space_group_name_H-M    P1
_symmetry_Int_Tables_number       1
_space_group_crystal_system       triclinic
_cell_length_a                    12.082403
_cell_length_b                    12.831828
_cell_length_c                    13.607344
_cell_angle_alpha                 92.050227
_cell_angle_beta                  77.964463
_cell_angle_gamma                 93.170605
_cell_volume                      2059.50616401

loop_
_atom_site_label
_atom_site_type_symbol
_atom_type_description
_atom_site_fract_x
_atom_site_fract_y
_atom_site_fract_z
_atom_type_partial_charge
C1    C     C_R   0.522236 0.700273 0.498141 0.876523
C2    C     C_R   0.149676 0.458857 0.457485 -0.074379
C3    C     C_R   0.968945 0.534182 0.535220 0.061260
C4    C     C_R   0.031050 0.465797 0.464796 0.061208
C5    C     C_R   0.478743 0.501115 0.687195 0.903689
C6    C     C_R   0.521252 0.498828 0.312807 0.904014
C7    C     C_1   0.539278 0.499574 0.207545 -0.226250
C8    C     C_1   0.460559 0.498768 0.792404 -0.225863
C9    C     C_2   0.550593 0.501471 0.014031 0.077090
C10   C     C_2   0.449307 0.492678 0.985702 0.076883
C11   C     C_1   0.450233 0.495941 0.881033 -0.036708
C12   C     C_R   0.477766 0.299727 0.501853 0.876636
C13   C     C_1   0.549571 0.500537 0.118832 -0.036595
C14   C     C_R   0.463934 0.188437 0.500507 -0.045960
C15   C     C_R   0.536080 0.811563 0.499468 -0.045932
C16   C     C_R   0.620606 0.969400 0.558059 -0.229067
C17   C     C_R   0.379424 0.030602 0.441895 -0.229078
C18   C     C_R   0.618403 0.861841 0.545509 -0.217074
C19   C     C_R   0.381613 0.138159 0.454462 -0.217076
C20   C     C_R   0.459637 0.867591 0.461546 -0.279521
C21   C     C_R   0.540394 0.132409 0.538407 -0.279547
C22   C     C_3   0.336942 0.481608 0.061745 -0.399878
C23   C     C_R   0.459670 0.974401 0.475344 0.189587
C24   C     C_3   0.231752 0.466536 0.014719 -0.332678
C25   C     C_3   0.123701 0.453975 0.095680 -0.903441
C26   C     C_3   0.662890 0.513423 0.938011 -0.399861
C27   C     C_3   0.768574 0.522448 0.984746 -0.333622
C28   C     C_3   0.876647 0.534698 0.903770 -0.901772
C29   C     C_3   0.198168 0.662245 0.655040 -0.395921
C30   C     C_3   0.192767 0.776856 0.628005 -0.367812
C31   C     C_3   0.255601 0.850054 0.691114 -0.859451
C32   C     C_3   0.801841 0.337792 0.344919 -0.396003
C33   C     C_3   0.807274 0.223160 0.371867 -0.367841
C34   C     C_R   0.540365 0.025601 0.524604 0.189600
C35   C     C_3   0.744416 0.150012 0.308735 -0.859488
C36   C     C_R   0.973147 0.405247 0.403571 -0.329562
C37   C     C_R   0.026850 0.594737 0.596441 -0.329562
C38   C     C_R   0.854926 0.411075 0.413542 0.259790
C39   C     C_R   0.145074 0.588926 0.586454 0.259815
C40   C     C_R   0.850320 0.541127 0.542528 -0.074517
H1    H     H_    0.601691 0.172407 0.576372 0.146873
H2    H     H_    0.980148 0.647458 0.652053 0.140238
H3    H     H_    0.127184 0.384902 0.141701 0.257850
H4    H     H_    0.112718 0.524792 0.145468 0.266856
H5    H     H_    0.049272 0.442600 0.059755 0.250723
H6    H     H_    0.225139 0.535318 0.969202 0.225410
H7    H     H_    0.239138 0.395621 0.964834 0.228938
H8    H     H_    0.339650 0.413219 0.109033 0.202995
H9    H     H_    0.327937 0.552697 0.111426 0.206452
H10   H     H_    0.885048 0.465643 0.851610 0.266701
H11   H     H_    0.875384 0.606132 0.860305 0.258046
H12   H     H_    0.398346 0.827593 0.423576 0.146866
H13   H     H_    0.951461 0.541641 0.939500 0.250942
H14   H     H_    0.763831 0.591498 0.036933 0.229379
H15   H     H_    0.772895 0.451234 0.027752 0.225011
H16   H     H_    0.670118 0.444716 0.885255 0.207244
H17   H     H_    0.661519 0.584582 0.894012 0.202248
H18   H     H_    0.215812 0.843582 0.772101 0.254688
H19   H     H_    0.345919 0.830628 0.679437 0.266736
H20   H     H_    0.251802 0.931905 0.668605 0.257525
H21   H     H_    0.230947 0.787334 0.547232 0.235309
H22   H     H_    0.103275 0.799255 0.641054 0.213077
H23   H     H_    0.322221 0.182188 0.425115 0.152945
H24   H     H_    0.152333 0.650510 0.733990 0.172796
H25   H     H_    0.286090 0.646720 0.653402 0.262283
H26   H     H_    0.654082 0.169408 0.320490 0.266746
H27   H     H_    0.784145 0.156574 0.227743 0.254652
H28   H     H_    0.748272 0.068138 0.331154 0.257543
H29   H     H_    0.896771 0.200768 0.358766 0.213118
H30   H     H_    0.769125 0.212619 0.452639 0.235288
H31   H     H_    0.713909 0.353299 0.346588 0.262335
H32   H     H_    0.847660 0.349589 0.265972 0.173043
H33   H     H_    0.677786 0.817813 0.574868 0.152951
H34   H     H_    0.683278 0.008262 0.595063 0.138569
H35   H     H_    0.316752 0.991740 0.404890 0.138591
H36   H     H_    0.196833 0.405038 0.403579 0.129378
H37   H     H_    0.803164 0.594944 0.596436 0.129425
H38   H     H_    0.019850 0.352527 0.347959 0.140416
N1    N     N_R   0.206090 0.519450 0.517820 -0.110577
N2    N     N_R   0.793910 0.480550 0.482180 -0.110598
O1    O     O_R   0.421240 0.658850 0.504760 -0.630952
O2    O     O_R   0.578760 0.341150 0.495240 -0.630946
O3    O     O_R   0.609960 0.646370 0.493320 -0.619012
O4    O     O_R   0.390040 0.353630 0.506680 -0.619013
O5    O     O_R   0.392060 0.507120 0.646890 -0.634924
O6    O     O_R   0.607940 0.492880 0.353110 -0.634997
O7    O     O_R   0.580780 0.494630 0.635450 -0.611251
O8    O     O_R   0.419220 0.505370 0.364550 -0.611195
Zn1   Zn    Zn3+2 0.373990 0.508340 0.507630 0.925860
Zn2   Zn    Zn3+2 0.626010 0.491660 0.492370 0.925787

loop_
_geom_bond_atom_site_label_1
_geom_bond_atom_site_label_2
_ccdc_geom_bond_type
C15   C18   A    
C22   H8    S    
C4    C36   A    
C25   H3    S    
C27   H14   S    
C32   H32   S    
C10   C22   S    
C26   C27   S    
C17   C23   A    
C16   H34   S    
C14   C21   A    
C30   C31   S    
C28   H11   S    
C27   H15   S    
C1    O1    A    
C21   H1    S    
C6    O8    A    
C12   O4    A    
C31   H19   S    
C37   H2    S    
C9    C13   S    
C2    N1    A    
C17   C19   A    
C28   H10   S    
C19   H23   S    
C40   N2    A    
C1    C15   S    
C32   C38   S    
C9    C10   D    
C33   H29   S    
O1    Zn1   S    
C29   H24   S    
C25   H4    S    
C9    C26   S    
C32   H31   S    
C15   C20   A    
C24   C25   S    
O6    Zn2   S    
O5    Zn1   S    
C21   C34   A    
C35   H26   S    
C26   H16   S    
C39   N1    A    
C31   H20   S    
C2    C4    A    
C29   C30   S    
C20   C23   A    
C35   H27   S    
C23   C34   A    
C16   C34   A    
C29   C39   S    
C12   O2    A    
C33   H30   S    
C22   H9    S    
C29   H25   S    
C16   C18   A    
C12   C14   S    
C3    C40   A    
C18   H33   S    
C30   H22   S    
C22   C24   S    
O7    Zn2   S    
O4    Zn1   S    
C3    C4    A    
C25   H5    S    
C2    H36   S    
C31   H18   S    
O3    Zn2   S    
C24   H7    S    
C14   C19   A    
C6    O6    A    
C5    C8    S    
C28   H13   S    
C6    C7    S    
C1    O3    A    
O2    Zn2   S    
C24   H6    S    
C32   C33   S    
C36   C38   A    
C5    O5    A    
C20   H12   S    
C36   H38   S    
C38   N2    A    
C35   H28   S    
C8    C11   T    
C33   C35   S    
N2    Zn2   S    
C26   H17   S    
N1    Zn1   S    
C10   C11   S    
C5    O7    A    
C7    C13   T    
O8    Zn1   S    
C3    C37   A    
C37   C39   A    
C30   H21   S    
C27   C28   S    
C17   H35   S    
C40   H37   S    
