data_mof_unit_142.cif
_audit_creation_date              2012-12-11T17:10:37-0500
_audit_creation_method            fapswitch 2.2
_symmetry_space_group_name_H-M    P1
_symmetry_Int_Tables_number       1
_space_group_crystal_system       triclinic
_cell_length_a                    14.824694
_cell_length_b                    14.908279
_cell_length_c                    14.971508
_cell_angle_alpha                 109.66049
_cell_angle_beta                  110.004856
_cell_angle_gamma                 109.170216
_cell_volume                      2533.71300798

loop_
_atom_site_label
_atom_site_type_symbol
_atom_type_description
_atom_site_fract_x
_atom_site_fract_y
_atom_site_fract_z
_atom_type_partial_charge
C1    C     C_R   0.186166 0.279741 0.258916 -0.133535
C2    C     C_R   0.404779 0.495313 0.195062 -0.132057
C3    C     C_R   0.564100 0.815773 0.591729 -0.131151
C4    C     C_R   0.526120 0.433153 0.746616 -0.111659
C5    C     C_R   0.724113 0.476930 0.410137 -0.095008
C6    C     C_R   0.547486 0.825043 0.498607 0.077876
C7    C     C_R   0.828527 0.556038 0.503728 0.050362
C8    C     C_R   0.435517 0.433269 0.132931 0.073234
C9    C     C_R   0.802183 0.804496 0.869354 0.105987
C10   C     C_R   0.090359 0.584702 0.177174 -0.116548
C11   C     C_R   0.095768 0.615349 0.278814 -0.159626
C12   C     C_R   0.454958 0.453054 0.779315 0.050535
C13   C     C_R   0.015493 0.543394 0.288735 0.117705
C14   C     C_R   0.928260 0.441831 0.194735 -0.186223
C15   C     C_R   0.922753 0.412086 0.093129 -0.083396
C16   C     C_R   0.516987 0.208862 0.408228 -0.104346
C17   C     C_R   0.003888 0.483318 0.084425 -0.036652
C18   C     C_R   0.929703 0.571455 0.403109 -0.223423
C19   C     C_R   0.933199 0.605977 0.504329 0.056793
C20   C     C_R   0.038267 0.671490 0.601900 0.045063
C21   C     C_R   0.129629 0.671326 0.595816 -0.230123
C22   C     C_R   0.118779 0.610486 0.494718 0.047702
C23   C     C_R   0.574733 0.202737 0.498249 0.007716
C24   C     C_R   0.022551 0.575027 0.396937 0.034595
C25   C     C_R   0.040214 0.829990 0.732420 -0.144872
C26   C     C_R   0.069885 0.901545 0.839137 -0.088121
C27   C     C_R   0.115574 0.882878 0.924836 -0.152052
C28   C     C_R   0.291629 0.598449 0.588920 -0.129777
C29   C     C_R   0.129589 0.790673 0.904267 -0.025779
C30   C     C_R   0.102956 0.721085 0.797548 -0.250376
C31   C     C_R   0.058268 0.740424 0.711553 0.094718
C32   C     C_R   0.472018 0.365254 0.892914 0.056766
C33   C     C_R   0.417647 0.410048 0.841485 0.057478
C34   C     C_R   0.198916 0.571651 0.496012 0.073604
C35   C     C_R   0.338037 0.426140 0.864552 -0.161754
C36   C     C_R   0.332158 0.420454 0.954011 -0.184259
C37   C     C_R   0.404660 0.396808 0.018565 0.060577
C38   C     C_R   0.462248 0.354655 0.977283 0.174863
C39   C     C_3   0.578188 0.374959 0.034277 -0.600417
C40   C     C_R   0.598016 0.291409 0.590336 -0.147172
C41   C     C_3   0.590525 0.389471 0.943089 -0.292791
C42   C     C_R   0.533268 0.921556 0.394267 0.158337
C43   C     C_R   0.588511 0.924850 0.492855 0.013239
C44   C     C_R   0.670366 0.028046 0.587555 -0.194769
C45   C     C_R   0.473907 0.720932 0.407453 -0.139009
C46   C     C_R   0.677037 0.124481 0.588312 -0.183883
C47   C     C_R   0.602806 0.116733 0.493394 0.067633
C48   C     C_R   0.540051 0.015780 0.394911 0.236305
C49   C     C_3   0.420697 0.957383 0.307491 -0.496995
C50   C     C_3   0.412746 0.853898 0.306857 -0.555038
C51   C     C_R   0.964897 0.073080 0.133854 0.184592
C52   C     C_R   0.200050 0.505124 0.406807 -0.157849
C53   C     C_R   0.066124 0.075307 0.178525 0.041918
C54   C     C_R   0.061286 0.972830 0.147618 -0.210285
C55   C     C_R   0.967472 0.877798 0.051299 -0.166157
C56   C     C_R   0.815711 0.567111 0.594070 -0.125146
C57   C     C_R   0.878802 0.885851 0.986934 0.038100
C58   C     C_R   0.874533 0.981275 0.037516 0.077630
C59   C     C_3   0.829614 0.047398 0.000906 -0.273041
C60   C     C_3   0.929623 0.148567 0.106769 -0.599118
C61   C     C_R   0.437611 0.529307 0.752964 -0.104730
C62   C     C_R   0.275448 0.185567 0.254788 -0.061708
C63   C     C_R   0.172368 0.176263 0.231955 0.029964
C64   C     C_2   0.169680 0.765964 0.993206 0.972920
C65   C     C_2   0.526751 0.176026 0.308136 0.952030
C66   C     C_2   0.676969 0.505376 0.985235 1.079954
C67   C     C_R   0.495354 0.402962 0.196844 -0.125984
C68   C     C_2   0.831095 0.051327 0.902213 1.035706
C69   C     C_R   0.707064 0.799387 0.804090 -0.115983
C70   C     C_R   0.801551 0.711208 0.805955 -0.114653
H1    H     H_    0.126631 0.304951 0.260564 0.116992
H2    H     H_    0.163305 0.694123 0.350049 0.117457
H3    H     H_    0.554031 0.375668 0.750692 0.099958
H4    H     H_    0.865551 0.385119 0.200446 0.118754
H5    H     H_    0.855893 0.333523 0.021259 0.143332
H6    H     H_    0.207714 0.714311 0.671876 0.130020
H7    H     H_    0.006436 0.846150 0.666903 0.120907
H8    H     H_    0.058786 0.972404 0.855836 0.164144
H9    H     H_    0.140556 0.941000 0.007163 0.164809
H10   H     H_    0.289738 0.454990 0.822430 0.132400
H11   H     H_    0.633193 0.450635 0.117174 0.209545
H12   H     H_    0.876980 0.617939 0.680078 0.123500
H13   H     H_    0.601071 0.324237 0.891845 0.138545
H14   H     H_    0.731404 0.202190 0.665170 0.143968
H15   H     H_    0.369954 0.984524 0.337346 0.194057
H16   H     H_    0.410004 0.954176 0.229098 0.227875
H17   H     H_    0.357277 0.821572 0.336470 0.199394
H18   H     H_    0.325712 0.659402 0.673238 0.091077
H19   H     H_    0.397236 0.792050 0.228115 0.220153
H20   H     H_    0.134181 0.968287 0.188011 0.176425
H21   H     H_    0.970908 0.802822 0.021514 0.165385
H22   H     H_    0.986537 0.203901 0.091903 0.200844
H23   H     H_    0.515212 0.339115 0.169119 0.141740
H24   H     H_    0.907019 0.190763 0.164949 0.196895
H25   H     H_    0.148607 0.476333 0.321337 0.119396
H26   H     H_    0.386102 0.563150 0.766297 0.101082
H27   H     H_    0.295944 0.121314 0.247305 0.121570
H28   H     H_    0.445641 0.696842 0.322252 0.116593
H29   H     H_    0.344146 0.518922 0.165449 0.094425
H30   H     H_    0.853553 0.536786 0.327661 0.125219
H31   H     H_    0.198389 0.795041 0.144522 0.327545
H32   H     H_    0.115335 0.650806 0.780367 0.160580
H33   H     H_    0.608477 0.131602 0.234425 0.320460
H34   H     H_    0.669907 0.845870 0.831452 0.076506
H35   H     H_    0.280430 0.446310 0.979009 0.136034
H36   H     H_    0.578858 0.300113 0.032787 0.195966
H37   H     H_    0.731238 0.668028 0.065950 0.318874
H38   H     H_    0.720599 0.033606 0.663092 0.182941
H39   H     H_    0.893353 0.031832 0.801018 0.305435
H40   H     H_    0.749978 0.031607 0.998862 0.131331
H41   H     H_    0.655831 0.321023 0.675042 0.115937
H42   H     H_    0.854694 0.680291 0.835710 0.103545
H43   H     H_    0.616806 0.880852 0.676798 0.133799
H44   H     H_    0.701896 0.445681 0.325024 0.092671
H45   H     H_    0.999869 0.459886 0.005844 0.118779
H46   H     H_    0.153560 0.639236 0.170422 0.118730
N1    N     N_R   0.291070 0.347930 0.293870 -0.047375
N2    N     N_R   0.497240 0.291100 0.443210 -0.066115
N3    N     N_R   0.347890 0.554050 0.556810 -0.041963
N4    N     N_R   0.554050 0.347900 0.556830 -0.049788
N5    N     N_R   0.291070 0.497250 0.443190 -0.043224
N6    N     N_R   0.497240 0.554030 0.706140 -0.046832
N7    N     N_R   0.347890 0.291110 0.293870 -0.024865
N8    N     N_R   0.445950 0.652100 0.443170 -0.042349
N9    N     N_R   0.708930 0.502750 0.556810 -0.047357
N10   N     N_R   0.502760 0.445970 0.293860 -0.038685
N11   N     N_R   0.652110 0.708890 0.706130 -0.046182
N12   N     N_R   0.708930 0.652070 0.706130 -0.046216
N13   N     N_R   0.445950 0.502780 0.293850 -0.044808
N14   N     N_R   0.502760 0.708900 0.556790 -0.043603
N15   N     N_R   0.652110 0.445950 0.443190 -0.044579
N16   N     N_R   0.554050 0.497220 0.706150 -0.039420
Ni1   Ni    Ni4+2 0.369690 0.500010 0.369700 0.210095
Ni2   Ni    Ni4+2 0.630310 0.499990 0.630300 0.227938
Ni3   Ni    Ni4+2 0.500000 0.369720 0.369720 0.266050
Ni4   Ni    Ni4+2 0.500000 0.630280 0.630280 0.210599
O1    O     O_2   0.193366 0.693026 0.978621 -0.667431
O2    O     O_R   0.177802 0.824308 0.093307 -0.850588
O3    O     O_2   0.466321 0.176332 0.228803 -0.680795
O4    O     O_R   0.609292 0.150795 0.306515 -0.807777
O5    O     O_2   0.754347 0.520180 0.968521 -0.672530
O6    O     O_R   0.668707 0.595165 0.043095 -0.792065
O7    O     O_2   0.774302 0.082499 0.855273 -0.700234
O8    O     O_R   0.900067 0.024905 0.867771 -0.813934

loop_
_geom_bond_atom_site_label_1
_geom_bond_atom_site_label_2
_ccdc_geom_bond_type
N9    Ni2   S    
C25   C31   A    
C39   H36   S    
C15   H5    S    
C6    C45   A    
C5    H44   S    
C27   C29   A    
C3    N14   A    
C53   C63   S    
C35   C36   A    
C3    C6    A    
N1    Ni1   S    
C2    N13   A    
C61   H26   S    
C4    N16   A    
C66   O5    D    
C64   O2    S    
C53   C54   A    
C21   H6    S    
C26   C27   A    
C26   H8    S    
N8    Ni1   S    
C52   H25   S    
C25   H7    S    
C14   H4    S    
C36   C37   A    
C9    C69   A    
C54   H20   S    
N15   Ni3   S    
C45   H28   S    
C30   C31   A    
C10   C17   A    
C23   C40   A    
C41   H13   S    
C35   H10   S    
C59   H40   S    
C68   O7    D    
C18   C19   A    
N9    N15   A    
C55   H21   S    
C46   C47   A    
C65   O4    S    
C19   C20   A    
C28   H18   S    
C32   C41   S    
C18   C24   A    
C32   C38   A    
C4    C12   A    
C29   C30   A    
C44   H38   S    
C9    C57   S    
N3    N5    A    
C29   C64   S    
C28   C34   A    
C59   C60   S    
C21   C22   A    
C18   H30   S    
C7    C56   A    
C1    C63   A    
N6    N16   A    
C62   N7    A    
C44   C46   A    
C40   H41   S    
C64   O1    D    
C60   H22   S    
C45   N8    A    
C22   C34   S    
N14   Ni4   S    
C23   C47   S    
C49   H15   S    
C9    C70   A    
C39   H11   S    
C39   C41   S    
C3    H43   S    
C67   N10   A    
C5    C7    A    
C11   H2    S    
C1    N1    A    
N10   N13   A    
C25   C26   A    
C13   C24   S    
N7    Ni3   S    
C61   N6    A    
C51   C53   A    
C42   C48   A    
C43   C44   A    
C37   C38   A    
N12   Ni2   S    
C59   C68   S    
C62   H27   S    
C52   N5    A    
C16   N2    A    
C50   H19   S    
C47   C48   A    
C30   H32   S    
C62   C63   A    
N8    N14   A    
C51   C58   A    
C1    H1    S    
C56   N9    A    
N11   Ni4   S    
H37   O6    S    
N6    Ni4   S    
C4    H3    S    
C70   H42   S    
C50   H17   S    
C42   C50   S    
C46   H14   S    
C48   C49   S    
C40   N4    A    
C2    H29   S    
N13   Ni1   S    
C16   C23   A    
C7    C19   S    
C6    C43   S    
C55   C57   A    
C22   C24   A    
C51   C60   S    
C8    C37   S    
N11   N12   A    
C10   H46   S    
C17   H45   S    
C69   H34   S    
C70   N12   A    
C15   C17   A    
C54   C55   A    
C36   H35   S    
C34   C52   A    
C49   H16   S    
C2    C8    A    
C28   N3    A    
N10   Ni3   S    
H31   O2    S    
C56   H12   S    
C41   C66   S    
C66   O6    S    
C27   H9    S    
N3    Ni4   S    
C32   C33   A    
C58   C59   S    
H33   O4    S    
C12   C61   A    
C11   C13   A    
C57   C58   A    
C38   C39   S    
C33   C35   A    
C68   O8    S    
H39   O8    S    
N4    Ni2   S    
N1    N7    A    
N2    N4    A    
C10   C11   A    
C65   O3    D    
C5    N15   A    
C20   C21   A    
C69   N11   A    
C8    C67   A    
N16   Ni2   S    
C49   C50   S    
C42   C43   A    
C67   H23   S    
C14   C15   A    
C16   C65   S    
N5    Ni1   S    
C12   C33   S    
C13   C14   A    
N2    Ni3   S    
C20   C31   S    
C60   H24   S    
