data_mof_unit_965.cif
_audit_creation_date              2012-12-10T20:49:46-0500
_audit_creation_method            fapswitch 2.2
_symmetry_space_group_name_H-M    P1
_symmetry_Int_Tables_number       1
_space_group_crystal_system       triclinic
_cell_length_a                    8.095337
_cell_length_b                    8.92624
_cell_length_c                    17.078613
_cell_angle_alpha                 90.489721
_cell_angle_beta                  85.730133
_cell_angle_gamma                 90.062309
_cell_volume                      1230.64584573

loop_
_atom_site_label
_atom_site_type_symbol
_atom_type_description
_atom_site_fract_x
_atom_site_fract_y
_atom_site_fract_z
_atom_type_partial_charge
C1    C     C_R   0.500199 0.781997 0.498618 1.008174
C2    C     C_R   0.405691 0.525093 0.218241 -0.055351
C3    C     C_R   0.606633 0.623294 0.848904 -0.188219
C4    C     C_R   0.402065 0.482031 0.140454 -0.244926
C5    C     C_R   0.503418 0.535752 0.898003 0.065349
C6    C     C_R   0.531708 0.398967 0.103405 0.048192
C7    C     C_R   0.370427 0.455095 0.869661 0.389261
C8    C     C_R   0.656269 0.337843 0.145581 0.434026
C9    C     C_R   0.354850 0.449238 0.787755 -0.146672
C10   C     C_R   0.655742 0.370217 0.226757 -0.159272
C11   C     C_2   0.539458 0.530783 0.980018 0.279676
C12   C     C_R   0.499911 0.217955 0.500038 0.990710
C13   C     C_2   0.547919 0.397736 0.017933 0.449006
C14   C     C_2   0.695963 0.729192 0.720957 0.981780
C15   C     C_2   0.283261 0.639401 0.249186 1.001380
C16   C     C_2   0.782261 0.301656 0.273615 0.937631
C17   C     C_2   0.223950 0.356791 0.754786 0.937285
C18   C     C_1   0.500082 0.934795 0.498660 -0.139506
C19   C     C_1   0.499914 0.065187 0.499242 -0.137336
C20   C     C_R   0.478442 0.506499 0.652769 0.968788
C21   C     C_R   0.521885 0.494944 0.347070 0.963300
C22   C     C_R   0.470511 0.528943 0.737543 -0.219637
C23   C     C_R   0.531921 0.467581 0.262475 -0.220986
C24   C     C_R   0.589627 0.624140 0.769102 -0.064765
H1    H     H_    0.306769 0.526759 0.105767 0.228642
H2    H     H_    0.631432 0.654617 0.061156 0.345213
H3    H     H_    0.702582 0.690551 0.873188 0.224054
H4    H     H_    0.192806 0.310282 0.896895 0.370699
H5    H     H_    0.843744 0.197618 0.141580 0.360216
H6    H     H_    0.711444 0.884772 0.636038 0.343381
H7    H     H_    0.237113 0.823838 0.316501 0.349605
H8    H     H_    0.831218 0.157420 0.359057 0.347123
H9    H     H_    0.168199 0.182750 0.685386 0.356033
H10   H     H_    0.606442 0.274771 0.924956 0.336658
N1    N     N_1   0.926360 0.500000 0.499990 -0.015695
N2    N     N_1   0.073640 0.500000 0.500010 -0.014978
O1    O     O_R   0.363150 0.714660 0.500000 -0.612698
O2    O     O_3   0.776466 0.251206 0.104874 -0.684820
O3    O     O_2   0.841604 0.745493 0.733802 -0.588497
O4    O     O_R   0.627742 0.814291 0.663256 -0.810212
O5    O     O_2   0.142041 0.637446 0.228186 -0.570990
O6    O     O_R   0.331054 0.752650 0.299958 -0.802955
O7    O     O_2   0.927845 0.337357 0.261968 -0.577535
O8    O     O_R   0.734237 0.196119 0.330832 -0.800300
O9    O     O_2   0.077982 0.386376 0.771351 -0.585163
O10   O     O_R   0.268100 0.236533 0.704572 -0.791449
O11   O     O_3   0.561414 0.260059 0.979894 -0.655069
O12   O     O_R   0.636850 0.285340 0.500000 -0.617182
O13   O     O_3   0.560584 0.667981 0.016832 -0.728373
O14   O     O_R   0.636850 0.714660 0.500000 -0.616841
O15   O     O_R   0.363150 0.285340 0.500000 -0.619699
O16   O     O_R   0.346950 0.500000 0.615800 -0.598941
O17   O     O_R   0.653050 0.500000 0.384200 -0.607380
O18   O     O_R   0.620700 0.500000 0.615800 -0.617494
O19   O     O_R   0.379300 0.500000 0.384200 -0.609056
O20   O     O_3   0.263343 0.381757 0.923635 -0.716734
Zn1   Zn    Zn3+2 0.317220 0.500000 0.500010 1.054933
Zn2   Zn    Zn3+2 0.682780 0.500000 0.499990 1.047614

loop_
_geom_bond_atom_site_label_1
_geom_bond_atom_site_label_2
_ccdc_geom_bond_type
H5    O2    S    
C2    C4    A    
O17   Zn2   S    
O12   Zn2   S    
C2    C15   S    
H7    O6    S    
C10   C23   A    
C1    O14   A    
C16   O8    S    
N1    N2    T    
C1    O1    A    
C12   O12   A    
C3    H3    S    
C4    H1    S    
H8    O8    S    
H6    O4    S    
C20   O16   A    
C10   C16   S    
C6    C13   S    
C21   O17   A    
H9    O10   S    
C11   C13   D    
C16   O7    D    
C1    C18   S    
C8    O2    S    
C7    O20   S    
N1    Zn2   S    
C11   O13   S    
C21   O19   A    
C12   C19   S    
C9    C17   S    
C17   O9    D    
C5    C11   S    
C5    C7    A    
O19   Zn1   S    
C21   C23   S    
H4    O20   S    
C22   C24   A    
C9    C22   A    
C4    C6    A    
O16   Zn1   S    
C20   C22   S    
C14   O4    S    
O14   Zn2   S    
O15   Zn1   S    
C12   O15   A    
C17   O10   S    
C15   O5    D    
C20   O18   A    
C18   C19   T    
O18   Zn2   S    
H2    O13   S    
C14   C24   S    
C2    C23   A    
C7    C9    A    
N2    Zn1   S    
C6    C8    A    
H10   O11   S    
C14   O3    D    
C13   O11   S    
C8    C10   A    
O1    Zn1   S    
C15   O6    S    
C3    C24   A    
C3    C5    A    
