data_mof_unit_3038.cif
_audit_creation_date              2012-12-10T17:31:14-0500
_audit_creation_method            fapswitch 2.2
_symmetry_space_group_name_H-M    P1
_symmetry_Int_Tables_number       1
_space_group_crystal_system       triclinic
_cell_length_a                    11.997491
_cell_length_b                    12.893209
_cell_length_c                    15.511607
_cell_angle_alpha                 87.039171
_cell_angle_beta                  116.263937
_cell_angle_gamma                 93.448192
_cell_volume                      2146.99008063

loop_
_atom_site_label
_atom_site_type_symbol
_atom_type_description
_atom_site_fract_x
_atom_site_fract_y
_atom_site_fract_z
_atom_type_partial_charge
C1    C     C_R   0.477637 0.299399 0.499284 0.889970
C2    C     C_R   0.662739 0.969581 0.528503 -0.217442
C3    C     C_R   0.348683 0.137604 0.476918 -0.201142
C4    C     C_R   0.651478 0.862352 0.523473 -0.201136
C5    C     C_R   0.568883 0.131972 0.517081 -0.275033
C6    C     C_R   0.431281 0.868001 0.483312 -0.275094
C7    C     C_R   0.558434 0.025530 0.511727 0.185876
C8    C     C_R   0.441763 0.974429 0.488758 0.185777
C9    C     C_R   0.999341 0.595311 0.406587 -0.325593
C10   C     C_R   0.000756 0.404928 0.593564 -0.330949
C11   C     C_R   0.120974 0.586838 0.416465 0.043733
C12   C     C_R   0.522396 0.700596 0.500785 0.888213
C13   C     C_R   0.879142 0.413384 0.583712 0.042841
C14   C     C_R   0.163114 0.459583 0.541449 -0.052409
C15   C     C_R   0.836896 0.540493 0.458587 -0.045179
C16   C     C_R   0.577797 0.496945 0.680919 0.875629
C17   C     C_R   0.422642 0.506288 0.319025 0.878109
C18   C     C_R   0.041517 0.465696 0.534293 0.088894
C19   C     C_R   0.958535 0.534475 0.465801 0.091925
C20   C     C_R   0.628957 0.509851 0.785189 -0.116333
C21   C     C_R   0.374098 0.519556 0.214122 -0.115834
C22   C     C_R   0.789085 0.564806 0.940290 -0.240036
C23   C     C_R   0.645295 0.589927 0.104793 -0.228093
C24   C     C_R   0.210252 0.524961 0.050564 -0.242565
C25   C     C_R   0.754239 0.540006 0.844738 0.001487
C26   C     C_R   0.246085 0.514567 0.149287 -0.000843
C27   C     C_R   0.542852 0.504287 0.822890 -0.271784
C28   C     C_R   0.462233 0.538946 0.178725 -0.277594
C29   C     C_R   0.573158 0.540115 0.914034 0.095688
C30   C     C_R   0.427908 0.550132 0.080524 0.095448
C31   C     C_R   0.699286 0.565725 0.975032 0.157133
C32   C     C_R   0.300051 0.539537 0.015907 0.156946
C33   C     C_R   0.480923 0.548081 0.946405 0.073113
C34   C     C_R   0.352328 0.543074 0.882886 -0.232852
C35   C     C_R   0.518554 0.563282 0.045122 0.074145
C36   C     C_1   0.149649 0.494990 0.180539 0.169499
C37   C     C_1   0.847501 0.549892 0.809574 0.172835
C38   C     C_R   0.733677 0.592627 0.069525 -0.212929
C39   C     C_R   0.263565 0.540524 0.917385 -0.223346
C40   C     C_R   0.535927 0.811904 0.501724 -0.056048
C41   C     C_R   0.464196 0.188073 0.498555 -0.057658
C42   C     C_R   0.337460 0.030368 0.471990 -0.217376
H1    H     H_    0.829609 0.614061 0.116932 0.153940
H2    H     H_    0.112311 0.518380 0.000489 0.143572
H3    H     H_    0.678276 0.612683 0.178291 0.139064
H4    H     H_    0.317599 0.543590 0.805694 0.154663
H5    H     H_    0.341358 0.829054 0.465455 0.158564
H6    H     H_    0.658788 0.170932 0.534896 0.158964
H7    H     H_    0.732834 0.819111 0.537811 0.165621
H8    H     H_    0.267311 0.180834 0.462548 0.165551
H9    H     H_    0.247768 0.991409 0.454599 0.140149
H10   H     H_    0.752441 0.008534 0.545924 0.140503
H11   H     H_    0.772489 0.593539 0.406454 0.117907
H12   H     H_    0.166193 0.534824 0.866794 0.172230
H13   H     H_    0.227506 0.406529 0.593574 0.122450
H14   H     H_    0.848793 0.366538 0.629899 0.127310
H15   H     H_    0.151413 0.633837 0.370411 0.127006
H16   H     H_    0.937762 0.648912 0.352956 0.138809
H17   H     H_    0.062356 0.351367 0.647210 0.144728
H18   H     H_    0.559126 0.539745 0.229120 0.164712
H19   H     H_    0.450738 0.472114 0.779139 0.157413
H20   H     H_    0.885460 0.586397 0.986709 0.140217
N1    N     N_R   0.799120 0.480200 0.517090 -0.095152
N2    N     N_R   0.200880 0.519800 0.482910 -0.095955
N3    N     N_1   0.071977 0.479222 0.205157 -0.215941
N4    N     N_1   0.921892 0.558140 0.780992 -0.231441
O1    O     O_R   0.580150 0.341050 0.504560 -0.624782
O2    O     O_R   0.419850 0.658950 0.495440 -0.626047
O3    O     O_R   0.388090 0.353760 0.493600 -0.621852
O4    O     O_R   0.611910 0.646240 0.506400 -0.622636
O5    O     O_R   0.650890 0.490020 0.640860 -0.606776
O6    O     O_R   0.349110 0.509980 0.359140 -0.606798
O7    O     O_R   0.458830 0.502730 0.629890 -0.618806
O8    O     O_R   0.541170 0.497270 0.370110 -0.619455
Zn1   Zn    Zn3+2 0.628240 0.491510 0.507320 0.951696
Zn2   Zn    Zn3+2 0.371760 0.508490 0.492680 0.950578

loop_
_geom_bond_atom_site_label_1
_geom_bond_atom_site_label_2
_ccdc_geom_bond_type
C30   C32   A    
C21   C26   A    
C3    C42   A    
C23   H3    S    
C27   C29   A    
C14   C18   A    
C2    C7    A    
O6    Zn2   S    
C7    C8    A    
C15   C19   A    
C12   O2    A    
C22   C31   A    
C30   C35   A    
C15   H11   S    
C24   C26   A    
C18   C19   A    
C39   H12   S    
C20   C25   A    
C29   C33   A    
O3    Zn2   S    
C9    H16   S    
C32   C39   A    
C5    C41   A    
C27   H19   S    
C25   C37   S    
C9    C19   A    
C4    C40   A    
C22   C25   A    
C34   H4    S    
C42   H9    S    
C13   H14   S    
C14   H13   S    
C16   O5    A    
C3    H8    S    
C28   H18   S    
C5    H6    S    
C6    H5    S    
C16   O7    A    
C11   N2    A    
O8    Zn1   S    
C5    C7    A    
C36   N3    T    
C6    C8    A    
C1    O3    A    
C34   C39   A    
C12   C40   S    
C2    C4    A    
C24   C32   A    
C22   H20   S    
C13   N1    A    
C16   C20   S    
C14   N2    A    
C37   N4    T    
C33   C34   A    
N2    Zn2   S    
C9    C11   A    
C2    H10   S    
C26   C36   S    
C21   C28   A    
C23   C35   A    
C17   O8    A    
C24   H2    S    
O7    Zn2   S    
C6    C40   A    
O1    Zn1   S    
C1    C41   S    
C12   O4    A    
C3    C41   A    
C8    C42   A    
C10   C13   A    
C1    O1    A    
C20   C27   A    
O2    Zn2   S    
C23   C38   A    
C31   C38   A    
C4    H7    S    
C28   C30   A    
C10   H17   S    
C38   H1    S    
C29   C31   A    
O5    Zn1   S    
N1    Zn1   S    
C10   C18   A    
C33   C35   A    
C17   C21   S    
C17   O6    A    
O4    Zn1   S    
C15   N1    A    
C11   H15   S    
