data_mof_unit_1216.cif
_audit_creation_date              2012-12-10T17:04:26-0500
_audit_creation_method            fapswitch 2.2
_symmetry_space_group_name_H-M    P1
_symmetry_Int_Tables_number       1
_space_group_crystal_system       triclinic
_cell_length_a                    14.965645
_cell_length_b                    10.733687
_cell_length_c                    10.042317
_cell_angle_alpha                 90.364376
_cell_angle_beta                  90.495484
_cell_angle_gamma                 90.285491
_cell_volume                      1613.04973752

loop_
_atom_site_label
_atom_site_type_symbol
_atom_type_description
_atom_site_fract_x
_atom_site_fract_y
_atom_site_fract_z
_atom_type_partial_charge
C1    C     C_R   0.500856 0.262724 0.499473 0.906642
C2    C     C_R   0.184432 0.419168 0.406613 0.475363
C3    C     C_R   0.231003 0.493499 0.499888 -0.173446
C4    C     C_R   0.326853 0.498055 0.499642 0.911985
C5    C     C_R   0.186280 0.562015 0.596977 -0.343323
C6    C     C_2   0.487204 0.932505 0.387736 -0.153577
C7    C     C_2   0.484822 0.868430 0.501176 -0.337154
C8    C     C_2   0.482430 0.066625 0.389346 -0.181658
C9    C     C_2   0.505906 0.130931 0.498420 -0.320171
C10   C     C_2   0.563324 0.549294 0.926785 -0.204675
C11   C     C_2   0.552417 0.571678 0.076323 0.664914
C12   C     C_R   0.907905 0.562150 0.601661 0.120582
C13   C     C_R   0.496752 0.737220 0.500264 0.929786
C14   C     C_R   0.673053 0.500165 0.500490 0.891943
C15   C     C_R   0.815342 0.562123 0.601748 -0.260977
C16   C     C_R   0.768571 0.498607 0.501304 -0.062884
C17   C     C_R   0.812678 0.433311 0.401167 -0.245079
C18   C     C_R   0.905057 0.429905 0.401298 0.122683
C19   C     C_R   0.953076 0.495190 0.501365 0.090210
C20   C     C_3   0.612050 0.770982 0.066358 -0.397011
C21   C     C_3   0.390568 0.364221 0.120320 -0.124735
C22   C     C_3   0.243497 0.226772 0.379569 -0.387514
C23   C     C_R   0.949940 0.362178 0.303413 -0.237139
C24   C     C_R   0.042637 0.358213 0.304771 -0.185051
C25   C     C_R   0.091321 0.423343 0.403253 0.006618
C26   C     C_R   0.046160 0.493416 0.501232 -0.016501
C27   C     C_R   0.093928 0.561273 0.599575 0.122831
C28   C     C_R   0.048719 0.628266 0.698087 -0.191824
C29   C     C_R   0.955873 0.628058 0.699631 -0.219123
H1    H     H_    0.779622 0.613078 0.678124 0.148789
H2    H     H_    0.085155 0.680400 0.773915 0.143759
H3    H     H_    0.493431 0.886728 0.291496 0.185320
H4    H     H_    0.624630 0.579059 0.879613 0.152954
H5    H     H_    0.548073 0.799006 0.017787 0.149847
H6    H     H_    0.665616 0.759016 0.991588 0.171726
H7    H     H_    0.632941 0.848560 0.133367 0.210515
H8    H     H_    0.347577 0.448718 0.118061 0.152040
H9    H     H_    0.385806 0.316841 0.217027 0.228040
H10   H     H_    0.364036 0.298715 0.043627 0.132562
H11   H     H_    0.288777 0.235573 0.467628 0.167950
H12   H     H_    0.471687 0.911190 0.597073 0.148130
H13   H     H_    0.275955 0.163539 0.307045 0.186266
H14   H     H_    0.179204 0.182421 0.408676 0.177542
H15   H     H_    0.921625 0.679828 0.776697 0.146811
H16   H     H_    0.461700 0.112652 0.298174 0.172093
H17   H     H_    0.531174 0.088170 0.588565 0.153570
H18   H     H_    0.439011 0.491429 0.894296 0.195032
H19   H     H_    0.774937 0.383521 0.324739 0.161505
H20   H     H_    0.913358 0.311810 0.226381 0.152477
H21   H     H_    0.075930 0.304728 0.228189 0.190211
H22   H     H_    0.223635 0.616812 0.669849 0.173523
N1    N     N_2   0.500970 0.501330 0.852150 -0.187397
N2    N     N_2   0.500990 0.501360 0.147810 0.030358
O1    O     O_R   0.499990 0.319060 0.613040 -0.606672
O2    O     O_3   0.480243 0.390582 0.091018 -0.596311
O3    O     O_3   0.229816 0.343339 0.318507 -0.638432
O4    O     O_R   0.500010 0.319100 0.386900 -0.605488
O5    O     O_R   0.367830 0.499950 0.613080 -0.636667
O6    O     O_R   0.367860 0.499990 0.386940 -0.610581
O7    O     O_R   0.499990 0.680900 0.613100 -0.631527
O8    O     O_R   0.500010 0.680940 0.386960 -0.586861
O9    O     O_R   0.632140 0.500010 0.613060 -0.624909
O10   O     O_R   0.632170 0.500050 0.386920 -0.578722
O11   O     O_3   0.602313 0.662410 0.143419 -0.596547
Zn1   Zn    Zn3+2 0.499980 0.499970 0.650990 0.943616
Zn2   Zn    Zn3+2 0.500020 0.500030 0.349010 1.023765

loop_
_geom_bond_atom_site_label_1
_geom_bond_atom_site_label_2
_ccdc_geom_bond_type
C15   C16   A    
C20   O11   S    
H18   N1    S    
C6    H3    S    
C1    O1    A    
C17   H19   S    
C6    C7    D    
C1    O4    A    
C12   C29   A    
C2    C25   A    
O5    Zn1   S    
C22   H14   S    
C11   N2    D    
C12   C15   A    
C22   O3    S    
O4    Zn2   S    
C23   C24   A    
C10   N1    D    
N2    O2    S    
C2    C3    A    
O10   Zn2   S    
C20   H5    S    
C9    H17   S    
C29   H15   S    
O1    Zn1   S    
C2    O3    S    
N2    Zn2   S    
C13   O8    A    
C26   C27   A    
C22   H13   S    
C14   O10   A    
C4    O6    A    
C28   C29   A    
O7    Zn1   S    
C17   C18   A    
C10   H4    S    
C22   H11   S    
C7    H12   S    
O6    Zn2   S    
C24   H21   S    
C14   C16   S    
C23   H20   S    
C16   C17   A    
C10   C11   S    
C21   H9    S    
C18   C23   A    
C14   O9    A    
C1    C9    S    
C7    C13   S    
C21   H8    S    
C24   C25   A    
C12   C19   A    
C15   H1    S    
C18   C19   A    
C4    O5    A    
C27   C28   A    
C21   O2    S    
C19   C26   A    
C8    H16   S    
C5    H22   S    
C6    C8    S    
C21   H10   S    
O9    Zn1   S    
C3    C5    A    
C25   C26   A    
C5    C27   A    
C20   H6    S    
O8    Zn2   S    
C28   H2    S    
N1    Zn1   S    
C3    C4    S    
C13   O7    A    
C8    C9    D    
C11   O11   S    
C20   H7    S    
