data_mof_unit_3700.cif
_audit_creation_date              2012-12-11T14:08:29-0500
_audit_creation_method            fapswitch 2.2
_symmetry_space_group_name_H-M    P1
_symmetry_Int_Tables_number       1
_space_group_crystal_system       triclinic
_cell_length_a                    11.004879
_cell_length_b                    10.938368
_cell_length_c                    18.91443
_cell_angle_alpha                 89.802218
_cell_angle_beta                  89.622066
_cell_angle_gamma                 59.822262
_cell_volume                      1968.21086469

loop_
_atom_site_label
_atom_site_type_symbol
_atom_type_description
_atom_site_fract_x
_atom_site_fract_y
_atom_site_fract_z
_atom_type_partial_charge
Br1   Br    Br    0.440496 0.975319 0.823157 -0.092116
Br2   Br    Br    0.768677 0.841700 0.608114 -0.390366
Br3   Br    Br    0.532959 0.361078 0.825783 -0.260505
Br4   Br    Br    0.189450 0.405221 0.836009 -0.247492
Br5   Br    Br    0.205874 0.826487 0.797059 -0.395286
Br6   Br    Br    0.981402 0.471684 0.198018 -0.383492
Br7   Br    Br    0.498063 0.828617 0.202230 -0.242760
Br8   Br    Br    0.423266 0.096031 0.339661 -0.274916
Br9   Br    Br    0.030759 0.719590 0.313715 -0.398348
Br10  Br    Br    0.434224 0.945954 0.658815 -0.194987
C1    C     C_R   0.232738 0.646433 0.606957 0.585000
C2    C     C_2   0.772330 0.159867 0.709301 -0.018027
C3    C     C_2   0.171064 0.660689 0.676562 -0.050091
C4    C     C_R   0.654232 0.622567 0.601237 0.630086
C5    C     C_2   0.181471 0.675989 0.836397 0.165190
C6    C     C_2   0.199667 0.563962 0.797627 0.258526
C7    C     C_2   0.234517 0.551433 0.722194 0.440138
C8    C     C_2   0.682352 0.674321 0.335222 0.465206
C9    C     C_2   0.692941 0.705794 0.176107 0.173622
C10   C     C_2   0.787473 0.606254 0.219473 0.155639
C11   C     C_2   0.740692 0.577760 0.284305 0.011350
C12   C     C_3   0.772872 0.535429 0.792551 -0.180545
C13   C     C_2   0.659490 0.151779 0.329129 0.404336
C14   C     C_2   0.707057 0.031268 0.184926 -0.073121
C15   C     C_2   0.587569 0.082394 0.221144 -0.061985
C16   C     C_R   0.625164 0.232031 0.603027 0.620069
C17   C     C_2   0.579284 0.105656 0.296982 0.206497
C18   C     C_2   0.230721 0.644562 0.322828 0.139622
C19   C     C_2   0.198633 0.633428 0.166654 -0.072308
C20   C     C_2   0.256031 0.696427 0.201950 0.446252
C21   C     C_2   0.314619 0.641469 0.270587 0.354293
C22   C     C_R   0.704250 0.101911 0.898378 0.586827
C23   C     C_3   0.715108 0.695236 0.807621 -0.039442
C24   C     C_R   0.749946 0.709142 0.882495 0.638319
C25   C     C_R   0.116264 0.708350 0.906539 0.610277
C26   C     C_R   0.707156 0.030654 0.108714 0.519032
C27   C     C_R   0.730828 0.717126 0.104692 0.535282
C28   C     C_R   0.285046 0.622077 0.392801 0.617036
C29   C     C_R   0.100076 0.704526 0.110162 0.571105
C30   C     C_R   0.648054 0.628329 0.398876 0.616143
C31   C     C_R   0.618243 0.225928 0.396180 0.593051
C32   C     C_3   0.552539 0.775903 0.791222 0.495060
C33   C     C_3   0.532506 0.763680 0.710357 0.057595
C34   C     C_3   0.676619 0.654471 0.674546 -0.065843
C35   C     C_3   0.787732 0.751539 0.756449 0.594173
C36   C     C_3   0.785831 0.704427 0.679412 0.056040
C37   C     C_3   0.738953 0.513047 0.717557 0.587376
C38   C     C_2   0.662814 0.170236 0.673574 0.514570
C39   C     C_2   0.691801 0.176566 0.833270 0.259078
C40   C     C_2   0.793314 0.114730 0.783574 -0.021738
Cr1   Cr    Cr6+3 0.393010 0.398050 0.501480 1.185299
Cr2   Cr    Cr6+3 0.398820 0.707980 0.501630 1.170568
Cr3   Cr    Cr6+3 0.708140 0.393940 0.496850 1.151017
Cr4   Cr    Cr6+3 0.937950 0.938450 0.008940 1.141505
Cr5   Cr    Cr6+3 0.626180 0.937030 0.994750 1.167322
Cr6   Cr    Cr6+3 0.937790 0.625760 0.001410 1.127721
F1    F     F_    0.863393 0.406085 0.688288 -0.593082
F2    F     F_    0.720689 0.896643 0.760788 -0.553776
F3    F     F_    0.642680 0.467317 0.718272 -0.597625
F4    F     F_    0.924324 0.700544 0.776438 -0.690415
F5    F     F_    0.570193 0.140546 0.706419 -0.462216
F6    F     F_    0.335884 0.421763 0.699354 -0.511194
F7    F     F_    0.497067 0.705710 0.828396 -0.579453
F8    F     F_    0.673123 0.802528 0.331253 -0.596792
F9    F     F_    0.763565 0.159380 0.293719 -0.615154
F10   F     F_    0.234689 0.825774 0.183189 -0.515703
F11   F     F_    0.451633 0.600078 0.282641 -0.653461
H1    H     H_    0.891580 0.612458 0.667358 0.189951
H2    H     H_    0.889040 0.476200 0.799489 0.206982
H3    H     H_    0.729772 0.489309 0.830888 0.223398
H4    H     H_    0.888470 0.015752 0.795261 0.164267
H5    H     H_    0.850931 0.176317 0.683087 0.174401
H6    H     H_    0.084405 0.762848 0.692440 0.136391
H7    H     H_    0.757299 0.471394 0.290355 0.178532
H8    H     H_    0.489147 0.114111 0.194256 0.196673
H9    H     H_    0.807616 0.989998 0.211072 0.213255
H10   H     H_    0.459318 0.721986 0.705007 0.217147
H11   H     H_    0.216614 0.530692 0.183909 0.107507
O1    O     O_R   0.507110 0.256280 0.580300 -0.393273
O2    O     O_R   0.837080 0.593860 0.915300 -0.494585
O3    O     O_R   0.064770 0.636080 0.932550 -0.481986
O4    O     O_R   0.280830 0.527190 0.577940 -0.432807
O5    O     O_R   0.068250 0.829200 0.092940 -0.428919
O6    O     O_R   0.799650 0.057040 0.080330 -0.455822
O7    O     O_R   0.586130 0.079760 0.077080 -0.496668
O8    O     O_R   0.627700 0.809630 0.066580 -0.466420
O9    O     O_R   0.816140 0.597180 0.075920 -0.451445
O10   O     O_R   0.045360 0.639170 0.081440 -0.508365
O11   O     O_3   0.833980 0.833750 0.001700 -0.377388
O12   O     O_R   0.524640 0.695370 0.425100 -0.459612
O13   O     O_R   0.261360 0.738990 0.584270 -0.494067
O14   O     O_R   0.532590 0.694780 0.574370 -0.485814
O15   O     O_R   0.744470 0.503750 0.577000 -0.424052
O16   O     O_R   0.698520 0.277230 0.571620 -0.525584
O17   O     O_R   0.498530 0.256920 0.419280 -0.518403
O18   O     O_R   0.272880 0.527780 0.428680 -0.484197
O19   O     O_R   0.252780 0.739630 0.423250 -0.454194
O20   O     O_R   0.735890 0.504390 0.415980 -0.540238
O21   O     O_R   0.690560 0.277820 0.422350 -0.458518
O22   O     O_3   0.499990 0.499990 0.499980 -0.344897
O23   O     O_R   0.089190 0.825870 0.932320 -0.460813
O24   O     O_R   0.819070 0.053960 0.931440 -0.522940
O25   O     O_R   0.607070 0.076440 0.916460 -0.431766
O26   O     O_R   0.647110 0.806550 0.917690 -0.433714

loop_
_geom_bond_atom_site_label_1
_geom_bond_atom_site_label_2
_ccdc_geom_bond_type
C16   O16   A    
C35   F4    S    
Cr5   O7    S    
C8    C11   D    
C23   C35   S    
Cr4   O23   S    
Cr2   O12   S    
C9    C10   D    
C2    C38   D    
Cr4   O6    S    
C25   O3    A    
Cr6   O3    S    
C35   C36   S    
Br2   C36   S    
C21   F11   S    
C14   C26   S    
C23   C32   S    
C30   O20   A    
C20   C21   S    
Cr6   O10   S    
C5    C6    D    
Cr5   O25   S    
Cr2   O19   S    
C8    C30   S    
C9    C27   S    
C24   O2    A    
C19   H11   S    
C6    C7    S    
C31   O21   A    
C13   C17   D    
C4    O15   A    
C34   C37   S    
C16   C38   S    
Cr1   O18   S    
C12   C37   S    
Br10  C33   S    
Cr3   O22   S    
Cr4   O24   S    
C29   O10   A    
C28   O19   A    
C5    C25   S    
Cr4   O5    S    
C34   C36   S    
C1    O4    A    
Br3   C39   S    
C35   F2    S    
Cr3   O15   S    
Cr3   O21   S    
C27   O8    A    
C14   C15   D    
Cr4   O11   S    
C14   H9    S    
Cr6   O9    S    
Cr5   O26   S    
Cr2   O22   S    
C24   O26   A    
C15   H8    S    
Br4   C6    S    
C40   H4    S    
C36   H1    S    
C19   C20   D    
C7    F6    S    
C37   F1    S    
C18   C28   S    
C19   C29   S    
C23   C24   S    
C22   O25   A    
Cr1   O4    S    
C4    O14   A    
C20   F10   S    
Cr6   O11   S    
C3    H6    S    
Br7   C9    S    
C33   C34   S    
C26   O7    A    
C22   O24   A    
Cr2   O14   S    
C33   H10   S    
C32   C33   S    
C4    C34   S    
Cr1   O22   S    
C12   C23   S    
C12   H2    S    
Cr3   O16   S    
C27   O9    A    
C18   C21   D    
C25   O23   A    
Cr6   O2    S    
C2    C40   S    
Cr3   O20   S    
C15   C17   S    
Br6   C10   S    
C16   O1    A    
C13   C31   S    
C3    C7    D    
C13   F9    S    
Cr5   O8    S    
C29   O5    A    
Cr5   O11   S    
C1    C3    S    
C8    F8    S    
C38   F5    S    
C31   O17   A    
C26   O6    A    
C11   H7    S    
C2    H5    S    
Cr1   O1    S    
C22   C39   S    
Br5   C5    S    
C37   F3    S    
C1    O13   A    
Br1   C32   S    
C10   C11   S    
C39   C40   D    
C28   O18   A    
Br8   C17   S    
Cr2   O13   S    
C30   O12   A    
C32   F7    S    
C12   H3    S    
Br9   C18   S    
Cr1   O17   S    
