data_mof_unit_3489.cif
_audit_creation_date              2012-12-10T16:42:31-0500
_audit_creation_method            fapswitch 2.2
_symmetry_space_group_name_H-M    P1
_symmetry_Int_Tables_number       1
_space_group_crystal_system       triclinic
_cell_length_a                    7.617831
_cell_length_b                    8.695882
_cell_length_c                    11.0464
_cell_angle_alpha                 86.458027
_cell_angle_beta                  71.223245
_cell_angle_gamma                 102.620117
_cell_volume                      669.125849912

loop_
_atom_site_label
_atom_site_type_symbol
_atom_type_description
_atom_site_fract_x
_atom_site_fract_y
_atom_site_fract_z
_atom_type_partial_charge
C1    C     C_R   0.451979 0.200081 0.505134 0.867061
C2    C     C_R   0.548021 0.799918 0.494866 0.867062
C3    C     C_R   0.421427 0.491731 0.742849 0.720902
C4    C     C_R   0.578573 0.508268 0.257151 0.720901
C5    C     C_2   0.376922 0.486589 0.882042 0.440785
C6    C     C_2   0.623078 0.513409 0.117958 0.440787
C7    C     C_2   0.518914 0.502705 0.930852 -0.239693
C8    C     C_2   0.481085 0.497289 0.069148 -0.239687
C9    C     C_2   0.425009 0.031322 0.511187 -0.358345
C10   C     C_2   0.574991 0.968678 0.488813 -0.358349
Cu1   Cu    Cu3+1 0.688910 0.517800 0.485820 0.937692
Cu2   Cu    Cu3+1 0.311090 0.482200 0.514180 0.937692
H1    H     H_    0.333477 0.479584 0.132260 0.200400
H2    H     H_    0.666521 0.520405 0.867741 0.200401
H3    H     H_    0.279984 0.958227 0.535782 0.168496
H4    H     H_    0.720016 0.041773 0.464218 0.168495
N1    N     N_2   0.027170 0.455360 0.535550 -0.096565
N2    N     N_2   0.972830 0.544640 0.464450 -0.096565
O1    O     O_R   0.622710 0.286400 0.490790 -0.601524
O2    O     O_R   0.377290 0.713600 0.509210 -0.601523
O3    O     O_R   0.303660 0.256330 0.514730 -0.600361
O4    O     O_R   0.696340 0.743670 0.485270 -0.600360
O5    O     O_R   0.600900 0.509520 0.671740 -0.639558
O6    O     O_R   0.399100 0.490480 0.328260 -0.639559
O7    O     O_R   0.281840 0.479450 0.695690 -0.548385
O8    O     O_R   0.718160 0.520550 0.304310 -0.548386
F1    F     F_    0.808443 0.535046 0.039839 -0.618987
F2    F     F_    0.191557 0.464958 0.960160 -0.618987
C11   C     C_3   0.894712 0.307079 0.610778 -0.097149
C12   C     C_3   0.922519 0.264282 0.739127 -0.347014
C13   C     C_3   0.758859 0.126407 0.825405 -0.888043
H5    H     H_    0.620472 0.160647 0.851888 0.252574
H6    H     H_    0.748353 0.019964 0.774879 0.257414
H7    H     H_    0.786109 0.095290 0.915605 0.280496
H8    H     H_    0.056399 0.225820 0.722370 0.254750
H9    H     H_    0.926100 0.368904 0.792022 0.281975
H10   H     H_    0.748165 0.315459 0.641919 0.220146
H11   H     H_    0.912093 0.208832 0.552158 0.152929
C14   C     C_3   0.105288 0.692921 0.389221 -0.097150
C15   C     C_3   0.077483 0.735716 0.260872 -0.347008
C16   C     C_3   0.241138 0.873596 0.174596 -0.888050
H12   H     H_    0.251613 0.980045 0.225116 0.257415
H13   H     H_    0.379536 0.839373 0.148133 0.252571
H14   H     H_    0.213906 0.904693 0.084387 0.280500
H15   H     H_    0.073909 0.631094 0.207976 0.281972
H16   H     H_    0.943601 0.774173 0.277626 0.254753
H17   H     H_    0.087905 0.791169 0.447841 0.152931
H18   H     H_    0.251834 0.684541 0.358082 0.220145

loop_
_geom_bond_atom_site_label_1
_geom_bond_atom_site_label_2
_ccdc_geom_bond_type
Cu2   N1    S    
C2    O4    A    
C4    O8    A    
Cu1   Cu2   S    
C13   H6    S    
Cu1   N2    S    
C1    O3    A    
C11   C12   S    
C5    F2    S    
N1    C11   S    
C16   H12   S    
Cu2   O6    S    
Cu1   O4    S    
C3    O5    A    
C6    F1    S    
C12   H9    S    
Cu2   O7    S    
N2    C14   S    
Cu2   O2    S    
N1    N2    D    
C9    H3    S    
C13   H7    S    
C7    C8    S    
C10   H4    S    
C15   H16   S    
C16   H13   S    
Cu1   O1    S    
C8    H1    S    
C12   H8    S    
Cu1   O5    S    
C15   C16   S    
C12   C13   S    
C4    O6    A    
C16   H14   S    
C1    O1    A    
C2    O2    A    
C2    C10   S    
C3    O7    A    
C11   H11   S    
C1    C9    S    
C15   H15   S    
C4    C6    S    
C9    C10   D    
C11   H10   S    
C14   C15   S    
C5    C7    D    
C6    C8    D    
Cu1   O8    S    
C14   H17   S    
Cu2   O3    S    
C7    H2    S    
C13   H5    S    
C14   H18   S    
C3    C5    S    
