data_mof_unit_3776.cif
_audit_creation_date              2012-12-11T16:13:44-0500
_audit_creation_method            fapswitch 2.2
_symmetry_space_group_name_H-M    P1
_symmetry_Int_Tables_number       1
_space_group_crystal_system       triclinic
_cell_length_a                    25.984382
_cell_length_b                    7.414603
_cell_length_c                    23.829754
_cell_angle_alpha                 89.668163
_cell_angle_beta                  101.191649
_cell_angle_gamma                 90.326748
_cell_volume                      4503.7007088

loop_
_atom_site_label
_atom_site_type_symbol
_atom_type_description
_atom_site_fract_x
_atom_site_fract_y
_atom_site_fract_z
_atom_type_partial_charge
O1    O     O_R   0.192370 0.384760 0.193350 -0.530793
O2    O     O_R   0.807630 0.615240 0.806650 -0.530646
O3    O     O_R   0.307630 0.884760 0.306650 -0.530657
O4    O     O_R   0.692370 0.115240 0.693350 -0.529702
O5    O     O_R   0.296630 0.711620 0.196480 -0.539353
O6    O     O_R   0.703370 0.288380 0.803520 -0.536850
O7    O     O_R   0.203370 0.211620 0.303520 -0.540192
O8    O     O_R   0.796630 0.788380 0.696480 -0.536215
C1    C     C_R   0.311540 0.545363 0.183245 0.685395
C2    C     C_R   0.685148 0.453794 0.812783 0.679553
C3    C     C_R   0.188371 0.044181 0.316710 0.683436
C4    C     C_R   0.814370 0.955483 0.686431 0.676031
O9    O     O_R   0.192080 0.714290 0.186600 -0.535502
O10   O     O_R   0.807920 0.285710 0.813400 -0.535157
O11   O     O_R   0.307920 0.214290 0.313400 -0.535174
O12   O     O_R   0.692080 0.785710 0.686600 -0.537572
O13   O     O_R   0.202340 0.887460 0.296690 -0.534360
O14   O     O_R   0.797660 0.112540 0.703310 -0.540470
O15   O     O_R   0.297660 0.387460 0.203310 -0.532431
O16   O     O_R   0.702340 0.612540 0.796690 -0.538503
C5    C     C_R   0.173859 0.547002 0.172205 0.710170
C6    C     C_R   0.825853 0.452896 0.828364 0.724887
C7    C     C_R   0.326024 0.046952 0.327934 0.712445
C8    C     C_R   0.673971 0.952910 0.671919 0.722854
O17   O     O_3   0.253490 0.552180 0.286130 -0.383075
O18   O     O_3   0.746510 0.447820 0.713870 -0.380879
O19   O     O_3   0.246510 0.052180 0.213870 -0.383613
O20   O     O_3   0.753490 0.947820 0.786130 -0.377673
V1    V     V_3+5 0.249350 0.825920 0.243300 1.351302
V2    V     V_3+5 0.750650 0.174080 0.756700 1.369274
V3    V     V_3+5 0.250650 0.325920 0.256700 1.350133
V4    V     V_3+5 0.749350 0.674080 0.743300 1.366220
C9    C     C_3   0.539431 0.913148 0.477646 0.000018
C10   C     C_3   0.461996 0.073684 0.518871 -0.007340
C11   C     C_3   0.959442 0.412431 0.023786 -0.001708
C12   C     C_3   0.037446 0.572986 0.982219 -0.006501
C13   C     C_3   0.513409 0.096252 0.455989 -0.001185
C14   C     C_3   0.488212 0.891750 0.540749 0.009964
C15   C     C_3   0.985652 0.596233 0.044687 -0.001673
C16   C     C_3   0.011080 0.390435 0.961202 0.009792
C17   C     C_1   0.372207 0.042917 0.372805 -0.195545
C18   C     C_1   0.628202 0.955633 0.626244 -0.215506
C19   C     C_1   0.127333 0.543443 0.127800 -0.195830
C20   C     C_1   0.871339 0.455002 0.874489 -0.216337
C21   C     C_3   0.484193 0.832098 0.477718 0.409451
C22   C     C_3   0.516860 0.155888 0.518827 0.408668
C23   C     C_3   0.014630 0.332063 0.024450 0.407758
C24   C     C_3   0.982610 0.654611 0.981583 0.408432
C25   C     C_3   0.458357 0.014480 0.456072 -0.085007
C26   C     C_3   0.543179 0.974367 0.540779 -0.076181
C27   C     C_3   0.040668 0.515129 0.045264 -0.082965
C28   C     C_3   0.956132 0.472373 0.960371 -0.075877
C29   C     C_1   0.411197 0.037119 0.410171 -0.074862
C30   C     C_1   0.589768 0.957845 0.587947 -0.088843
C31   C     C_1   0.088037 0.538161 0.090841 -0.074998
C32   C     C_1   0.909662 0.456216 0.912987 -0.080203
C33   C     C_R   0.886184 0.132568 0.646226 0.061560
C34   C     C_R   0.133574 0.863608 0.378182 0.069794
C35   C     C_R   0.607054 0.610941 0.845605 0.070022
C36   C     C_R   0.362602 0.364179 0.120603 0.062474
C37   C     C_R   0.914256 0.150720 0.600166 0.089999
C38   C     C_R   0.086888 0.860174 0.401523 0.085344
C39   C     C_R   0.577405 0.630715 0.890457 0.071808
C40   C     C_R   0.410471 0.350170 0.100525 0.083637
C41   C     C_R   0.920759 0.997322 0.567094 -0.003067
C42   C     C_R   0.067496 0.022557 0.419344 0.000043
C43   C     C_R   0.577831 0.488482 0.930866 -0.004125
C44   C     C_R   0.433416 0.508155 0.082357 -0.000572
C45   C     C_R   0.894884 0.836653 0.574990 -0.189294
C46   C     C_R   0.088317 0.185190 0.404686 -0.188857
C47   C     C_R   0.608638 0.336134 0.928056 -0.183807
C48   C     C_R   0.415919 0.675684 0.097769 -0.197324
H1    H     H_    0.899040 0.720885 0.548833 0.120370
H2    H     H_    0.074327 0.308368 0.419360 0.128496
H3    H     H_    0.608321 0.225691 0.957989 0.131892
H4    H     H_    0.433190 0.797699 0.084711 0.144166
C49   C     C_R   0.861327 0.825598 0.613899 -0.186006
C50   C     C_R   0.126310 0.189781 0.370634 -0.188509
C51   C     C_R   0.642132 0.326877 0.889154 -0.198398
C52   C     C_R   0.377163 0.686973 0.131090 -0.201426
H5    H     H_    0.839660 0.701266 0.615841 0.133341
H6    H     H_    0.138424 0.319090 0.356682 0.129843
H7    H     H_    0.667806 0.211373 0.891460 0.138291
H8    H     H_    0.367576 0.817874 0.145880 0.127312
C53   C     C_R   0.855227 0.971572 0.649326 -0.102623
C54   C     C_R   0.149631 0.030760 0.356111 -0.094264
C55   C     C_R   0.643614 0.464342 0.848758 -0.094407
C56   C     C_R   0.349982 0.532094 0.143729 -0.081391
N1    N     N_R   0.944689 0.077821 0.474285 -0.294775
N2    N     N_R   0.041349 0.941386 0.509711 -0.296427
N3    N     N_R   0.504570 0.362867 0.970048 -0.309095
N4    N     N_R   0.512430 0.624514 0.049116 -0.314558
N5    N     N_R   0.979794 0.088732 0.440196 -0.308310
N6    N     N_R   0.006405 0.931007 0.543741 -0.310483
N7    N     N_R   0.470277 0.369047 0.004892 -0.301658
N8    N     N_R   0.546871 0.618380 0.014216 -0.302343
C57   C     C_R   0.028965 0.022236 0.457635 0.486391
C58   C     C_R   0.957453 0.998719 0.526736 0.516533
C59   C     C_R   0.473267 0.499969 0.045058 0.505420
C60   C     C_R   0.543307 0.488015 0.973682 0.514281
C61   C     C_3   0.523703 0.217358 0.406751 -0.320067
C62   C     C_3   0.581593 0.259751 0.407993 -0.320908
C63   C     C_3   0.587570 0.390116 0.359794 -0.782531
H9    H     H_    0.571742 0.328098 0.317591 0.230089
H10   H     H_    0.566294 0.517571 0.363341 0.233382
H11   H     H_    0.629729 0.421572 0.362019 0.222255
H12   H     H_    0.599766 0.320213 0.449708 0.206234
H13   H     H_    0.602698 0.135243 0.401300 0.209360
H14   H     H_    0.506471 0.151845 0.365496 0.164692
H15   H     H_    0.503593 0.346702 0.409564 0.234052
C64   C     C_3   0.475069 0.792579 0.592816 -0.323815
C65   C     C_3   0.435902 0.638796 0.576914 -0.276684
C66   C     C_3   0.417310 0.566648 0.629744 -0.819356
H16   H     H_    0.450820 0.509114 0.660649 0.233355
H17   H     H_    0.399151 0.676131 0.650787 0.232812
H18   H     H_    0.387453 0.459588 0.617106 0.224689
H19   H     H_    0.401451 0.683317 0.544867 0.184208
H20   H     H_    0.455661 0.529748 0.558037 0.264368
H21   H     H_    0.511292 0.738068 0.619268 0.189213
H22   H     H_    0.459361 0.891831 0.619563 0.169910
C67   C     C_3   0.975493 0.719109 0.093069 -0.323341
C68   C     C_3   0.917627 0.754942 0.093348 -0.325462
C69   C     C_3   0.911999 0.884153 0.141453 -0.778458
H23   H     H_    0.928489 0.822389 0.183662 0.232087
H24   H     H_    0.932882 0.012987 0.137320 0.233132
H25   H     H_    0.869859 0.913010 0.139801 0.222474
H26   H     H_    0.898179 0.813868 0.051746 0.204353
H27   H     H_    0.897573 0.628272 0.101209 0.210999
H28   H     H_    0.994311 0.658636 0.134743 0.165937
H29   H     H_    0.994126 0.850585 0.087891 0.240283
C70   C     C_3   0.024180 0.287128 0.910370 -0.318317
C71   C     C_3   0.065711 0.142516 0.927871 -0.276191
C72   C     C_3   0.085402 0.072284 0.875823 -0.813694
H30   H     H_    0.052698 0.008821 0.845211 0.237856
H31   H     H_    0.102487 0.184117 0.854060 0.232013
H32   H     H_    0.116378 0.970483 0.889527 0.224433
H33   H     H_    0.099370 0.193600 0.959639 0.180724
H34   H     H_    0.047466 0.030798 0.947874 0.261466
H35   H     H_    0.988440 0.219837 0.887342 0.184480
H36   H     H_    0.036830 0.385274 0.880362 0.170221
C73   C     C_3   0.579836 0.810750 0.450815 -0.329675
C74   C     C_3   0.636856 0.857501 0.478100 -0.323370
C75   C     C_3   0.674822 0.793507 0.441066 -0.776599
H37   H     H_    0.672006 0.644837 0.435893 0.234795
H38   H     H_    0.665928 0.859289 0.398307 0.229586
H39   H     H_    0.715599 0.829010 0.461938 0.224325
H40   H     H_    0.641918 0.004869 0.485135 0.193869
H41   H     H_    0.647603 0.790024 0.520349 0.206642
H42   H     H_    0.573939 0.663585 0.455613 0.209879
H43   H     H_    0.571944 0.840035 0.404190 0.172652
C76   C     C_3   0.417914 0.164616 0.542979 -0.319843
C77   C     C_3   0.367928 0.047931 0.536956 -0.310404
C78   C     C_3   0.318668 0.162852 0.531524 -0.783785
H44   H     H_    0.320941 0.249937 0.569651 0.231448
H45   H     H_    0.314010 0.248218 0.492444 0.234155
H46   H     H_    0.283685 0.073813 0.528008 0.218973
H47   H     H_    0.363264 0.960300 0.498733 0.199383
H48   H     H_    0.370405 0.960089 0.575227 0.197578
H49   H     H_    0.432640 0.195708 0.588808 0.166724
H50   H     H_    0.408211 0.293721 0.520450 0.192199
C79   C     C_3   0.918827 0.309105 0.050753 -0.329413
C80   C     C_3   0.861920 0.356158 0.023522 -0.324103
C81   C     C_3   0.823835 0.289508 0.060452 -0.775768
H51   H     H_    0.826535 0.140708 0.065600 0.234798
H52   H     H_    0.832734 0.353895 0.103236 0.229773
H53   H     H_    0.783103 0.324581 0.039537 0.223797
H54   H     H_    0.857149 0.503753 0.016733 0.193328
H55   H     H_    0.851063 0.290682 0.981154 0.206538
H56   H     H_    0.924319 0.162127 0.046043 0.207837
H57   H     H_    0.926891 0.336923 0.097376 0.172456
C82   C     C_3   0.081869 0.665490 0.958448 -0.317371
C83   C     C_3   0.131586 0.549635 0.964186 -0.311087
C84   C     C_3   0.181026 0.664926 0.968591 -0.785811
H58   H     H_    0.178832 0.750174 0.929803 0.230680
H59   H     H_    0.186066 0.751880 0.007079 0.233513
H60   H     H_    0.215804 0.576070 0.972516 0.217899
H61   H     H_    0.136522 0.462646 0.002848 0.199149
H62   H     H_    0.128495 0.462244 0.926043 0.200872
H63   H     H_    0.067315 0.699652 0.912725 0.169935
H64   H     H_    0.092052 0.792203 0.981917 0.190376
O21   O     O_3   0.529305 0.335370 0.537122 -0.551047
C85   C     C_3   0.578915 0.342541 0.573683 0.098600
H65   H     H_    0.609336 0.280482 0.552878 0.119904
H66   H     H_    0.576788 0.277382 0.615274 0.140707
C86   C     C_3   0.595689 0.534804 0.587428 -0.710599
H67   H     H_    0.583711 0.577489 0.627494 0.193808
H68   H     H_    0.639067 0.547039 0.593914 0.187747
H69   H     H_    0.577575 0.622392 0.551745 0.260307
O22   O     O_3   0.470948 0.653663 0.458109 -0.552427
C87   C     C_3   0.422830 0.652929 0.418535 0.074858
H70   H     H_    0.427421 0.724626 0.378711 0.146558
H71   H     H_    0.391290 0.711360 0.438374 0.123022
C88   C     C_3   0.405278 0.464237 0.400427 -0.731647
H72   H     H_    0.417710 0.372311 0.436615 0.248543
H73   H     H_    0.361881 0.459178 0.387444 0.205199
H74   H     H_    0.422298 0.421238 0.363390 0.198434
O23   O     O_3   0.970306 0.833419 0.962098 -0.551977
C89   C     C_3   0.919425 0.840603 0.928159 0.105032
H75   H     H_    0.890302 0.774524 0.950377 0.116609
H76   H     H_    0.919681 0.779313 0.885810 0.144157
C90   C     C_3   0.901883 0.032871 0.916075 -0.714558
H77   H     H_    0.911486 0.079527 0.875006 0.193582
H78   H     H_    0.858700 0.042710 0.912277 0.186182
H79   H     H_    0.921544 0.119092 0.951233 0.259277
O24   O     O_3   0.027603 0.153987 0.044910 -0.554508
C91   C     C_3   0.075554 0.154421 0.084754 0.071865
H80   H     H_    0.070764 0.225622 0.124321 0.146910
H81   H     H_    0.107239 0.213814 0.064963 0.126001
C92   C     C_3   0.093231 0.966295 0.103334 -0.734674
H82   H     H_    0.084286 0.876598 0.066234 0.245370
H83   H     H_    0.136185 0.966182 0.120019 0.206033
H84   H     H_    0.073694 0.917577 0.138077 0.199896
C93   C     C_3   0.889536 0.278353 0.692507 -0.329858
C94   C     C_3   0.943675 0.366698 0.713116 -0.347849
C95   C     C_3   0.949376 0.442180 0.773427 -0.785030
H85   H     H_    0.919483 0.547995 0.774468 0.229906
H86   H     H_    0.944335 0.332826 0.803711 0.224187
H87   H     H_    0.988937 0.503163 0.786902 0.218243
H88   H     H_    0.975517 0.267813 0.712295 0.210891
H89   H     H_    0.948103 0.484967 0.686121 0.206700
H90   H     H_    0.859772 0.384269 0.677880 0.171263
H91   H     H_    0.880725 0.214000 0.731604 0.196180
C96   C     C_3   0.168197 0.696261 0.384198 -0.350198
C97   C     C_3   0.222353 0.733330 0.421981 -0.276608
C98   C     C_3   0.253945 0.560175 0.435661 -0.774196
H92   H     H_    0.259357 0.492956 0.395769 0.250505
H93   H     H_    0.293184 0.592700 0.461605 0.204521
H94   H     H_    0.233512 0.465858 0.460493 0.226017
H95   H     H_    0.245419 0.829104 0.400695 0.192954
H96   H     H_    0.217111 0.794952 0.462930 0.189114
H97   H     H_    0.150644 0.586150 0.405622 0.164705
H98   H     H_    0.171546 0.641354 0.341946 0.193116
C99   C     C_3   0.598781 0.743631 0.794928 -0.347434
C100  C     C_3   0.542041 0.746677 0.760622 -0.320964
C101  C     C_3   0.527671 0.933168 0.734924 -0.792963
H99   H     H_    0.535435 0.038746 0.768407 0.229904
H100  H     H_    0.550726 0.964542 0.701442 0.230363
H101  H     H_    0.485238 0.936431 0.715834 0.215972
H102  H     H_    0.537618 0.646107 0.725531 0.178360
H103  H     H_    0.513298 0.707606 0.786887 0.219372
H104  H     H_    0.612609 0.879369 0.810938 0.171096
H105  H     H_    0.621729 0.710905 0.762135 0.184481
C102  C     C_3   0.323282 0.208006 0.109283 -0.358995
C103  C     C_3   0.270251 0.267946 0.073390 -0.273416
C104  C     C_3   0.233429 0.107509 0.056984 -0.771452
H106  H     H_    0.225980 0.037194 0.095893 0.243253
H107  H     H_    0.195439 0.155274 0.031718 0.203255
H108  H     H_    0.250850 0.011044 0.030535 0.225865
H109  H     H_    0.250483 0.365539 0.097116 0.188778
H110  H     H_    0.276926 0.335207 0.033578 0.188218
H111  H     H_    0.337803 0.101921 0.083672 0.163369
H112  H     H_    0.318427 0.141519 0.149684 0.201754
C105  C     C_3   0.930507 0.333995 0.579773 -0.377763
C106  C     C_3   0.990604 0.366615 0.591126 -0.306655
C107  C     C_3   0.007678 0.468281 0.541810 -0.696638
H113  H     H_    0.003256 0.382255 0.503373 0.241336
H114  H     H_    0.983458 0.590525 0.530784 0.240062
H115  H     H_    0.049529 0.508868 0.554225 0.223999
H116  H     H_    0.003151 0.448644 0.630035 0.184540
H117  H     H_    0.012753 0.238676 0.598734 0.215814
H118  H     H_    0.914081 0.344181 0.533187 0.195880
H119  H     H_    0.910649 0.444699 0.597830 0.156509
C108  C     C_3   0.054309 0.689142 0.401904 -0.371689
C109  C     C_3   0.037551 0.613532 0.340907 -0.328808
C110  C     C_3   0.988201 0.496272 0.334550 -0.727409
H120  H     H_    0.993008 0.387440 0.367159 0.247439
H121  H     H_    0.954030 0.580083 0.339337 0.230708
H122  H     H_    0.979990 0.434245 0.291410 0.214095
H123  H     H_    0.028979 0.726306 0.309526 0.202732
H124  H     H_    0.069857 0.533421 0.329460 0.185166
H125  H     H_    0.076109 0.591133 0.432320 0.154541
H126  H     H_    0.017926 0.714424 0.418343 0.201838
C111  C     C_3   0.547617 0.804958 0.897312 -0.367235
C112  C     C_3   0.487521 0.779302 0.889656 -0.293368
C113  C     C_3   0.457927 0.950979 0.867762 -0.751644
H127  H     H_    0.471453 0.065062 0.896999 0.261638
H128  H     H_    0.464192 0.985280 0.824213 0.230101
H129  H     H_    0.415258 0.930179 0.865762 0.218754
H130  H     H_    0.473396 0.666777 0.860028 0.187646
H131  H     H_    0.476695 0.745271 0.931194 0.223291
H132  H     H_    0.562892 0.861562 0.940404 0.185778
H133  H     H_    0.556137 0.911973 0.867934 0.197083
C114  C     C_3   0.439950 0.171940 0.106129 -0.393711
C115  C     C_3   0.494335 0.188766 0.145259 -0.305190
C116  C     C_3   0.521600 0.006338 0.154996 -0.739527
H134  H     H_    0.498138 0.910958 0.176074 0.226221
H135  H     H_    0.527102 0.949235 0.113604 0.260327
H136  H     H_    0.560710 0.023554 0.183100 0.216809
H137  H     H_    0.520024 0.281472 0.126337 0.211765
H138  H     H_    0.489960 0.244089 0.187357 0.192268
H139  H     H_    0.418548 0.069777 0.126781 0.164140
H140  H     H_    0.443232 0.119661 0.063482 0.206725

loop_
_geom_bond_atom_site_label_1
_geom_bond_atom_site_label_2
_ccdc_geom_bond_type
C83   H61   S    
C34   C38   A    
C75   H39   S    
C15   C27   S    
C82   C83   S    
C107  H114  S    
O1    C5    A    
C87   H70   S    
O19   V1    S    
C62   C63   S    
O13   V1    S    
C90   H77   S    
O3    C7    A    
C64   C65   S    
C40   C114  S    
N4    N8    A    
C67   H29   S    
C48   H4    S    
C11   C23   S    
C97   C98   S    
C92   H84   S    
C51   C55   A    
C79   C80   S    
C36   C56   A    
C101  H99   S    
C73   H42   S    
C69   H23   S    
C94   H89   S    
C42   C46   A    
C84   H58   S    
C83   C84   S    
O7    C3    A    
O5    C1    A    
C61   C62   S    
C33   C37   A    
C103  H110  S    
C4    C53   S    
C11   C28   S    
C112  H131  S    
C111  H133  S    
C40   C44   A    
C42   C57   S    
O9    V1    S    
C115  C116  S    
C113  H128  S    
C98   H92   S    
C41   C58   S    
C80   C81   S    
C116  H136  S    
C94   H88   S    
C95   H86   S    
C1    C56   S    
C65   H19   S    
O4    C8    A    
C34   C96   S    
N7    C59   A    
C69   H24   S    
C46   C50   A    
N6    C58   A    
C3    C54   S    
C71   H34   S    
C102  C103  S    
N8    C60   A    
C107  H113  S    
O1    V3    S    
C98   H94   S    
C9    C21   S    
C103  C104  S    
O2    V4    S    
C112  C113  S    
C68   H26   S    
O3    V1    S    
C20   C32   T    
C85   H65   S    
C99   H104  S    
C14   C21   S    
C70   H36   S    
C13   C61   S    
C87   C88   S    
C98   H93   S    
C5    C19   S    
C81   H51   S    
C45   C49   A    
C1    O15   A    
C105  H119  S    
C6    C20   S    
C113  H127  S    
C2    O16   A    
C109  C110  S    
C88   H73   S    
C46   H2    S    
C72   H32   S    
C109  H124  S    
C76   C77   S    
C45   H1    S    
C89   H75   S    
C10   C22   S    
C106  H117  S    
N3    C60   A    
C78   H45   S    
C99   C100  S    
N2    C57   A    
C27   C31   S    
O8    C4    A    
C66   H18   S    
C79   H56   S    
C50   C54   A    
O11   C7    A    
C107  H115  S    
O15   V3    S    
O12   C8    A    
C104  H106  S    
C68   H27   S    
C90   H78   S    
C82   H63   S    
C35   C99   S    
C93   H90   S    
O10   V2    S    
C34   C54   A    
C47   C51   A    
C65   C66   S    
C36   C102  S    
C39   C111  S    
C73   H43   S    
N2    N6    A    
O5    V1    S    
C68   C69   S    
C84   H59   S    
C77   H48   S    
C2    C55   S    
C110  H120  S    
C102  H111  S    
C103  H109  S    
C38   C42   A    
C112  H130  S    
O8    V4    S    
C93   C94   S    
C74   H41   S    
C108  C109  S    
C81   H53   S    
O7    V3    S    
C96   C97   S    
C92   H82   S    
C95   H87   S    
C52   H8    S    
C110  H121  S    
C70   H35   S    
C23   O24   S    
C94   C95   S    
C71   C72   S    
C69   H25   S    
C23   C27   S    
C9    C73   S    
C9    C26   S    
O21   C85   S    
C16   C23   S    
N3    N7    A    
C9    C13   S    
C48   C52   A    
C64   H22   S    
C85   C86   S    
C76   H49   S    
C11   C15   S    
C95   H85   S    
C39   C43   A    
O2    C6    A    
C116  H134  S    
C97   H96   S    
C101  H101  S    
C65   H20   S    
C13   C25   S    
C93   H91   S    
C50   H6    S    
O23   C89   S    
C51   H7    S    
C49   H5    S    
C44   C48   A    
C88   H74   S    
C113  H129  S    
C89   C90   S    
C111  C112  S    
O9    C5    A    
C62   H12   S    
C63   H10   S    
C11   C79   S    
C78   H46   S    
C62   H13   S    
C8    C18   S    
C61   H15   S    
C17   C29   T    
C67   C68   S    
C12   C27   S    
C43   C60   S    
C80   H55   S    
C79   H57   S    
C64   H21   S    
C21   O22   S    
C108  H126  S    
O6    V2    S    
C16   C70   S    
C33   C93   S    
C115  H137  S    
C104  H107  S    
C101  H100  S    
C72   H30   S    
C90   H79   S    
C82   H64   S    
C96   H97   S    
C100  C101  S    
C70   C71   S    
N5    C57   A    
C26   C30   S    
C12   C16   S    
C96   H98   S    
C22   O21   S    
C14   C26   S    
O17   V3    S    
C66   H16   S    
O16   V4    S    
C84   H60   S    
C83   H62   S    
C75   H38   S    
O24   C91   S    
C77   H47   S    
C3    O13   A    
C10   C25   S    
C37   C105  S    
C102  H112  S    
C85   H66   S    
C81   H52   S    
C10   C14   S    
C87   H71   S    
C109  H123  S    
C115  H138  S    
C67   H28   S    
C86   H69   S    
C15   C67   S    
C38   C108  S    
O6    C2    A    
C89   H76   S    
C10   C76   S    
O11   V3    S    
C19   C31   T    
C114  H140  S    
O12   V4    S    
C22   C26   S    
C35   C39   A    
C7    C17   S    
C100  H103  S    
C24   O23   S    
C36   C40   A    
C114  H139  S    
C76   H50   S    
C114  C115  S    
C106  C107  S    
O20   V2    S    
C13   C22   S    
C44   C59   S    
C111  H132  S    
C116  H135  S    
C16   C28   S    
C97   H95   S    
C18   C30   T    
C47   H3    S    
C12   C82   S    
C91   C92   S    
O10   C6    A    
C86   H67   S    
C105  C106  S    
N1    C58   A    
C106  H116  S    
C41   C45   A    
C74   H40   S    
C108  H125  S    
C92   H83   S    
C33   C53   A    
C21   C25   S    
C12   C24   S    
C63   H11   S    
C43   C47   A    
C100  H102  S    
C37   C41   A    
N1    N5    A    
O22   C87   S    
C110  H122  S    
C35   C55   A    
C91   H80   S    
C25   C29   S    
C86   H68   S    
O14   V2    S    
C49   C53   A    
C80   H54   S    
C14   C64   S    
C28   C32   S    
C99   H105  S    
C24   C28   S    
C77   C78   S    
C52   C56   A    
C88   H72   S    
C104  H108  S    
C4    O14   A    
C63   H9    S    
C72   H31   S    
C74   C75   S    
C105  H118  S    
C71   H33   S    
C78   H44   S    
C73   C74   S    
C91   H81   S    
C61   H14   S    
O18   V4    S    
O4    V2    S    
C75   H37   S    
N4    C59   A    
C15   C24   S    
C66   H17   S    
