data_mof_unit_2819.cif
_audit_creation_date              2012-12-11T14:56:27-0500
_audit_creation_method            fapswitch 2.2
_symmetry_space_group_name_H-M    P1
_symmetry_Int_Tables_number       1
_space_group_crystal_system       triclinic
_cell_length_a                    10.477707
_cell_length_b                    10.648258
_cell_length_c                    17.019218
_cell_angle_alpha                 80.377539
_cell_angle_beta                  89.700092
_cell_angle_gamma                 118.976245
_cell_volume                      1629.55624789

loop_
_atom_site_label
_atom_site_type_symbol
_atom_type_description
_atom_site_fract_x
_atom_site_fract_y
_atom_site_fract_z
_atom_type_partial_charge
C1    C     C_R   0.279709 0.889129 0.132706 0.518348
C2    C     C_R   0.712359 0.240182 0.309324 -0.121260
C3    C     C_R   0.700340 0.207581 0.233571 -0.173957
C4    C     C_R   0.606326 0.233516 0.184017 0.011861
C5    C     C_1   0.685586 0.831481 0.201590 -0.019120
C6    C     C_1   0.704022 0.807050 0.270383 -0.028119
C7    C     C_1   0.229066 0.854713 0.215579 -0.015682
C8    C     C_1   0.180246 0.834866 0.283321 -0.011593
C9    C     C_1   0.662908 0.358161 0.780393 0.055626
C10   C     C_1   0.685520 0.402831 0.709854 -0.002009
C11   C     C_R   0.632153 0.712896 0.804654 0.228264
C12   C     C_R   0.609051 0.209083 0.102392 0.540528
C13   C     C_R   0.615759 0.699171 0.725998 -0.128155
C14   C     C_R   0.668642 0.823780 0.665078 -0.005853
C15   C     C_R   0.743862 0.964157 0.683031 0.206848
C16   C     C_R   0.755270 0.978061 0.762404 -0.123987
C17   C     C_R   0.692836 0.852526 0.823351 -0.001281
C18   C     C_R   0.275176 0.997101 0.746849 0.169749
C19   C     C_R   0.245584 0.975963 0.670023 -0.080489
C20   C     C_R   0.191212 0.836916 0.651525 -0.057723
C21   C     C_R   0.193552 0.725297 0.705692 -0.109849
C22   C     C_R   0.232917 0.746317 0.782124 0.189446
C23   C     C_R   0.643699 0.855668 0.124148 0.542166
C24   C     C_R   0.264253 0.880739 0.805540 0.010370
C25   C     C_R   0.711701 0.772315 0.353559 0.556816
C26   C     C_R   0.680952 0.381697 0.400600 0.561380
C27   C     C_R   0.108993 0.812628 0.360118 0.543023
C28   C     C_R   0.676740 0.800993 0.584991 0.579984
C29   C     C_R   0.717798 0.447086 0.625936 0.552666
C30   C     C_R   0.106373 0.805598 0.583356 0.538094
C31   C     C_R   0.288923 0.902892 0.888126 0.574002
C32   C     C_R   0.640273 0.290197 0.861720 0.612489
C33   C     C_R   0.648576 0.866360 0.900057 0.572588
C34   C     C_R   0.510349 0.276845 0.215232 0.223855
C35   C     C_R   0.524905 0.310660 0.290997 -0.098690
C36   C     C_R   0.632007 0.301598 0.335805 -0.018488
Cr1   Cr    Cr6+3 0.402240 0.783890 0.019450 1.154186
Cr2   Cr    Cr6+3 0.382360 0.097900 0.991800 1.181890
Cr3   Cr    Cr6+3 0.715380 0.118170 0.988700 1.085661
Cr4   Cr    Cr6+3 0.936650 0.882420 0.465510 1.077770
Cr5   Cr    Cr6+3 0.605770 0.565620 0.493360 1.056494
Cr6   Cr    Cr6+3 0.921340 0.550490 0.496380 1.085404
H1    H     H_    0.250465 0.065831 0.626835 0.195291
H2    H     H_    0.155971 0.618815 0.690429 0.187277
H3    H     H_    0.459926 0.354615 0.312171 0.169606
H4    H     H_    0.792743 0.227744 0.344599 0.174419
H5    H     H_    0.768797 0.167223 0.212498 0.151646
H6    H     H_    0.565442 0.590328 0.712451 0.183337
H7    H     H_    0.802666 0.086659 0.776211 0.188299
O1    O     O_R   0.521780 0.757110 0.108900 -0.474869
O2    O     O_R   0.513330 0.228330 0.898660 -0.429195
O3    O     O_R   0.739230 0.266130 0.888050 -0.498226
O4    O     O_R   0.712580 0.991850 0.918770 -0.517269
O5    O     O_3   0.499990 0.999980 0.999980 -0.376163
O6    O     O_R   0.083770 0.911170 0.376030 -0.498680
O7    O     O_R   0.808770 0.880340 0.383890 -0.484671
O8    O     O_R   0.584340 0.689460 0.394160 -0.497880
O9    O     O_R   0.614320 0.443940 0.423590 -0.518687
O10   O     O_R   0.805020 0.410040 0.421340 -0.486252
O11   O     O_R   0.049240 0.685450 0.403290 -0.494573
O12   O     O_R   0.275160 0.783810 0.101120 -0.473595
O13   O     O_R   0.077520 0.903010 0.551800 -0.506033
O14   O     O_R   0.802980 0.872780 0.546830 -0.447115
O15   O     O_R   0.578090 0.681300 0.569920 -0.521577
O16   O     O_R   0.608530 0.436370 0.586530 -0.476067
O17   O     O_R   0.798770 0.401880 0.597100 -0.436283
O18   O     O_R   0.043450 0.677890 0.566230 -0.515664
O19   O     O_3   0.821250 0.666180 0.485090 -0.318609
O20   O     O_R   0.237900 0.972600 0.090980 -0.460641
O21   O     O_R   0.511190 0.220540 0.061620 -0.423508
O22   O     O_R   0.736920 0.257720 0.063840 -0.474772
O23   O     O_R   0.710450 0.984050 0.081720 -0.518430
O24   O     O_R   0.524090 0.765520 0.933110 -0.415521
O25   O     O_R   0.277300 0.791600 0.938160 -0.434116
O26   O     O_R   0.240210 0.981010 0.915190 -0.434103
Cl1   Cl    Cl    0.377272 0.302817 0.162678 -0.516287
Cl2   Cl    Cl    0.228177 0.593672 0.844826 -0.473414
Cl3   Cl    Cl    0.566741 0.552412 0.878550 -0.479952
Cl4   Cl    Cl    0.819758 0.123643 0.608129 -0.545191
Cl5   Cl    Cl    0.311499 0.168799 0.765628 -0.535782

loop_
_geom_bond_atom_site_label_1
_geom_bond_atom_site_label_2
_ccdc_geom_bond_type
Cr1   O25   S    
Cr2   O21   S    
C35   C36   A    
C25   O7    A    
C7    C8    T    
C20   C30   S    
C2    H4    S    
Cr4   O14   S    
C25   O8    A    
C18   C24   A    
Cr5   O9    S    
C34   C35   A    
C27   O11   A    
C5    C6    T    
C27   O6    A    
Cr3   O5    S    
C2    C36   A    
C15   C16   A    
Cr4   O13   S    
C18   C19   A    
C32   O3    A    
C12   O21   A    
C9    C32   S    
C15   Cl4   S    
C19   C20   A    
C16   C17   A    
Cr4   O7    S    
Cr2   O5    S    
Cr3   O23   S    
C4    C12   S    
C26   O10   A    
C30   O18   A    
Cr3   O3    S    
Cr2   O20   S    
C13   C14   A    
Cr6   O19   S    
C17   C33   S    
C19   H1    S    
Cr5   O19   S    
Cr2   O26   S    
C33   O4    A    
C4    C34   A    
C16   H7    S    
Cr6   O11   S    
C23   O1    A    
Cr5   O16   S    
Cr2   O2    S    
C1    O20   A    
C32   O2    A    
C11   Cl3   S    
C21   H2    S    
C31   O26   A    
C5    C23   S    
Cr4   O6    S    
C26   O9    A    
C29   O16   A    
Cr1   O5    S    
C28   O15   A    
C33   O24   A    
C12   O22   A    
C30   O13   A    
Cr6   O18   S    
C22   C24   A    
C3    C4    A    
C35   H3    S    
C9    C10   T    
C26   C36   S    
Cr1   O24   S    
C11   C17   A    
C1    C7    S    
C23   O23   A    
C22   Cl2   S    
C31   O25   A    
C1    O12   A    
Cr6   O10   S    
C13   H6    S    
Cr1   O12   S    
C2    C3    A    
C24   C31   S    
Cr5   O8    S    
Cr1   O1    S    
C11   C13   A    
C10   C29   S    
Cr3   O4    S    
C3    H5    S    
C29   O17   A    
C6    C25   S    
C28   O14   A    
C20   C21   A    
C18   Cl5   S    
Cr4   O19   S    
Cr6   O17   S    
C8    C27   S    
Cr3   O22   S    
C14   C15   A    
Cr5   O15   S    
C14   C28   S    
C21   C22   A    
C34   Cl1   S    
