data_mof_unit_4857.cif
_audit_creation_date              2012-12-10T17:59:46-0500
_audit_creation_method            fapswitch 2.2
_symmetry_space_group_name_H-M    P1
_symmetry_Int_Tables_number       1
_space_group_crystal_system       triclinic
_cell_length_a                    10.820161
_cell_length_b                    9.620967
_cell_length_c                    15.871015
_cell_angle_alpha                 89.736518
_cell_angle_beta                  95.80615
_cell_angle_gamma                 90.174075
_cell_volume                      1643.68040462

loop_
_atom_site_label
_atom_site_type_symbol
_atom_type_description
_atom_site_fract_x
_atom_site_fract_y
_atom_site_fract_z
_atom_type_partial_charge
C1    C     C_R   0.262794 0.499943 0.502897 0.878539
C2    C     C_3   0.627666 0.554417 0.959793 -0.340051
C3    C     C_3   0.627994 0.554727 0.057360 -0.367951
C4    C     C_1   0.500834 0.499329 0.824972 -0.019536
C5    C     C_1   0.503122 0.500838 0.175379 -0.042530
C6    C     C_1   0.503766 0.500818 0.250977 -0.113130
C7    C     C_R   0.066495 0.376967 0.520345 -0.133416
C8    C     C_R   0.062708 0.624434 0.489116 -0.132532
C9    C     C_R   0.938394 0.376739 0.519071 -0.159017
C10   C     C_R   0.934750 0.624442 0.488285 -0.177329
C11   C     C_R   0.871996 0.500395 0.502636 -0.025600
C12   C     C_R   0.128984 0.500379 0.504269 -0.061718
C13   C     C_R   0.416062 0.076331 0.442555 0.385242
C14   C     C_R   0.416854 0.923934 0.441823 0.378976
C15   C     C_R   0.503950 0.500287 0.340659 0.913893
C16   C     C_R   0.579089 0.926227 0.555416 -0.089726
C17   C     C_R   0.579786 0.073496 0.554951 -0.092327
C18   C     C_R   0.737774 0.500142 0.501043 0.752914
C19   C     C_R   0.500771 0.499740 0.659687 0.786195
C20   C     C_3   0.397181 0.595266 0.042155 -0.371333
C21   C     C_3   0.480993 0.350917 0.048729 -0.372631
C22   C     C_3   0.478862 0.349991 0.950750 -0.005181
C23   C     C_3   0.395126 0.594024 0.944168 -0.014139
C24   C     C_1   0.500722 0.499264 0.749373 -0.107311
C25   C     C_3   0.502224 0.500418 0.083156 0.198683
C26   C     C_3   0.501365 0.499755 0.917310 0.178924
Cu1   Cu    Cu3+1 0.500020 0.640660 0.500000 1.026719
Cu2   Cu    Cu3+1 0.500020 0.359340 0.500000 1.026990
H1    H     H_    0.304253 0.550920 0.916867 0.132718
H2    H     H_    0.385729 0.313487 0.923254 0.143946
H3    H     H_    0.643441 0.871259 0.600295 0.160021
H4    H     H_    0.644576 0.128240 0.599534 0.160015
H5    H     H_    0.305796 0.558694 0.060326 0.164677
H6    H     H_    0.391305 0.309351 0.067014 0.182265
H7    H     H_    0.555555 0.281712 0.078161 0.213862
H8    H     H_    0.411151 0.702774 0.066823 0.226090
H9    H     H_    0.645452 0.662192 0.081502 0.196309
H10   H     H_    0.705175 0.488262 0.086214 0.184654
H11   H     H_    0.645944 0.661370 0.937243 0.206174
H12   H     H_    0.705198 0.488817 0.941917 0.196030
H13   H     H_    0.116442 0.280963 0.534367 0.187064
H14   H     H_    0.109292 0.721240 0.477162 0.204341
H15   H     H_    0.891668 0.280158 0.531493 0.159207
H16   H     H_    0.885137 0.721144 0.475650 0.169009
N1    N     N_R   0.500030 0.852070 0.500020 -0.238432
N2    N     N_R   0.500030 0.147930 0.500020 -0.240016
O1    O     O_R   0.319660 0.618740 0.500000 -0.535365
O2    O     O_R   0.319660 0.381260 0.500000 -0.526199
O3    O     O_R   0.500020 0.618840 0.379440 -0.509168
O4    O     O_R   0.500020 0.381160 0.379440 -0.516694
O5    O     O_R   0.680370 0.618830 0.500010 -0.596941
O6    O     O_R   0.680370 0.381170 0.500010 -0.595383
O7    O     O_R   0.500010 0.618730 0.620560 -0.576592
O8    O     O_R   0.500010 0.381270 0.620560 -0.579241
I1    I     I_    0.607515 0.197521 0.911320 -0.352526
I2    I     I_    0.399429 0.803808 0.894948 -0.339595
S1    S     S_3+6 0.294559 0.165354 0.371431 0.081759
O9    O     O_2   0.294632 0.108216 0.283624 -0.211848
O10   O     O_2   0.173628 0.130352 0.405679 -0.300077
O11   O     O_3   0.284286 0.336309 0.351562 -0.514479
H17   H     H_    0.202872 0.350108 0.318009 0.357183
S2    S     S_3+6 0.318074 0.834894 0.355547 0.074473
O12   O     O_2   0.190117 0.895733 0.345028 -0.226165
O13   O     O_2   0.379974 0.861786 0.276320 -0.273827
O14   O     O_3   0.283309 0.665115 0.352620 -0.523617
H18   H     H_    0.241768 0.647880 0.295038 0.354753

loop_
_geom_bond_atom_site_label_1
_geom_bond_atom_site_label_2
_ccdc_geom_bond_type
C16   N1    A    
C4    C26   S    
Cu1   O7    S    
C1    O2    A    
C22   I1    S    
C21   H7    S    
C9    C11   A    
S2    O13   D    
C20   C23   S    
C8    C12   A    
Cu2   N2    S    
Cu1   N1    S    
C15   O3    A    
C19   C24   S    
C18   O6    A    
C23   I2    S    
C11   C18   S    
C21   C22   S    
C16   H3    S    
Cu2   O6    S    
C19   O7    A    
S1    O9    D    
S2    O12   D    
C1    C12   S    
C15   O4    A    
C5    C25   S    
C20   H5    S    
C23   H1    S    
C19   O8    A    
C8    C10   A    
Cu1   O5    S    
C18   O5    A    
C2    C3    S    
C14   N1    A    
C7    H13   S    
C22   C26   S    
C5    C6    T    
C4    C24   T    
C7    C12   A    
S1    O10   D    
C9    H15   S    
C20   C25   S    
C10   H16   S    
C20   H8    S    
C16   C17   A    
C2    H12   S    
C3    C25   S    
C13   S1    S    
C17   N2    A    
C3    H9    S    
C2    C26   S    
O14   H18   S    
C10   C11   A    
C23   C26   S    
Cu1   O1    S    
Cu1   Cu2   S    
C7    C9    A    
C17   H4    S    
Cu2   O8    S    
C13   N2    A    
Cu2   O2    S    
S1    O11   S    
C21   C25   S    
C21   H6    S    
C22   H2    S    
S2    O14   S    
C6    C15   S    
C13   C14   A    
Cu2   O4    S    
C2    H11   S    
C1    O1    A    
Cu1   O3    S    
C3    H10   S    
C8    H14   S    
O11   H17   S    
C14   S2    S    
