data_mof_unit_3122.cif
_audit_creation_date              2012-12-10T20:28:47-0500
_audit_creation_method            fapswitch 2.2
_symmetry_space_group_name_H-M    P1
_symmetry_Int_Tables_number       1
_space_group_crystal_system       triclinic
_cell_length_a                    10.673689
_cell_length_b                    10.701921
_cell_length_c                    9.841944
_cell_angle_alpha                 90.802459
_cell_angle_beta                  89.46539
_cell_angle_gamma                 88.999266
_cell_volume                      1123.90191649

loop_
_atom_site_label
_atom_site_type_symbol
_atom_type_description
_atom_site_fract_x
_atom_site_fract_y
_atom_site_fract_z
_atom_type_partial_charge
C1    C     C_R   0.507199 0.259450 0.498095 0.900068
C2    C     C_R   0.062284 0.602778 0.593849 0.072958
C3    C     C_R   0.127711 0.520557 0.502653 -0.098512
C4    C     C_R   0.065934 0.448132 0.406978 -0.224177
C5    C     C_R   0.938613 0.450014 0.404247 -0.235164
C6    C     C_R   0.871257 0.523131 0.497901 -0.084347
C7    C     C_R   0.518004 0.065338 0.617429 0.113553
C8    C     C_R   0.532186 0.127026 0.494700 -0.179301
C9    C     C_R   0.576473 0.058780 0.376632 0.040662
C10   C     C_R   0.584579 0.927377 0.385322 0.061658
C11   C     C_R   0.537114 0.869357 0.502102 -0.144328
C12   C     C_R   0.260324 0.508121 0.501093 0.880708
C13   C     C_R   0.518791 0.938416 0.620718 0.079838
C14   C     C_3   0.416107 0.934906 0.724408 -0.481105
C15   C     C_3   0.415670 0.076383 0.722343 -0.454035
C16   C     C_R   0.433476 0.413044 0.070561 0.189890
C17   C     C_R   0.576595 0.576063 0.072393 -0.151757
C18   C     C_R   0.576154 0.576580 0.928298 -0.134163
C19   C     C_R   0.433091 0.413461 0.927814 0.179474
C20   C     C_3   0.295082 0.395139 0.921747 -0.546457
C21   C     C_3   0.295202 0.394287 0.076674 -0.135712
C22   C     C_R   0.508335 0.739585 0.500657 0.889563
C23   C     C_R   0.739393 0.507858 0.499524 0.852340
C24   C     C_R   0.123315 0.683619 0.686392 -0.253622
C25   C     C_R   0.054201 0.763036 0.774995 0.170509
C26   C     C_R   0.924053 0.768498 0.765159 -0.153996
C27   C     C_R   0.862834 0.692179 0.672417 -0.232928
C28   C     C_R   0.930710 0.605455 0.589264 0.110242
H1    H     H_    0.116389 0.386357 0.336697 0.173743
H2    H     H_    0.448409 0.895663 0.822307 0.198089
H3    H     H_    0.327492 0.117805 0.681971 0.200552
H4    H     H_    0.448692 0.119194 0.818892 0.197348
H5    H     H_    0.637507 0.638124 0.127101 0.165872
H6    H     H_    0.635505 0.640356 0.874254 0.144399
H7    H     H_    0.244332 0.477554 0.880196 0.214053
H8    H     H_    0.271394 0.304385 0.872943 0.200976
H9    H     H_    0.242164 0.473598 0.125331 0.187201
H10   H     H_    0.224077 0.687831 0.690218 0.158527
H11   H     H_    0.869853 0.832554 0.829555 0.135599
H12   H     H_    0.762392 0.703800 0.665407 0.158335
H13   H     H_    0.892850 0.390652 0.331446 0.164508
H14   H     H_    0.329041 0.894454 0.682861 0.203351
N1    N     N_R   0.499160 0.499140 0.142800 -0.116927
N2    N     N_R   0.499160 0.499180 0.857150 -0.101607
O1    O     O_R   0.500020 0.316790 0.614690 -0.606068
O2    O     O_R   0.500000 0.316760 0.385350 -0.612166
O3    O     O_R   0.316770 0.500020 0.614690 -0.627559
O4    O     O_R   0.316760 0.499980 0.385350 -0.612950
O5    O     O_R   0.500000 0.683240 0.614650 -0.643496
O6    O     O_R   0.499980 0.683210 0.385310 -0.596919
O7    O     O_R   0.683240 0.500020 0.614650 -0.622885
O8    O     O_R   0.683230 0.499980 0.385310 -0.620900
Zn1   Zn    Zn3+2 0.500010 0.500020 0.653130 0.932801
Zn2   Zn    Zn3+2 0.499990 0.499980 0.346870 0.949313
N3    N     N_3   0.264142 0.272913 0.133732 -0.444737
H15   H     H_    0.315261 0.201321 0.083758 0.185276
H16   H     H_    0.169362 0.257344 0.115117 0.189935
N4    N     N_3   0.114893 0.840775 0.873584 -0.468146
H17   H     H_    0.210951 0.820354 0.874744 0.173618
H18   H     H_    0.080940 0.816411 0.969455 0.177298
C29   C     C_3   0.610078 0.119883 0.241810 -0.384177
C30   C     C_3   0.735862 0.185597 0.249915 -0.333980
C31   C     C_3   0.769024 0.246275 0.114931 -0.869189
H19   H     H_    0.770235 0.175517 0.031236 0.253996
H20   H     H_    0.699783 0.321234 0.091523 0.270680
H21   H     H_    0.863439 0.287682 0.120604 0.240276
H22   H     H_    0.731820 0.257580 0.331693 0.234107
H23   H     H_    0.810681 0.116409 0.275174 0.209725
H24   H     H_    0.617346 0.051354 0.156892 0.174656
H25   H     H_    0.534017 0.182791 0.206892 0.227679
N5    N     N_3   0.638032 0.851734 0.277035 -0.447995
H26   H     H_    0.580021 0.856346 0.192223 0.176695
H27   H     H_    0.727429 0.883716 0.253017 0.179234

loop_
_geom_bond_atom_site_label_1
_geom_bond_atom_site_label_2
_ccdc_geom_bond_type
C29   H25   S    
C7    C13   A    
C24   H10   S    
N3    H15   S    
C31   H20   S    
C24   C25   A    
C15   H3    S    
C16   C21   S    
C18   N2    A    
C1    C8    S    
C11   C13   A    
C9    C10   A    
N1    Zn2   S    
C23   O7    A    
C19   C20   S    
O3    Zn1   S    
C27   H12   S    
C22   O6    A    
C10   N5    S    
O2    Zn2   S    
C7    C15   S    
C17   C18   A    
C23   O8    A    
C31   H21   S    
O1    Zn1   S    
N5    H26   S    
C4    H1    S    
O6    Zn2   S    
C14   H14   S    
C20   C21   S    
O4    Zn2   S    
C5    C6    A    
C18   H6    S    
C16   N1    A    
C1    O1    A    
C26   C27   A    
C30   C31   S    
C17   H5    S    
C30   H22   S    
C14   H2    S    
C12   O3    A    
C9    C29   S    
C6    C23   S    
C25   C26   A    
C12   O4    A    
O8    Zn2   S    
C2    C3    A    
C30   H23   S    
N3    H16   S    
C2    C24   A    
C29   C30   S    
C26   H11   S    
O5    Zn1   S    
C1    O2    A    
C25   N4    S    
C16   C19   A    
N4    H18   S    
C31   H19   S    
C20   H8    S    
C7    C8    A    
C21   H9    S    
C19   N2    A    
N5    H27   S    
C10   C11   A    
C29   H24   S    
C17   N1    A    
C21   N3    S    
C5    H13   S    
C14   C15   S    
C4    C5    A    
C2    C28   A    
C3    C12   S    
C11   C22   S    
O7    Zn1   S    
N4    H17   S    
C13   C14   S    
C20   H7    S    
N2    Zn1   S    
C6    C28   A    
C22   O5    A    
C3    C4    A    
C8    C9    A    
C27   C28   A    
C15   H4    S    
