data_mof_unit_718.cif
_audit_creation_date              2012-12-10T17:47:05-0500
_audit_creation_method            fapswitch 2.2
_symmetry_space_group_name_H-M    P1
_symmetry_Int_Tables_number       1
_space_group_crystal_system       triclinic
_cell_length_a                    9.979278
_cell_length_b                    10.764293
_cell_length_c                    13.590291
_cell_angle_alpha                 93.321708
_cell_angle_beta                  82.480694
_cell_angle_gamma                 88.388008
_cell_volume                      1443.94114432

loop_
_atom_site_label
_atom_site_type_symbol
_atom_type_description
_atom_site_fract_x
_atom_site_fract_y
_atom_site_fract_z
_atom_type_partial_charge
C1    C     C_R   0.498975 0.738999 0.491602 0.916715
C2    C     C_R   0.618741 0.929687 0.477472 -0.240715
C3    C     C_R   0.623944 0.056232 0.492341 0.170354
C4    C     C_R   0.475436 0.499038 0.685511 0.909942
C5    C     C_R   0.502151 0.127563 0.517059 -0.177396
C6    C     C_R   0.826134 0.627123 0.653617 -0.115904
C7    C     C_R   0.866162 0.647650 0.746474 -0.176838
C8    C     C_R   0.999985 0.626025 0.758037 -0.167841
C9    C     C_R   0.096265 0.605643 0.673447 0.199083
C10   C     C_R   0.054870 0.556789 0.581220 0.076978
C11   C     C_R   0.911349 0.560491 0.577311 0.117447
C12   C     C_1   0.456934 0.499740 0.789673 -0.129195
C13   C     C_R   0.945606 0.445097 0.422552 0.139603
C14   C     C_R   0.088483 0.447458 0.423320 -0.101982
C15   C     C_R   0.500721 0.260715 0.507371 0.884902
C16   C     C_R   0.524895 0.498017 0.314384 0.893317
C17   C     C_1   0.544805 0.488247 0.210064 -0.189532
C18   C     C_2   0.561040 0.469575 0.017501 0.201666
C19   C     C_2   0.447875 0.501167 0.981535 -0.224068
C20   C     C_1   0.447580 0.500574 0.877707 0.071188
C21   C     C_1   0.557258 0.478660 0.121831 -0.027286
C22   C     C_3   0.890810 0.388355 0.331835 -0.345281
C23   C     C_R   0.244366 0.896915 0.484885 -0.134504
C24   C     C_3   0.986582 0.295878 0.263622 -0.439501
C25   C     C_3   0.911791 0.228372 0.186439 -0.781262
C26   C     C_R   0.126117 0.959754 0.529694 -0.104111
C27   C     C_R   0.133695 0.071793 0.584797 -0.088559
C28   C     C_R   0.257998 0.127110 0.585579 -0.122751
C29   C     C_R   0.377461 0.067756 0.534127 0.066089
C30   C     C_R   0.372256 0.943862 0.498443 0.111785
C31   C     C_R   0.495050 0.872093 0.482442 -0.163636
H1    H     H_    0.356154 0.531656 0.030256 0.146286
H2    H     H_    0.260196 0.214938 0.628235 0.159188
H3    H     H_    0.830261 0.172473 0.223605 0.268160
H4    H     H_    0.866822 0.296536 0.140655 0.277023
H5    H     H_    0.983672 0.164683 0.136724 0.256593
H6    H     H_    0.070063 0.346609 0.223138 0.223641
H7    H     H_    0.030252 0.225583 0.308318 0.258491
H8    H     H_    0.799289 0.337746 0.357630 0.272209
H9    H     H_    0.863552 0.465394 0.286457 0.212362
H10   H     H_    0.728513 0.663821 0.643208 0.201571
H11   H     H_    0.795317 0.687595 0.808112 0.178283
H12   H     H_    0.030004 0.652226 0.830030 0.179848
H13   H     H_    0.157992 0.406225 0.361952 0.153324
H14   H     H_    0.713389 0.875749 0.463514 0.191456
H15   H     H_    0.233530 0.811586 0.441281 0.166388
H16   H     H_    0.029328 0.918742 0.524637 0.164508
H17   H     H_    0.043148 0.117737 0.624653 0.176727
I1    I     I_    0.236950 0.745928 0.697611 -0.381530
I2    I     I_    0.745010 0.407826 0.929006 -0.390127
I3    I     I_    0.824157 0.120637 0.482620 -0.459716
N1    N     N_R   0.857120 0.501200 0.500900 -0.127918
N2    N     N_R   0.142720 0.501280 0.500940 -0.129187
O1    O     O_R   0.385310 0.683220 0.500000 -0.604384
O2    O     O_R   0.614640 0.683250 0.500010 -0.643755
O3    O     O_R   0.368830 0.499960 0.640340 -0.601214
O4    O     O_R   0.598160 0.499980 0.640350 -0.609602
O5    O     O_R   0.385360 0.316750 0.499990 -0.623470
O6    O     O_R   0.614690 0.316780 0.500000 -0.587468
O7    O     O_R   0.401840 0.500020 0.359650 -0.619020
O8    O     O_R   0.631170 0.500040 0.359660 -0.641424
Zn1   Zn    Zn3+2 0.346870 0.499980 0.499990 0.954167
Zn2   Zn    Zn3+2 0.653130 0.500020 0.500010 0.949883

loop_
_geom_bond_atom_site_label_1
_geom_bond_atom_site_label_2
_ccdc_geom_bond_type
C27   H17   S    
C4    O4    A    
C24   H7    S    
C1    O1    A    
C7    H11   S    
O5    Zn1   S    
C6    C7    A    
C4    C12   S    
C18   C21   S    
C9    C10   A    
O6    Zn2   S    
C19   C20   S    
C8    H12   S    
C25   H3    S    
O3    Zn1   S    
C22   H9    S    
C12   C20   T    
C2    C3    A    
C1    O2    A    
C7    C8    A    
C23   H15   S    
C13   C14   A    
C4    O3    A    
C26   C27   A    
C29   C30   A    
C26   H16   S    
C25   H4    S    
C22   H8    S    
C16   O8    A    
O7    Zn1   S    
C28   C29   A    
C13   C22   S    
C24   H6    S    
C5    C29   A    
C2    H14   S    
C16   O7    A    
C30   C31   A    
C15   O5    A    
C22   C24   S    
C5    C15   S    
C16   C17   S    
C28   H2    S    
C19   H1    S    
C25   H5    S    
C13   N1    A    
C23   C30   A    
C1    C31   S    
C14   N2    A    
C9    I1    S    
C24   C25   S    
C18   I2    S    
N2    Zn1   S    
C14   H13   S    
C18   C19   D    
C10   C11   A    
C23   C26   A    
C6    C11   A    
O8    Zn2   S    
C10   N2    A    
C3    I3    S    
C2    C31   A    
C11   N1    A    
O1    Zn1   S    
C3    C5    A    
C15   O6    A    
C6    H10   S    
C17   C21   T    
O4    Zn2   S    
C8    C9    A    
C27   C28   A    
N1    Zn2   S    
O2    Zn2   S    
