data_mof_unit_2223.cif
_audit_creation_date              2012-12-11T14:34:12-0500
_audit_creation_method            fapswitch 2.2
_symmetry_space_group_name_H-M    P1
_symmetry_Int_Tables_number       1
_space_group_crystal_system       triclinic
_cell_length_a                    13.853175
_cell_length_b                    13.980079
_cell_length_c                    27.321957
_cell_angle_alpha                 89.974653
_cell_angle_beta                  90.104963
_cell_angle_gamma                 119.666649
_cell_volume                      4597.7953366

loop_
_atom_site_label
_atom_site_type_symbol
_atom_type_description
_atom_site_fract_x
_atom_site_fract_y
_atom_site_fract_z
_atom_type_partial_charge
C1    C     C_R   0.233917 0.787240 0.568754 0.539447
C2    C     C_1   0.704870 0.859959 0.860482 -0.072981
C3    C     C_1   0.112665 0.882685 0.852346 -0.035413
C4    C     C_1   0.116624 0.235734 0.852856 -0.080413
C5    C     C_1   0.628120 0.813231 0.659113 -0.078318
C6    C     C_1   0.177098 0.819649 0.656234 -0.074561
C7    C     C_1   0.179758 0.360724 0.656698 -0.078690
C8    C     C_1   0.600960 0.795758 0.616754 -0.016577
C9    C     C_1   0.199136 0.806502 0.615117 -0.017271
C10   C     C_1   0.193499 0.394272 0.615372 -0.016465
C11   C     C_R   0.064842 0.150346 0.095962 0.578831
C12   C     C_R   0.212605 0.446572 0.568779 0.542505
C13   C     C_R   0.777561 0.884063 0.088397 0.548052
C14   C     C_R   0.116490 0.893645 0.088146 0.562330
C15   C     C_R   0.069813 0.161242 0.943151 0.537686
C16   C     C_R   0.779548 0.886956 0.950821 0.543114
C17   C     C_R   0.090407 0.930123 0.943440 0.534711
C18   C     C_R   0.618255 0.895564 0.361486 -0.133038
C19   C     C_R   0.097157 0.732335 0.362825 -0.134652
C20   C     C_R   0.264247 0.357633 0.363815 -0.135382
C21   C     C_R   0.644700 0.911220 0.311876 0.014161
C22   C     C_R   0.080578 0.743834 0.313162 0.014332
C23   C     C_R   0.552854 0.765286 0.568998 0.539238
C24   C     C_R   0.241285 0.306752 0.317724 0.013951
C25   C     C_R   0.681224 0.929127 0.210401 0.017084
C26   C     C_R   0.060650 0.759876 0.211518 0.016957
C27   C     C_R   0.200701 0.225905 0.221009 0.017051
C28   C     C_R   0.232474 0.788316 0.431816 0.547698
C29   C     C_R   0.211665 0.444507 0.431376 0.549640
C30   C     C_R   0.555550 0.767209 0.431899 0.548536
C31   C     C_R   0.653365 0.000629 0.234477 -0.137889
C32   C     C_R   0.977542 0.670625 0.237533 -0.127819
C33   C     C_R   0.303053 0.256803 0.243633 -0.123867
C34   C     C_3   0.697715 0.751832 0.787500 -0.190368
C35   C     C_R   0.634921 0.991586 0.284956 -0.130936
C36   C     C_R   0.988069 0.661953 0.288020 -0.128912
C37   C     C_R   0.323334 0.297242 0.291609 -0.128739
C38   C     C_R   0.704166 0.939487 0.160144 -0.150043
C39   C     C_R   0.050755 0.771045 0.161148 -0.135185
C40   C     C_R   0.182913 0.195152 0.171536 -0.128657
C41   C     C_R   0.729184 0.864893 0.137162 -0.002813
C42   C     C_R   0.135378 0.861388 0.136263 -0.004559
C43   C     C_R   0.082801 0.172531 0.148625 -0.008947
C44   C     C_R   0.659070 0.745178 0.364188 -0.131470
C45   C     C_3   0.236688 0.962446 0.781124 -0.209053
C46   C     C_R   0.265882 0.910872 0.361990 -0.128545
C47   C     C_R   0.076122 0.328005 0.367980 -0.130383
C48   C     C_R   0.683370 0.758074 0.314665 0.013442
C49   C     C_R   0.254144 0.920556 0.312283 0.013850
C50   C     C_R   0.052636 0.278994 0.321919 0.011763
C51   C     C_R   0.673699 0.839692 0.288076 0.063995
C52   C     C_R   0.162269 0.835909 0.287448 0.063403
C53   C     C_R   0.136115 0.270376 0.296135 0.062647
C54   C     C_R   0.708875 0.685011 0.290707 -0.126835
C55   C     C_R   0.337381 0.009871 0.286580 -0.127223
C56   C     C_3   0.025407 0.255128 0.778429 -0.211941
C57   C     C_R   0.949167 0.245089 0.299988 -0.129173
C58   C     C_R   0.720946 0.690135 0.240242 -0.127033
C59   C     C_R   0.331576 0.013672 0.235988 -0.129450
C60   C     C_R   0.930221 0.207844 0.251803 -0.122473
C61   C     C_R   0.710814 0.770365 0.213654 0.010880
C62   C     C_R   0.240560 0.930236 0.211005 0.014212
C63   C     C_R   0.013364 0.201598 0.225356 0.016618
C64   C     C_3   0.542238 0.808877 0.738907 -0.173531
C65   C     C_3   0.153151 0.739408 0.739289 -0.202882
C66   C     C_3   0.244668 0.427901 0.740778 -0.168271
C67   C     C_3   0.678474 0.739922 0.731419 -0.212472
C68   C     C_R   0.689062 0.846842 0.237397 0.065266
C69   C     C_R   0.154261 0.841985 0.236657 0.063845
C70   C     C_R   0.116127 0.230797 0.247754 0.062073
C71   C     C_R   0.725401 0.776918 0.163667 -0.122763
C72   C     C_R   0.232672 0.936290 0.160839 -0.132257
C73   C     C_R   0.997203 0.171773 0.176158 -0.129239
C74   C     C_R   0.618635 0.807991 0.386738 -0.003305
C75   C     C_R   0.193385 0.813049 0.386419 -0.003705
C76   C     C_R   0.183181 0.372525 0.388127 -0.004873
C77   C     C_3   0.744885 0.942526 0.724805 -0.229241
C78   C     C_3   0.255440 0.944542 0.726913 -0.219159
C79   C     C_3   0.048502 0.836919 0.714499 -0.223867
C80   C     C_3   0.187358 0.232545 0.717409 -0.225861
C81   C     C_3   0.763909 0.953995 0.780917 -0.243193
C82   C     C_3   0.029626 0.850811 0.769387 -0.247354
C83   C     C_3   0.171957 0.200784 0.772310 -0.240832
C84   C     C_1   0.733370 0.872021 0.902716 -0.030816
C85   C     C_1   0.101913 0.902806 0.894150 -0.014140
C86   C     C_1   0.097474 0.202698 0.894329 -0.030068
C87   C     C_3   0.648677 0.826363 0.712139 0.056558
C88   C     C_3   0.158308 0.834549 0.707847 0.058210
C89   C     C_3   0.043578 0.292076 0.724230 -0.216940
C90   C     C_3   0.164286 0.328652 0.708417 0.048668
C91   C     C_3   0.560298 0.820493 0.795507 0.001723
C92   C     C_3   0.134841 0.755511 0.794433 0.010508
C93   C     C_3   0.228932 0.395208 0.795938 0.016576
C94   C     C_3   0.680847 0.846289 0.807646 0.106022
C95   C     C_3   0.128595 0.863092 0.800867 0.105278
C96   C     C_3   0.135275 0.272274 0.801567 0.077874
Cr1   Cr    Cr6+3 0.164410 0.584450 0.499910 1.016963
Cr2   Cr    Cr6+3 0.415550 0.579960 0.499910 1.017486
Cr3   Cr    Cr6+3 0.420040 0.835590 0.499910 1.014510
Cr4   Cr    Cr6+3 0.155170 0.075460 0.019960 1.018209
Cr5   Cr    Cr6+3 0.924540 0.079710 0.019960 1.006821
Cr6   Cr    Cr6+3 0.920290 0.844830 0.019960 1.011004
H1    H     H_    0.549325 0.890246 0.808335 0.110633
H2    H     H_    0.645830 0.063371 0.214303 0.098561
H3    H     H_    0.905451 0.606838 0.218738 0.098566
H4    H     H_    0.368693 0.253221 0.223681 0.100716
H5    H     H_    0.611778 0.046473 0.302824 0.099674
H6    H     H_    0.924545 0.590911 0.307289 0.100602
H7    H     H_    0.404259 0.324081 0.307752 0.101842
H8    H     H_    0.742921 0.717614 0.146062 0.129667
H9    H     H_    0.298680 0.005630 0.141534 0.123734
H10   H     H_    0.919027 0.151594 0.158675 0.118014
H11   H     H_    0.715950 0.621832 0.310761 0.101157
H12   H     H_    0.053588 0.684843 0.806002 0.133582
H13   H     H_    0.408632 0.074819 0.305419 0.096979
H14   H     H_    0.884538 0.251709 0.319380 0.102997
H15   H     H_    0.519358 0.870501 0.725841 0.084884
H16   H     H_    0.083607 0.659282 0.726331 0.096070
H17   H     H_    0.332182 0.456112 0.730005 0.099125
H18   H     H_    0.661437 0.679037 0.383943 0.127719
H19   H     H_    0.338778 0.975059 0.380289 0.130869
H20   H     H_    0.012439 0.337403 0.386779 0.129845
H21   H     H_    0.822464 0.957191 0.706193 0.114314
H22   H     H_    0.051559 0.906214 0.693159 0.115898
H23   H     H_    0.308249 0.402735 0.809590 0.150272
H24   H     H_    0.129677 0.159868 0.695038 0.116633
H25   H     H_    0.725241 0.006250 0.711527 0.114365
H26   H     H_    0.977360 0.759355 0.700301 0.113323
H27   H     H_    0.273539 0.256688 0.706000 0.113509
H28   H     H_    0.754542 0.024000 0.794519 0.104852
H29   H     H_    0.951895 0.777388 0.781786 0.099768
H30   H     H_    0.251609 0.212250 0.787449 0.102259
H31   H     H_    0.850500 0.973302 0.789035 0.105560
H32   H     H_    0.017808 0.923226 0.774134 0.100769
H33   H     H_    0.108524 0.112514 0.776049 0.107469
H34   H     H_    0.471636 0.726276 0.729242 0.131601
H35   H     H_    0.610167 0.655411 0.722811 0.119460
H36   H     H_    0.335255 0.944042 0.723402 0.109554
H37   H     H_    0.026311 0.361280 0.719436 0.112590
H38   H     H_    0.754814 0.750710 0.712958 0.108824
H39   H     H_    0.262626 0.014389 0.704557 0.115482
H40   H     H_    0.983690 0.222917 0.700733 0.114560
H41   H     H_    0.639872 0.672705 0.805745 0.152610
H42   H     H_    0.309755 0.976436 0.803411 0.125808
H43   H     H_    0.991356 0.300078 0.799188 0.112823
H44   H     H_    0.481960 0.734450 0.857747 0.242299
H45   H     H_    0.230796 0.735358 0.734233 0.112283
H46   H     H_    0.398705 0.702167 0.809205 0.235261
H47   H     H_    0.211300 0.676705 0.825353 0.236443
H48   H     H_    0.299807 0.808764 0.811248 0.223730
H49   H     H_    0.200924 0.451595 0.861485 0.253204
H50   H     H_    0.134492 0.468781 0.813087 0.226977
H51   H     H_    0.783296 0.769060 0.795874 0.092767
H52   H     H_    0.231032 0.038377 0.784328 0.099335
H53   H     H_    0.961540 0.166694 0.780267 0.105519
H54   H     H_    0.588319 0.945373 0.379114 0.127455
H55   H     H_    0.039800 0.657584 0.381942 0.122977
H56   H     H_    0.230124 0.498424 0.734233 0.130553
H57   H     H_    0.346730 0.390850 0.379374 0.124559
H58   H     H_    0.738303 0.631536 0.221985 0.098646
H59   H     H_    0.397630 0.082259 0.216444 0.094589
H60   H     H_    0.852174 0.187997 0.234598 0.110642
H61   H     H_    0.706087 0.006616 0.139474 0.105014
H62   H     H_    0.975723 0.713192 0.141954 0.114318
H63   H     H_    0.248173 0.193085 0.150528 0.122062
N1    N     N_3   0.478051 0.719405 0.820113 -0.635860
N2    N     N_3   0.221234 0.755833 0.825713 -0.632892
N3    N     N_3   0.208234 0.472313 0.824396 -0.662710
O1    O     O_R   0.137150 0.468200 0.553200 -0.511865
O2    O     O_R   0.140110 0.470540 0.446010 -0.521700
O3    O     O_R   0.529460 0.669570 0.446010 -0.521498
O4    O     O_R   0.330430 0.859890 0.446010 -0.524067
O5    O     O_R   0.176710 0.690910 0.450560 -0.502082
O6    O     O_R   0.309090 0.485800 0.450560 -0.501195
O7    O     O_R   0.514200 0.823290 0.450560 -0.504080
O8    O     O_3   0.333333 0.666667 0.499990 -0.262980
O9    O     O_R   0.176750 0.985260 0.074180 -0.529665
O10   O     O_R   0.014740 0.191490 0.074180 -0.493656
O11   O     O_R   0.808510 0.823250 0.074180 -0.517243
O12   O     O_R   0.531800 0.668950 0.553200 -0.511698
O13   O     O_R   0.146100 0.172630 0.068980 -0.478886
O14   O     O_R   0.827370 0.973470 0.068980 -0.517680
O15   O     O_R   0.026530 0.853900 0.068980 -0.488750
O16   O     O_3   0.000000 0.000000 0.020040 -0.287751
O17   O     O_R   0.148270 0.170520 0.969620 -0.490382
O18   O     O_R   0.829480 0.977750 0.969620 -0.519939
O19   O     O_R   0.022250 0.851730 0.969620 -0.479252
O20   O     O_R   0.331050 0.862850 0.553200 -0.510208
O21   O     O_R   0.179100 0.982980 0.967000 -0.499647
O22   O     O_R   0.017020 0.196120 0.967000 -0.482727
O23   O     O_R   0.803880 0.820900 0.967000 -0.510585
O24   O     O_R   0.173970 0.688730 0.549930 -0.500915
O25   O     O_R   0.311270 0.485240 0.549930 -0.500179
O26   O     O_R   0.514760 0.826030 0.549930 -0.498962

loop_
_geom_bond_atom_site_label_1
_geom_bond_atom_site_label_2
_ccdc_geom_bond_type
C25   C31   A    
C65   C92   S    
C79   H26   S    
C64   H34   S    
C26   C32   A    
C55   C59   A    
C36   H6    S    
C18   C21   A    
H46   N1    S    
C12   O25   A    
C91   N1    S    
C2    C84   T    
Cr4   O21   S    
H47   N2    S    
C21   C51   A    
C29   O6    A    
C6    C9    T    
C13   C41   S    
C14   O15   A    
Cr1   O1    S    
C66   C90   S    
C29   C76   S    
C27   C33   A    
C48   C54   A    
C15   O17   A    
Cr3   O26   S    
C55   H13   S    
C65   C88   S    
C60   C63   A    
C17   C85   S    
Cr6   O15   S    
C32   C36   A    
C47   C76   A    
C56   H53   S    
C30   C74   S    
C28   O5    A    
C34   H51   S    
C4    C86   T    
C83   C96   S    
H49   N3    S    
C54   H11   S    
C92   N2    S    
C16   C84   S    
C8    C23   S    
C6    C88   S    
C20   C76   A    
C7    C10   T    
C56   H43   S    
C46   C75   A    
Cr5   O10   S    
C4    C96   S    
C43   C73   A    
C28   O4    A    
Cr1   O24   S    
Cr3   O8    S    
C20   C24   A    
C93   N3    S    
C89   H37   S    
C20   H57   S    
C11   O13   A    
C45   H42   S    
C60   H60   S    
C65   H16   S    
C46   H19   S    
C11   C43   S    
C45   C78   S    
C52   C69   A    
C29   O2    A    
C65   H45   S    
C64   C87   S    
C83   H33   S    
C77   H25   S    
C14   C42   S    
C61   C71   A    
C58   C61   A    
H44   N1    S    
C72   H9    S    
C18   C74   A    
Cr1   O8    S    
Cr6   O11   S    
C25   C68   A    
C80   C83   S    
C67   H35   S    
C53   C70   A    
C78   H36   S    
Cr3   O20   S    
H50   N3    S    
Cr6   O23   S    
C39   C42   A    
C10   C12   S    
C40   C43   A    
C57   H14   S    
C34   H41   S    
C48   C51   A    
C50   C53   A    
Cr1   O5    S    
C19   H55   S    
C2    C94   S    
C19   C22   A    
C1    C9    S    
C38   C41   A    
Cr5   O22   S    
C78   H39   S    
C47   H20   S    
Cr3   O4    S    
C63   C73   A    
C17   O21   A    
C24   C53   A    
C13   O11   A    
C7    C90   S    
C92   C95   S    
C33   C37   A    
C64   H15   S    
Cr2   O25   S    
C59   H59   S    
C89   H40   S    
C82   H32   S    
C77   H21   S    
C16   O23   A    
C25   C38   A    
C79   C82   S    
Cr2   O8    S    
C26   C39   A    
C46   C49   A    
C63   C70   A    
C77   C81   S    
C27   C40   A    
C49   C52   A    
C49   C55   A    
C42   C72   A    
C24   C37   A    
C40   H63   S    
C62   C72   A    
C11   O10   A    
Cr4   O9    S    
C44   C74   A    
C67   H38   S    
C27   C70   A    
C77   C87   S    
C23   O12   A    
Cr5   O16   S    
C79   C88   S    
C15   C86   S    
Cr2   O3    S    
C56   C89   S    
C15   O22   A    
C93   C96   S    
C66   H17   S    
C66   C93   S    
C31   C35   A    
C3    C85   T    
Cr2   O12   S    
Cr5   O18   S    
C45   C95   S    
C30   O7    A    
C66   H56   S    
C18   H54   S    
C73   H10   S    
C22   C52   A    
C54   C58   A    
C1    O20   A    
C78   C88   S    
C56   C96   S    
C38   H61   S    
C59   C62   A    
C82   C95   S    
C50   C57   A    
C37   H7    S    
C82   H29   S    
C33   H4    S    
C34   C94   S    
C80   H27   S    
C91   H1    S    
C57   C60   A    
C34   C67   S    
C5    C8    T    
C3    C95   S    
C81   H31   S    
C12   O1    A    
C21   C35   A    
C22   C36   A    
C79   H22   S    
C67   C87   S    
Cr6   O19   S    
C71   H8    S    
C41   C71   A    
C47   C50   A    
C32   H3    S    
Cr6   O16   S    
C31   H2    S    
C19   C75   A    
Cr4   O17   S    
C39   H62   S    
C83   H30   S    
C58   H58   S    
C91   C94   S    
C81   C94   S    
C61   C68   A    
C81   H28   S    
C80   H24   S    
C17   O19   A    
Cr2   O6    S    
H48   N2    S    
C23   O26   A    
C51   C68   A    
C80   C90   S    
Cr4   O16   S    
C93   H23   S    
C30   O3    A    
C14   O9    A    
C35   H5    S    
Cr1   O2    S    
C5    C87   S    
C1    O24   A    
Cr3   O7    S    
C62   C69   A    
C13   O14   A    
C26   C69   A    
C44   H18   S    
C16   O18   A    
C45   H52   S    
C64   C91   S    
C89   C90   S    
C28   C75   S    
C92   H12   S    
Cr4   O13   S    
Cr5   O14   S    
C44   C48   A    
