data_mof_unit_4199.cif
_audit_creation_date              2012-12-10T17:01:31-0500
_audit_creation_method            fapswitch 2.2
_symmetry_space_group_name_H-M    P1
_symmetry_Int_Tables_number       1
_space_group_crystal_system       triclinic
_cell_length_a                    19.855331
_cell_length_b                    22.811218
_cell_length_c                    15.059528
_cell_angle_alpha                 90.167112
_cell_angle_beta                  90.484726
_cell_angle_gamma                 89.863329
_cell_volume                      6820.53382703

loop_
_atom_site_label
_atom_site_type_symbol
_atom_type_description
_atom_site_fract_x
_atom_site_fract_y
_atom_site_fract_z
_atom_type_partial_charge
C1    C     C_R   0.373525 0.885156 0.482707 0.852673
C2    C     C_R   0.281315 0.742321 0.514026 -0.134461
C3    C     C_3   0.313957 0.747772 0.835765 -0.955255
C4    C     C_3   0.887832 0.881390 0.525977 0.086579
C5    C     C_3   0.963035 0.886731 0.546648 -0.344907
C6    C     C_3   0.994422 0.938439 0.498077 -0.995260
C7    C     C_3   0.828870 0.181488 0.702758 0.113751
C8    C     C_3   0.829836 0.244907 0.736916 -0.364543
C9    C     C_3   0.813910 0.247822 0.835764 -0.955272
C10   C     C_3   0.629290 0.661360 0.484336 -0.763171
C11   C     C_3   0.634889 0.338003 0.424030 -0.776988
C12   C     C_3   0.129293 0.161358 0.484392 -0.763175
C13   C     C_R   0.785076 0.760551 0.507198 -0.114032
C14   C     C_3   0.134880 0.838013 0.424093 -0.776986
C15   C     C_3   0.759917 0.899922 0.691085 0.092991
C16   C     C_3   0.691990 0.890234 0.736586 -0.353651
C17   C     C_3   0.700951 0.883538 0.836831 -0.991149
C18   C     C_3   0.809037 0.061483 0.525941 0.131652
C19   C     C_3   0.783246 0.040503 0.434770 -0.331092
C20   C     C_3   0.840448 0.017783 0.377045 -1.024967
C21   C     C_3   0.259941 0.399945 0.691050 0.093013
C22   C     C_3   0.192021 0.390260 0.736570 -0.353669
C23   C     C_3   0.200996 0.383577 0.836815 -0.991126
C24   C     C_R   0.781313 0.242322 0.514028 -0.134468
C25   C     C_3   0.309041 0.561481 0.525892 0.131661
C26   C     C_3   0.283246 0.540511 0.434722 -0.331127
C27   C     C_3   0.340444 0.517800 0.376982 -1.025052
C28   C     C_3   0.611207 0.785215 0.352830 0.072334
C29   C     C_3   0.541346 0.782127 0.309814 -0.331634
C30   C     C_3   0.545236 0.786350 0.208892 -0.951290
C31   C     C_3   0.591616 0.194521 0.359283 0.072612
C32   C     C_3   0.651370 0.195020 0.294275 -0.383514
C33   C     C_3   0.631737 0.166501 0.205963 -0.972998
C34   C     C_3   0.111196 0.285202 0.352853 0.072344
C35   C     C_R   0.337229 0.218972 0.492642 0.119998
C36   C     C_3   0.041330 0.282119 0.309848 -0.331648
C37   C     C_3   0.045212 0.286339 0.208925 -0.951296
C38   C     C_3   0.091612 0.694537 0.359298 0.072608
C39   C     C_3   0.151358 0.695061 0.294278 -0.383511
C40   C     C_3   0.131725 0.666551 0.205961 -0.973006
C41   C     C_3   0.433834 0.111937 0.164447 0.086096
C42   C     C_3   0.374650 0.143174 0.208605 -0.320559
C43   C     C_3   0.390139 0.207514 0.227321 -1.006533
C44   C     C_3   0.933850 0.611943 0.164448 0.086126
C45   C     C_3   0.874664 0.643189 0.208592 -0.320502
C46   C     C_R   0.335498 0.781804 0.503549 0.086636
C47   C     C_3   0.890165 0.707526 0.227318 -1.006569
C48   C     C_3   0.686484 0.950990 0.158696 0.106652
C49   C     C_3   0.725694 0.894995 0.137267 -0.355268
C50   C     C_3   0.799843 0.907850 0.120336 -0.972183
C51   C     C_3   0.186475 0.450981 0.158711 0.106651
C52   C     C_3   0.225693 0.394988 0.137298 -0.355234
C53   C     C_3   0.299844 0.407848 0.120386 -0.972187
C54   C     C_R   0.837228 0.718971 0.492651 0.120015
C55   C     C_R   0.835496 0.281804 0.503556 0.086624
C56   C     C_R   0.252869 0.142663 0.465645 0.388928
C57   C     C_R   0.259370 0.852348 0.434579 0.430533
C58   C     C_R   0.752870 0.642665 0.465627 0.388939
C59   C     C_R   0.372628 0.114136 0.484472 0.856760
C60   C     C_R   0.759377 0.352343 0.434557 0.430542
C61   C     C_R   0.200887 0.183697 0.476514 0.113036
C62   C     C_R   0.204610 0.814197 0.444933 0.102410
C63   C     C_R   0.700887 0.683698 0.476486 0.113040
C64   C     C_R   0.704616 0.314190 0.444900 0.102411
C65   C     C_R   0.519804 0.997185 0.163308 -0.233937
C66   C     C_R   0.019803 0.497184 0.163309 -0.233937
C67   C     C_R   0.475992 0.002158 0.834032 -0.085673
C68   C     C_R   0.975993 0.502159 0.834033 -0.085687
C69   C     C_R   0.420358 0.040841 0.963838 -0.281888
C70   C     C_R   0.873526 0.385155 0.482706 0.852663
C71   C     C_R   0.920365 0.540850 0.963839 -0.281871
C72   C     C_R   0.423810 0.035574 0.871496 0.443305
C73   C     C_R   0.923816 0.535582 0.871496 0.443301
C74   C     C_R   0.525018 0.975898 0.887364 -0.303393
C75   C     C_R   0.025013 0.475893 0.887365 -0.303382
C76   C     C_R   0.627900 0.112970 0.515123 0.947757
C77   C     C_R   0.628011 0.887138 0.515447 0.960137
C78   C     C_R   0.127900 0.612970 0.515123 0.947744
C79   C     C_R   0.128011 0.387138 0.515448 0.960128
C80   C     C_R   0.523623 0.983643 0.979050 0.064537
C81   C     C_R   0.872628 0.614136 0.484472 0.856759
C82   C     C_R   0.023620 0.483639 0.979051 0.064526
C83   C     C_R   0.470970 0.016432 0.017990 0.003607
C84   C     C_R   0.970973 0.516434 0.017990 0.003599
C85   C     C_R   0.469524 0.023828 0.110294 0.342098
C86   C     C_R   0.969528 0.523832 0.110294 0.342083
C87   C     C_R   0.573538 0.966261 0.124208 0.411666
C88   C     C_R   0.073533 0.466253 0.124209 0.411656
C89   C     C_R   0.574136 0.958796 0.031968 -0.316316
C90   C     C_R   0.074129 0.458787 0.031969 -0.316296
C91   C     C_R   0.514435 0.999633 0.259840 0.874421
C92   C     C_R   0.717046 0.743483 0.490015 -0.141913
C93   C     C_R   0.014434 0.499632 0.259840 0.874432
C94   C     C_R   0.484013 0.000282 0.738723 0.849600
C95   C     C_R   0.984013 0.500282 0.738723 0.849596
C96   C     C_R   0.320310 0.159582 0.478178 -0.202816
C97   C     C_R   0.322302 0.838849 0.472722 -0.202269
C98   C     C_R   0.820311 0.659582 0.478176 -0.202828
C99   C     C_R   0.822303 0.338848 0.472717 -0.202277
C100  C     C_R   0.680322 0.842796 0.519306 -0.279642
C101  C     C_R   0.679167 0.157923 0.515827 -0.298487
C102  C     C_R   0.180323 0.342797 0.519306 -0.279650
C103  C     C_R   0.715988 0.257051 0.480051 -0.122967
C104  C     C_R   0.179168 0.657922 0.515828 -0.298488
C105  C     C_R   0.798197 0.818183 0.540342 0.379968
C106  C     C_R   0.790890 0.188373 0.558566 0.390172
C107  C     C_R   0.298202 0.318189 0.540318 0.379981
C108  C     C_R   0.290898 0.688366 0.558548 0.390171
C109  C     C_R   0.743502 0.856744 0.554458 0.280991
C110  C     C_R   0.743222 0.143772 0.548373 0.273351
C111  C     C_R   0.243508 0.356750 0.554439 0.280992
C112  C     C_R   0.243227 0.643767 0.548356 0.273356
C113  C     C_R   0.666952 0.787285 0.485295 0.365077
C114  C     C_R   0.217046 0.243483 0.490028 -0.141927
C115  C     C_R   0.665166 0.213305 0.479315 0.417719
C116  C     C_R   0.166951 0.287283 0.485310 0.365084
C117  C     C_R   0.165164 0.713308 0.479330 0.417718
C118  C     C_3   0.409959 0.237989 0.481777 -0.712039
C119  C     C_3   0.408107 0.760421 0.508723 -0.685831
C120  C     C_3   0.909958 0.737990 0.481798 -0.712044
C121  C     C_3   0.908104 0.260422 0.508749 -0.685823
C122  C     C_3   0.376435 0.119692 0.816687 0.080189
C123  C     C_3   0.324201 0.143076 0.750379 -0.294637
C124  C     C_3   0.328005 0.209647 0.741660 -0.939065
C125  C     C_R   0.215987 0.757053 0.480067 -0.122977
C126  C     C_3   0.876462 0.619708 0.816683 0.080202
C127  C     C_3   0.824217 0.643101 0.750397 -0.294681
C128  C     C_3   0.828044 0.709670 0.741663 -0.939046
C129  C     C_3   0.220998 0.079197 0.354987 0.134821
C130  C     C_3   0.162145 0.036675 0.343425 -0.328034
C131  C     C_3   0.144356 0.027784 0.245548 -1.001422
C132  C     C_3   0.248796 0.890340 0.293865 0.034773
C133  C     C_3   0.307170 0.920382 0.246386 -0.250531
C134  C     C_3   0.301186 0.913984 0.145745 -0.964280
C135  C     C_3   0.721022 0.579201 0.354953 0.134807
C136  C     C_R   0.285079 0.260553 0.507192 -0.114041
C137  C     C_3   0.662174 0.536676 0.343364 -0.328032
C138  C     C_3   0.644413 0.527783 0.245478 -1.001369
C139  C     C_3   0.748826 0.390328 0.293835 0.034769
C140  C     C_3   0.807209 0.420370 0.246373 -0.250535
C141  C     C_3   0.801242 0.413972 0.145730 -0.964268
C142  C     C_3   0.387831 0.381396 0.525905 0.086572
C143  C     C_3   0.463037 0.386744 0.546552 -0.344903
C144  C     C_3   0.494413 0.438447 0.497955 -0.995247
C145  C     C_3   0.328900 0.681461 0.702730 0.113722
C146  C     C_3   0.329857 0.744875 0.736906 -0.364515
H1    H     H_    0.613298 0.932443 0.001903 0.160741
H2    H     H_    0.412392 0.714572 0.484391 0.230865
H3    H     H_    0.114841 0.818938 0.361539 0.238416
H4    H     H_    0.783612 0.939793 0.719984 0.165597
H5    H     H_    0.794752 0.862868 0.706292 0.173258
H6    H     H_    0.658022 0.927981 0.722694 0.225940
H7    H     H_    0.668020 0.849791 0.710049 0.223524
H8    H     H_    0.736323 0.847042 0.852035 0.269251
H9    H     H_    0.651668 0.873373 0.867318 0.264260
H10   H     H_    0.720659 0.924788 0.866469 0.264313
H11   H     H_    0.828353 0.022906 0.563030 0.161806
H12   H     H_    0.852994 0.091023 0.517564 0.160558
H13   H     H_    0.441327 0.785869 0.464361 0.203000
H14   H     H_    0.745936 0.004882 0.444072 0.275780
H15   H     H_    0.758502 0.077325 0.398978 0.218619
H16   H     H_    0.877816 0.053026 0.365300 0.271138
H17   H     H_    0.819848 0.003047 0.311984 0.267002
H18   H     H_    0.865916 0.980168 0.409353 0.267787
H19   H     H_    0.283638 0.439819 0.719933 0.165600
H20   H     H_    0.294780 0.362893 0.706258 0.173252
H21   H     H_    0.158049 0.428004 0.722675 0.225938
H22   H     H_    0.168050 0.349813 0.710051 0.223516
H23   H     H_    0.236372 0.347085 0.852022 0.269245
H24   H     H_    0.427772 0.763808 0.577677 0.264290
H25   H     H_    0.151718 0.373414 0.867316 0.264244
H26   H     H_    0.220705 0.424832 0.866436 0.264318
H27   H     H_    0.328360 0.522901 0.562966 0.161818
H28   H     H_    0.352997 0.591020 0.517517 0.160559
H29   H     H_    0.245941 0.504888 0.444019 0.275782
H30   H     H_    0.258496 0.577334 0.398945 0.218636
H31   H     H_    0.377836 0.553031 0.365301 0.271154
H32   H     H_    0.319848 0.503117 0.311895 0.267016
H33   H     H_    0.365881 0.480152 0.409240 0.267802
H34   H     H_    0.643581 0.750148 0.324019 0.138983
H35   H     H_    0.912287 0.777546 0.439537 0.218578
H36   H     H_    0.633447 0.828860 0.337340 0.149899
H37   H     H_    0.516907 0.740055 0.327835 0.221025
H38   H     H_    0.509876 0.818813 0.335168 0.207027
H39   H     H_    0.569120 0.828213 0.189186 0.301449
H40   H     H_    0.493649 0.784764 0.179954 0.262878
H41   H     H_    0.574921 0.749146 0.181783 0.256416
H42   H     H_    0.548708 0.216842 0.325835 0.152376
H43   H     H_    0.574161 0.149100 0.370630 0.129471
H44   H     H_    0.667618 0.240785 0.281903 0.217711
H45   H     H_    0.694666 0.170153 0.322497 0.208075
H46   H     H_    0.933910 0.745764 0.547608 0.273190
H47   H     H_    0.675379 0.167294 0.160374 0.267369
H48   H     H_    0.616686 0.120154 0.216459 0.260595
H49   H     H_    0.589240 0.190699 0.174461 0.257468
H50   H     H_    0.143562 0.250129 0.324043 0.138984
H51   H     H_    0.133441 0.328843 0.337352 0.149883
H52   H     H_    0.016888 0.240050 0.327876 0.221025
H53   H     H_    0.009868 0.318809 0.335205 0.207026
H54   H     H_    0.069099 0.328199 0.189213 0.301450
H55   H     H_    0.993622 0.284757 0.179995 0.262876
H56   H     H_    0.074890 0.249132 0.181814 0.256420
H57   H     H_    0.940741 0.705275 0.445558 0.200524
H58   H     H_    0.048693 0.716854 0.325867 0.152388
H59   H     H_    0.074173 0.649110 0.370631 0.129465
H60   H     H_    0.167590 0.740832 0.281920 0.217712
H61   H     H_    0.194665 0.670200 0.322484 0.208074
H62   H     H_    0.175361 0.667363 0.160362 0.267373
H63   H     H_    0.116693 0.620197 0.216443 0.260583
H64   H     H_    0.089215 0.690742 0.174477 0.257478
H65   H     H_    0.445177 0.134308 0.100615 0.127290
H66   H     H_    0.478576 0.114963 0.209404 0.117798
H67   H     H_    0.329473 0.140278 0.164717 0.215484
H68   H     H_    0.912391 0.214570 0.484430 0.230861
H69   H     H_    0.363082 0.121103 0.272236 0.229720
H70   H     H_    0.434263 0.211339 0.272597 0.255559
H71   H     H_    0.346130 0.228480 0.259695 0.267532
H72   H     H_    0.400725 0.230976 0.164458 0.267687
H73   H     H_    0.945206 0.634313 0.100615 0.127265
H74   H     H_    0.978589 0.614964 0.209416 0.117798
H75   H     H_    0.829492 0.640300 0.164690 0.215470
H76   H     H_    0.863081 0.621117 0.272223 0.229688
H77   H     H_    0.934252 0.711341 0.272655 0.255558
H78   H     H_    0.846140 0.728507 0.259626 0.267538
H79   H     H_    0.941329 0.285864 0.464386 0.203008
H80   H     H_    0.900812 0.730980 0.164470 0.267689
H81   H     H_    0.708777 0.971432 0.219201 0.169218
H82   H     H_    0.692532 0.983322 0.103800 0.116589
H83   H     H_    0.721761 0.863954 0.193785 0.222981
H84   H     H_    0.703450 0.873758 0.077375 0.221654
H85   H     H_    0.805034 0.937932 0.062933 0.264570
H86   H     H_    0.826691 0.866305 0.105130 0.267239
H87   H     H_    0.823504 0.928079 0.180046 0.263180
H88   H     H_    0.208758 0.471429 0.219218 0.169227
H89   H     H_    0.192527 0.483309 0.103810 0.116582
H90   H     H_    0.927763 0.263816 0.577705 0.264292
H91   H     H_    0.221755 0.363949 0.193816 0.222982
H92   H     H_    0.203461 0.373747 0.077400 0.221647
H93   H     H_    0.305041 0.437929 0.062982 0.264571
H94   H     H_    0.326698 0.366304 0.105189 0.267235
H95   H     H_    0.323494 0.428081 0.180101 0.263186
H96   H     H_    0.427386 0.134505 0.795857 0.160267
H97   H     H_    0.113288 0.432428 0.001907 0.160739
H98   H     H_    0.365054 0.138232 0.883377 0.120503
H99   H     H_    0.332664 0.122825 0.684221 0.242284
H100  H     H_    0.272950 0.130749 0.772733 0.220144
H101  H     H_    0.320585 0.230980 0.807261 0.251449
H102  H     H_    0.287809 0.225096 0.695630 0.269604
H103  H     H_    0.377602 0.222759 0.714608 0.282143
H104  H     H_    0.927412 0.634508 0.795830 0.160295
H105  H     H_    0.865104 0.638253 0.883377 0.120485
H106  H     H_    0.832652 0.622842 0.684239 0.242289
H107  H     H_    0.772970 0.630792 0.772781 0.220141
H108  H     H_    0.565654 0.951443 0.856891 0.163293
H109  H     H_    0.820662 0.731010 0.807264 0.251445
H110  H     H_    0.787837 0.725128 0.695659 0.269604
H111  H     H_    0.877634 0.722763 0.714572 0.282163
H112  H     H_    0.265539 0.061280 0.319981 0.166416
H113  H     H_    0.206920 0.121378 0.321902 0.102379
H114  H     H_    0.175384 0.993911 0.373686 0.268182
H115  H     H_    0.117122 0.053959 0.378060 0.215256
H116  H     H_    0.126693 0.069686 0.215921 0.268593
H117  H     H_    0.103474 0.994870 0.239200 0.266610
H118  H     H_    0.188880 0.011853 0.208415 0.270352
H119  H     H_    0.065646 0.451432 0.856892 0.163290
H120  H     H_    0.200403 0.907501 0.267037 0.167537
H121  H     H_    0.250144 0.842490 0.277455 0.114189
H122  H     H_    0.308026 0.967717 0.263823 0.252921
H123  H     H_    0.355516 0.900293 0.268334 0.221181
H124  H     H_    0.301770 0.866925 0.126591 0.258302
H125  H     H_    0.344401 0.936123 0.113772 0.293237
H126  H     H_    0.253800 0.934495 0.121264 0.261631
H127  H     H_    0.765573 0.561286 0.319964 0.166435
H128  H     H_    0.706949 0.621382 0.321865 0.102377
H129  H     H_    0.675407 0.493913 0.373633 0.268184
H130  H     H_    0.378297 0.064242 0.992605 0.185079
H131  H     H_    0.617140 0.553959 0.377977 0.215248
H132  H     H_    0.626750 0.569684 0.215842 0.268584
H133  H     H_    0.603537 0.494864 0.239113 0.266602
H134  H     H_    0.688951 0.511857 0.208367 0.270354
H135  H     H_    0.700437 0.407488 0.266989 0.167538
H136  H     H_    0.750179 0.342477 0.277430 0.114189
H137  H     H_    0.808061 0.467706 0.263808 0.252941
H138  H     H_    0.855550 0.400281 0.268336 0.221169
H139  H     H_    0.801821 0.366912 0.126578 0.258298
H140  H     H_    0.844467 0.436103 0.113770 0.293228
H141  H     H_    0.878309 0.564257 0.992605 0.185083
H142  H     H_    0.753865 0.434488 0.121233 0.261641
H143  H     H_    0.363480 0.422592 0.547887 0.188075
H144  H     H_    0.380709 0.376315 0.452737 0.124766
H145  H     H_    0.470428 0.392810 0.619250 0.230889
H146  H     H_    0.489044 0.345770 0.526479 0.232050
H147  H     H_    0.489757 0.432277 0.424963 0.269899
H148  H     H_    0.548661 0.441613 0.515741 0.275317
H149  H     H_    0.469264 0.480059 0.517352 0.266021
H150  H     H_    0.366908 0.655802 0.740834 0.161549
H151  H     H_    0.279213 0.660789 0.716402 0.151443
H152  H     H_    0.412285 0.277539 0.439503 0.218579
H153  H     H_    0.380396 0.764194 0.725924 0.236580
H154  H     H_    0.291948 0.771420 0.700046 0.225943
H155  H     H_    0.263038 0.729668 0.848304 0.262365
H156  H     H_    0.315082 0.794122 0.858462 0.275584
H157  H     H_    0.351912 0.722517 0.874581 0.262878
H158  H     H_    0.863480 0.922584 0.547967 0.188074
H159  H     H_    0.880721 0.876321 0.452806 0.124779
H160  H     H_    0.970414 0.892788 0.619349 0.230887
H161  H     H_    0.989043 0.845759 0.526571 0.232054
H162  H     H_    0.989779 0.932279 0.425081 0.269899
H163  H     H_    0.433914 0.245772 0.547583 0.273200
H164  H     H_    0.048668 0.941601 0.515880 0.275322
H165  H     H_    0.969273 0.980051 0.517478 0.266012
H166  H     H_    0.866866 0.155829 0.740882 0.161547
H167  H     H_    0.779175 0.160828 0.716421 0.151434
H168  H     H_    0.880384 0.264214 0.725955 0.236580
H169  H     H_    0.791946 0.271455 0.700030 0.225965
H170  H     H_    0.762983 0.229729 0.848281 0.262375
H171  H     H_    0.815039 0.294176 0.858447 0.275587
H172  H     H_    0.851848 0.222567 0.874606 0.262884
H173  H     H_    0.602883 0.664192 0.419264 0.232165
H174  H     H_    0.440742 0.205270 0.445545 0.200532
H175  H     H_    0.628091 0.615200 0.507273 0.237527
H176  H     H_    0.601285 0.686444 0.535466 0.258466
H177  H     H_    0.600798 0.328970 0.480218 0.261672
H178  H     H_    0.634336 0.386324 0.416040 0.233848
H179  H     H_    0.614862 0.318916 0.361477 0.238412
H180  H     H_    0.102874 0.164181 0.419326 0.232171
H181  H     H_    0.128100 0.115201 0.507345 0.237521
H182  H     H_    0.101294 0.186448 0.535522 0.258464
H183  H     H_    0.100799 0.828972 0.480288 0.261669
H184  H     H_    0.134328 0.886337 0.416122 0.233848
O1    O     O_3   0.500000 0.000000 0.500000 -0.500229
O2    O     O_R   0.135640 0.430410 0.463140 -0.652764
O3    O     O_R   0.456890 0.000000 0.295720 -0.630189
O4    O     O_R   0.956890 0.500000 0.295720 -0.630200
O5    O     O_R   0.488070 0.049450 0.698020 -0.643160
O6    O     O_R   0.488070 0.950550 0.698020 -0.644786
O7    O     O_R   0.988070 0.549450 0.698020 -0.643163
O8    O     O_R   0.988070 0.450550 0.698020 -0.644786
O9    O     O_R   0.370630 0.069610 0.433010 -0.629129
O10   O     O_R   0.370630 0.930390 0.433010 -0.608336
O11   O     O_R   0.870630 0.569610 0.433010 -0.629129
O12   O     O_3   0.000000 0.500000 0.500000 -0.500228
O13   O     O_R   0.870630 0.430390 0.433010 -0.608332
O14   O     O_R   0.574320 0.880940 0.560740 -0.636725
O15   O     O_R   0.574320 0.119060 0.560740 -0.632658
O16   O     O_R   0.074320 0.380940 0.560740 -0.636719
O17   O     O_R   0.074320 0.619060 0.560740 -0.632661
O18   O     O_R   0.566990 0.000000 0.308240 -0.630999
O19   O     O_R   0.066990 0.500000 0.308240 -0.631016
O20   O     O_3   0.372894 0.057820 0.817757 -0.644578
O21   O     O_3   0.872904 0.557836 0.817759 -0.644572
O22   O     O_3   0.237253 0.084747 0.446599 -0.621927
O23   O     O_R   0.419410 0.880950 0.543120 -0.639564
O24   O     O_3   0.251557 0.903534 0.386177 -0.626437
O25   O     O_3   0.737255 0.584749 0.446573 -0.621924
O26   O     O_3   0.751569 0.403527 0.386147 -0.626438
O27   O     O_3   0.361719 0.332814 0.572558 -0.648440
O28   O     O_3   0.347082 0.678849 0.612011 -0.655338
O29   O     O_3   0.861710 0.832801 0.572605 -0.648443
O30   O     O_3   0.847066 0.178862 0.612047 -0.655331
O31   O     O_3   0.751447 0.909712 0.598748 -0.657142
O32   O     O_3   0.756681 0.087018 0.577054 -0.632281
O33   O     O_3   0.251458 0.409724 0.598713 -0.657130
O34   O     O_R   0.419410 0.119050 0.543120 -0.642971
O35   O     O_3   0.256689 0.587009 0.577018 -0.632276
O36   O     O_3   0.604903 0.777155 0.445432 -0.635797
O37   O     O_3   0.602415 0.224574 0.441294 -0.645788
O38   O     O_3   0.104899 0.277148 0.445457 -0.635790
O39   O     O_3   0.102411 0.724580 0.441317 -0.645781
O40   O     O_3   0.415848 0.052875 0.149099 -0.629357
O41   O     O_3   0.915856 0.552884 0.149099 -0.629360
O42   O     O_3   0.618948 0.936154 0.177911 -0.639569
O43   O     O_3   0.118938 0.436140 0.177911 -0.639574
O44   O     O_R   0.919410 0.380950 0.543120 -0.639567
O45   O     O_R   0.919410 0.619050 0.543120 -0.642964
O46   O     O_R   0.635640 0.069590 0.463140 -0.672259
O47   O     O_R   0.635640 0.930410 0.463140 -0.652784
O48   O     O_R   0.135640 0.569590 0.463140 -0.672241
Zn1   Zn    Zn3+2 0.583120 0.000000 0.434770 0.954729
Zn2   Zn    Zn3+2 0.083120 0.500000 0.434770 0.954731
Zn3   Zn    Zn3+2 0.425830 0.000000 0.416880 0.975635
Zn4   Zn    Zn3+2 0.925830 0.500000 0.416880 0.975631
Zn5   Zn    Zn3+2 0.495530 0.070660 0.574170 0.971271
Zn6   Zn    Zn3+2 0.495530 0.929340 0.574170 0.975275
Zn7   Zn    Zn3+2 0.995530 0.570660 0.574170 0.971264
Zn8   Zn    Zn3+2 0.995530 0.429340 0.574170 0.975271

loop_
_geom_bond_atom_site_label_1
_geom_bond_atom_site_label_2
_ccdc_geom_bond_type
C64   C103  A    
C40   H62   S    
C126  C127  S    
C19   C20   S    
C75   C82   A    
C15   H5    S    
C145  C146  S    
C68   C75   A    
O1    Zn6   S    
C129  O22   S    
C45   H76   S    
C38   H59   S    
C84   C86   A    
C104  C117  A    
C5    C6    S    
C145  H151  S    
C57   O24   S    
C143  C144  S    
C128  H109  S    
C121  H79   S    
C77   C100  S    
C51   H89   S    
C122  O20   S    
C12   H180  S    
C58   O25   S    
C10   C63   S    
C144  H148  S    
C142  O27   S    
C67   C94   S    
C11   H179  S    
C79   C102  S    
O8    Zn8   S    
C141  H142  S    
O46   Zn1   S    
C131  H116  S    
C22   H22   S    
C142  H143  S    
C100  C109  A    
C38   H58   S    
C21   C22   S    
C102  C111  A    
C135  O25   S    
C80   C83   A    
C53   H94   S    
C65   C87   A    
C45   C47   S    
C68   C95   S    
C139  H135  S    
C51   C52   S    
C140  C141  S    
C71   C73   A    
C31   O37   S    
C101  C110  A    
C20   H17   S    
C118  H174  S    
C40   H63   S    
C137  H129  S    
C81   O11   A    
C21   H20   S    
C32   H45   S    
C126  H105  S    
O1    Zn3   S    
C50   H87   S    
C107  C136  A    
O44   Zn8   S    
C123  H100  S    
C6    H165  S    
C57   C97   A    
C67   C74   A    
C28   H34   S    
C74   H108  S    
C33   H48   S    
C129  H112  S    
C82   C84   A    
C87   C89   A    
C101  C115  A    
C17   H9    S    
C13   C54   A    
C75   H119  S    
O10   Zn3   S    
C135  C137  S    
C47   H77   S    
C138  H134  S    
O12   Zn8   S    
C44   O41   S    
C36   H52   S    
C4    C5    S    
C130  H114  S    
C139  C140  S    
C146  H154  S    
C60   C64   A    
C30   H41   S    
C130  C131  S    
C12   H182  S    
O14   Zn6   S    
C18   H11   S    
C32   C33   S    
C47   H80   S    
C7    H166  S    
C14   H3    S    
C2    C108  A    
C113  O36   S    
C11   H177  S    
O34   Zn5   S    
C130  H115  S    
C9    H172  S    
C25   H27   S    
C23   H25   S    
C119  H13   S    
C118  H163  S    
C1    O23   A    
C38   O39   S    
C114  C136  A    
C22   C23   S    
C10   H173  S    
C55   C121  S    
C58   C98   A    
C27   H32   S    
C123  C124  S    
C35   C96   A    
C137  H131  S    
C87   O42   S    
O1    Zn1   S    
C19   H14   S    
C36   C37   S    
C53   H95   S    
C18   C19   S    
C19   H15   S    
C38   C39   S    
C48   H82   S    
C5    H160  S    
C134  H126  S    
C14   C62   S    
C94   O6    A    
C79   O2    A    
C10   H175  S    
C49   H84   S    
C56   O22   S    
C28   H36   S    
C42   H69   S    
C110  O32   S    
C37   H56   S    
C50   H86   S    
C78   O17   A    
C59   O34   A    
C52   H92   S    
C15   O31   S    
C138  H132  S    
C140  H138  S    
C43   H70   S    
C141  H139  S    
C131  H117  S    
C78   O48   A    
C118  H152  S    
C78   C104  S    
C30   H39   S    
C39   C40   S    
C104  C112  A    
C25   C26   S    
C70   O44   A    
C95   O8    A    
C117  O39   S    
C135  H127  S    
C124  H102  S    
C69   C72   A    
C29   C30   S    
C116  O38   S    
O7    Zn7   S    
C31   C32   S    
C23   H23   S    
C26   H30   S    
C41   O40   S    
C121  H90   S    
C20   H16   S    
C32   H44   S    
C56   C61   A    
C66   C93   S    
C65   C91   S    
C85   O40   S    
C43   H72   S    
C24   C106  A    
C59   C96   S    
C4    O29   S    
C52   C53   S    
C134  H125  S    
C129  C130  S    
O15   Zn5   S    
C89   H1    S    
O5    Zn5   S    
C36   H53   S    
C127  H107  S    
C107  C111  A    
C77   O14   A    
C129  H113  S    
C66   C86   A    
C114  C116  A    
C145  O28   S    
O12   Zn7   S    
O17   Zn7   S    
C134  H124  S    
C24   C103  A    
C45   H75   S    
C128  H111  S    
C9    H170  S    
C42   H67   S    
C132  H121  S    
C128  H110  S    
C34   C36   S    
C15   H4    S    
O47   Zn1   S    
C2    C125  A    
C143  H146  S    
C49   C50   S    
C55   C99   A    
C61   C114  A    
C127  H106  S    
C35   C118  S    
C117  C125  A    
C142  H144  S    
C29   H38   S    
C41   C42   S    
C53   H93   S    
C70   C99   S    
C26   C27   S    
C21   O33   S    
C28   C29   S    
C27   H33   S    
C131  H118  S    
C7    O30   S    
C81   C98   S    
C20   H18   S    
C39   H60   S    
C40   H64   S    
C76   C101  S    
C21   H19   S    
C112  O35   S    
C4    H158  S    
C37   H54   S    
C80   C89   A    
C93   O19   A    
C41   H66   S    
C16   C17   S    
C60   O26   S    
C44   H74   S    
O19   Zn2   S    
C132  O24   S    
C92   C113  A    
C3    H156  S    
C33   H47   S    
C74   C80   A    
O23   Zn6   S    
C17   H8    S    
C105  O29   S    
C107  O27   S    
C7    C8    S    
C13   C105  A    
O18   Zn1   S    
C122  H98   S    
O6    Zn6   S    
C88   O43   S    
C108  C112  A    
C103  C115  A    
C18   H12   S    
C34   O38   S    
C144  H147  S    
C16   H6    S    
C1    O10   A    
C115  O37   S    
C76   O46   A    
C9    H171  S    
C22   H21   S    
C48   C49   S    
C83   C85   A    
C46   C97   A    
C88   C90   A    
C8    H169  S    
C133  C134  S    
C42   C43   S    
O48   Zn2   S    
C127  C128  S    
O3    Zn3   S    
C44   C45   S    
C123  H99   S    
C56   C96   A    
C79   O16   A    
C139  H136  S    
C27   H31   S    
C139  O26   S    
C145  H150  S    
C62   C125  A    
C31   H43   S    
C82   C90   A    
C25   O35   S    
C76   O15   A    
C126  H104  S    
C72   O20   S    
C121  H68   S    
C119  H2    S    
C108  O28   S    
C66   C88   A    
C12   C61   S    
C105  C109  A    
C6    H164  S    
C70   O13   A    
C10   H176  S    
C49   H83   S    
C132  H120  S    
C33   H49   S    
C37   H55   S    
C142  C143  S    
C28   O36   S    
C17   H10   S    
O13   Zn4   S    
C86   O41   S    
C8    C9    S    
C111  O33   S    
C47   H78   S    
C18   O32   S    
C54   C120  S    
C138  H133  S    
O12   Zn4   S    
C71   H141  S    
C60   C99   A    
C57   C62   A    
C122  H96   S    
C146  H153  S    
C2    C46   A    
C24   C55   A    
C51   H88   S    
C30   H40   S    
C12   H181  S    
C106  O30   S    
C67   C72   A    
C120  H46   S    
C73   O21   S    
C144  H149  S    
C15   C16   S    
C95   O7    A    
C11   H178  S    
C25   H28   S    
C23   H26   S    
C132  C133  S    
C39   H61   S    
C63   C92   A    
C120  H35   S    
C81   O45   A    
C4    H159  S    
C90   H97   S    
O11   Zn4   S    
C43   H71   S    
C44   H73   S    
O9    Zn3   S    
C3    H157  S    
C51   O43   S    
C77   O47   A    
O2    Zn2   S    
C11   C64   S    
C1    C97   S    
C48   H81   S    
C5    H161  S    
C6    H162  S    
C68   C73   A    
C7    H167  S    
C94   O5    A    
C109  O31   S    
C41   H65   S    
C31   H42   S    
C14   H183  S    
C124  H103  S    
C69   C83   A    
C133  H123  S    
C50   H85   S    
C91   O3    A    
C52   H91   S    
C93   O4    A    
C14   H184  S    
C143  H145  S    
C59   O9    A    
O12   Zn2   S    
C140  H137  S    
C141  H140  S    
C91   O18   A    
C133  H122  S    
C71   C84   A    
C106  C110  A    
C34   H50   S    
C58   C63   A    
C69   H130  S    
C126  O21   S    
C29   H37   S    
C8    H168  S    
C100  C113  A    
C35   C136  A    
C65   C85   A    
C137  C138  S    
C48   O42   S    
C135  H128  S    
C124  H101  S    
C13   C92   A    
C34   H51   S    
C26   H29   S    
O45   Zn7   S    
C46   C119  S    
O1    Zn5   S    
C102  C116  A    
C119  H24   S    
O16   Zn8   S    
C3    C146  S    
C16   H7    S    
C120  H57   S    
C54   C98   A    
C122  C123  S    
C3    H155  S    
O4    Zn4   S    
