data_mof_unit_2897.cif
_audit_creation_date              2012-12-11T15:13:50-0500
_audit_creation_method            fapswitch 2.2
_symmetry_space_group_name_H-M    P1
_symmetry_Int_Tables_number       1
_space_group_crystal_system       triclinic
_cell_length_a                    6.943747
_cell_length_b                    13.4748
_cell_length_c                    20.134345
_cell_angle_alpha                 104.076122
_cell_angle_beta                  89.460283
_cell_angle_gamma                 90.859614
_cell_volume                      1827.07764713

loop_
_atom_site_label
_atom_site_type_symbol
_atom_type_description
_atom_site_fract_x
_atom_site_fract_y
_atom_site_fract_z
_atom_type_partial_charge
O1    O     O_R   0.506780 0.600060 0.449950 -0.547181
O2    O     O_R   0.179840 0.597110 0.589410 -0.520514
O3    O     O_R   0.004570 0.399940 0.550050 -0.538506
C1    C     C_R   0.347948 0.619064 0.616730 0.782270
O4    O     O_R   0.177380 0.612160 0.452890 -0.544648
O5    O     O_R   0.002100 0.415100 0.412560 -0.546066
C2    C     C_R   0.347377 0.639429 0.436675 0.708673
O6    O     O_R   0.509250 0.584900 0.587440 -0.525980
O7    O     O_3   0.337570 0.435330 0.486930 -0.377883
V1    V     V_3+5 0.064650 0.512000 0.502430 1.499455
O8    O     O_R   0.672090 0.402890 0.410590 -0.546474
C3    C     C_R   0.840930 0.381026 0.383116 0.693110
O9    O     O_R   0.674540 0.387840 0.547110 -0.534551
C4    C     C_R   0.841595 0.360676 0.563508 0.737881
V2    V     V_3+5 0.564040 0.488000 0.497570 1.486546
O10   O     O_3   0.840990 0.564670 0.513070 -0.363927
C5    C     C_R   0.759125 0.108743 0.608503 0.287255
H1    H     H_    0.745573 0.162835 0.516490 0.143816
H2    H     H_    0.723576 0.985624 0.694758 0.174627
C6    C     C_R   0.841671 0.281577 0.601974 -0.096764
C7    C     C_R   0.918606 0.316492 0.929698 -0.158844
C8    C     C_R   0.938485 0.391719 0.893634 -0.111459
C9    C     C_R   0.914902 0.367582 0.822881 -0.104637
C10   C     C_R   0.868781 0.266377 0.786032 0.095832
C11   C     C_R   0.841953 0.190308 0.823801 0.059051
C12   C     C_R   0.847540 0.238451 0.713185 0.023415
C13   C     C_R   0.791138 0.136360 0.679998 0.071725
C14   C     C_R   0.764395 0.063812 0.718758 -0.146154
C15   C     C_R   0.790892 0.089883 0.789071 -0.204248
C16   C     C_R   0.877764 0.309001 0.672176 -0.172723
C17   C     C_R   0.779574 0.182580 0.570597 -0.195072
C18   C     C_R   0.869869 0.216132 0.895693 -0.084590
H3    H     H_    0.922808 0.387060 0.693292 0.131744
H4    H     H_    0.942796 0.336426 0.984480 0.143048
H5    H     H_    0.932963 0.430346 0.798909 0.132473
H6    H     H_    0.974972 0.469376 0.920645 0.127537
H7    H     H_    0.769532 0.030176 0.816045 0.133700
C19   C     C_3   0.676171 0.221074 0.229208 -0.190931
C20   C     C_3   0.772484 0.199873 0.293531 -0.110460
H8    H     H_    0.703475 0.159455 0.329623 0.132143
H9    H     H_    0.527476 0.197276 0.211861 0.139729
C21   C     C_3   0.850241 0.310876 0.312569 -0.081271
C22   C     C_3   0.753604 0.333018 0.249108 -0.194337
C23   C     C_3   0.938852 0.298181 0.207759 0.661589
C24   C     C_3   0.036998 0.277826 0.271385 -0.182633
C25   C     C_3   0.958857 0.166014 0.251402 -0.216467
C26   C     C_3   0.862480 0.187877 0.187811 -0.102168
H10   H     H_    0.670371 0.402363 0.248147 0.125390
H11   H     H_    0.185911 0.301776 0.288355 0.126615
H12   H     H_    0.043037 0.096829 0.252011 0.137123
C27   C     C_3   0.484258 0.785937 0.709593 -0.257135
C28   C     C_3   0.309284 0.843105 0.747685 0.252968
H13   H     H_    0.587256 0.814789 0.676003 0.180592
C29   C     C_3   0.359849 0.810622 0.813100 -0.232369
C30   C     C_3   0.536282 0.752054 0.775854 -0.136922
C31   C     C_3   0.405462 0.656284 0.752382 0.623105
C32   C     C_3   0.230095 0.714020 0.790596 -0.326497
C33   C     C_3   0.180120 0.748085 0.724759 0.579360
C34   C     C_3   0.354073 0.689380 0.686955 -0.246542
H14   H     H_    0.682936 0.752344 0.797413 0.175612
H15   H     H_    0.126666 0.683956 0.823524 0.148423
C35   C     C_R   0.390413 0.894057 0.392685 0.605566
H16   H     H_    0.384966 0.843661 0.485997 0.125383
H17   H     H_    0.410425 0.019966 0.309018 0.172372
C36   C     C_R   0.359338 0.717168 0.397328 -0.108668
C37   C     C_R   0.329577 0.681461 0.068117 -0.183401
C38   C     C_R   0.316036 0.605022 0.103430 -0.092573
C39   C     C_R   0.326142 0.629285 0.174653 -0.136783
C40   C     C_R   0.350137 0.732017 0.212795 0.096068
C41   C     C_R   0.363509 0.810083 0.176142 0.078175
C42   C     C_R   0.360361 0.759860 0.285915 0.006456
C43   C     C_R   0.381756 0.864906 0.320674 0.028146
C44   C     C_R   0.394086 0.939741 0.283338 -0.163257
C45   C     C_R   0.385609 0.912953 0.212387 -0.229092
C46   C     C_R   0.350026 0.687028 0.325956 -0.223517
C47   C     C_R   0.378837 0.820365 0.430613 -0.268777
C48   C     C_R   0.353487 0.783587 0.103678 -0.075509
H18   H     H_    0.335121 0.606134 0.303587 0.114784
H19   H     H_    0.321204 0.660951 0.012716 0.113595
H20   H     H_    0.313814 0.565608 0.198022 0.138561
H21   H     H_    0.297244 0.526079 0.075366 0.148016
H22   H     H_    0.395949 0.974105 0.186145 0.117375
O11   O     O_R   0.203580 0.914920 0.912610 -0.544098
O12   O     O_R   0.535710 0.887810 0.047120 -0.541734
O13   O     O_R   0.710730 0.084950 0.087430 -0.544837
C49   C     C_R   0.365832 0.861280 0.063986 0.685078
O14   O     O_R   0.533010 0.902850 0.910600 -0.546467
O15   O     O_R   0.708010 0.100090 0.949930 -0.537826
C50   C     C_R   0.365048 0.880893 0.883315 0.754385
O16   O     O_R   0.206300 0.899780 0.050100 -0.543324
O17   O     O_3   0.375170 0.064580 0.013100 -0.366274
V3    V     V_3+5 0.648200 0.988020 0.997570 1.441512
O18   O     O_R   0.038030 0.112330 0.952840 -0.537458
C51   C     C_R   0.870959 0.138076 0.935348 0.699714
O19   O     O_R   0.040730 0.097300 0.089360 -0.533262
C52   C     C_R   0.871922 0.118583 0.117005 0.734111
V4    V     V_3+5 0.148780 0.012220 0.002360 1.461649
O20   O     O_3   0.871930 0.935430 0.986900 -0.376551
F1    F     F_    0.024986 0.348717 0.162952 -0.712785
N1    N     N_2   0.256506 0.946339 0.747112 -0.504670
H23   H     H_    0.147555 0.974520 0.781294 0.262378
C53   C     C_3   0.226513 0.963564 0.679948 -0.504324
H24   H     H_    0.199333 0.045977 0.684649 0.205520
H25   H     H_    0.100281 0.918120 0.655459 0.220432
H26   H     H_    0.356159 0.941936 0.647249 0.194871
F2    F     F_    0.457005 0.558279 0.754222 -0.682452
F3    F     F_    0.996876 0.748034 0.698425 -0.696170
F4    F     F_    0.409651 0.994027 0.426429 -0.725071
N2    N     N_2   0.693408 0.008530 0.575417 -0.551853
H27   H     H_    0.559501 0.008428 0.553709 0.293647
C54   C     C_3   0.830178 0.948385 0.528224 -0.494153
H28   H     H_    0.848977 0.979674 0.482313 0.215365
H29   H     H_    0.776136 0.868279 0.511515 0.198214
H30   H     H_    0.971726 0.947963 0.553275 0.196660

loop_
_geom_bond_atom_site_label_1
_geom_bond_atom_site_label_2
_ccdc_geom_bond_type
C39   H20   S    
C18   C51   S    
C30   C31   S    
O18   C51   A    
C44   C45   A    
O19   C52   A    
C1    O6    A    
V4    O20   S    
V3    O20   S    
C6    C16   A    
C24   C25   S    
C37   H19   S    
C12   C13   A    
C36   C47   A    
C14   C15   A    
O12   C49   A    
N2    C54   S    
O5    C3    A    
C19   C20   S    
O13   C52   A    
C35   F4    S    
H16   C47   S    
V2    O10   S    
C31   C32   S    
C53   H26   S    
C33   F3    S    
C40   C42   A    
C3    C21   S    
C29   C30   S    
O8    V2    S    
O15   V3    S    
C39   C40   A    
C41   C45   A    
C26   C52   S    
O1    V2    S    
O9    C4    A    
C22   H10   S    
O16   V4    S    
C16   H3    S    
C23   C26   S    
C11   C18   A    
C37   C38   A    
C30   H14   S    
C41   C48   A    
C35   C47   A    
C53   H24   S    
C45   H22   S    
O4    V1    S    
O13   V3    S    
C28   C29   S    
C20   C21   S    
C11   C15   A    
O11   C50   A    
C7    C18   A    
O15   C51   A    
C27   C28   S    
C5    C13   A    
C4    C6    S    
C10   C11   A    
C19   H9    S    
C49   O16   A    
C20   H8    S    
O4    C2    A    
C7    H4    S    
C33   C34   S    
C28   N1    S    
C38   C39   A    
C27   H13   S    
C21   C24   S    
O2    C1    A    
C22   C23   S    
C2    C36   S    
C24   H11   S    
H17   C44   S    
N1    C53   S    
C35   C43   A    
C54   H29   S    
O17   V4    S    
C53   H25   S    
H2    C14   S    
C31   F2    S    
C19   C26   S    
O3    C4    A    
C28   C33   S    
C29   C50   S    
C20   C25   S    
C48   C49   S    
C38   H21   S    
O6    V2    S    
C9    H5    S    
O14   C50   A    
C5    C17   A    
C27   C34   S    
C21   C22   S    
O2    V1    S    
O18   V4    S    
O17   V3    S    
O14   V3    S    
C23   C24   S    
O7    V1    S    
C37   C48   A    
C25   C26   S    
C54   H28   S    
O1    C2    A    
C10   C12   A    
C43   C44   A    
C5    N2    S    
O5    V1    S    
O8    C3    A    
O19   V4    S    
C32   H15   S    
C8    H6    S    
C25   H12   S    
C36   C46   A    
C31   C34   S    
O9    V2    S    
O7    V2    S    
C19   C22   S    
O3    V1    S    
V1    O10   S    
N2    H27   S    
C29   C32   S    
C42   C46   A    
C32   C33   S    
C1    C34   S    
N1    H23   S    
C23   F1    S    
C54   H30   S    
C27   C30   S    
C40   C41   A    
C46   H18   S    
C9    C10   A    
C42   C43   A    
O11   V4    S    
C15   H7    S    
C13   C14   A    
C8    C9    A    
H1    C17   S    
O12   V3    S    
C7    C8    A    
C6    C17   A    
C12   C16   A    
