data_mof_unit_1384.cif
_audit_creation_date              2012-12-10T19:47:23-0500
_audit_creation_method            fapswitch 2.2
_symmetry_space_group_name_H-M    P1
_symmetry_Int_Tables_number       1
_space_group_crystal_system       triclinic
_cell_length_a                    14.855224
_cell_length_b                    14.173598
_cell_length_c                    10.622963
_cell_angle_alpha                 90.186088
_cell_angle_beta                  90.525674
_cell_angle_gamma                 90.050217
_cell_volume                      2236.57896889

loop_
_atom_site_label
_atom_site_type_symbol
_atom_type_description
_atom_site_fract_x
_atom_site_fract_y
_atom_site_fract_z
_atom_type_partial_charge
C1    C     C_R   0.327626 0.500001 0.502714 0.915181
C2    C     C_R   0.952884 0.502753 0.572150 -0.049306
C3    C     C_R   0.460851 0.104981 0.400256 -0.274956
C4    C     C_R   0.539238 0.105518 0.599607 -0.273168
C5    C     C_R   0.461317 0.204222 0.402372 0.031491
C6    C     C_R   0.538780 0.204747 0.597537 0.067332
C7    C     C_R   0.500020 0.053366 0.499935 0.136449
C8    C     C_R   0.570197 0.894957 0.557457 -0.271023
C9    C     C_R   0.429799 0.894524 0.442411 -0.270670
C10   C     C_R   0.568710 0.795729 0.556794 0.031700
C11   C     C_R   0.431282 0.795288 0.443145 0.031380
C12   C     C_R   0.672954 0.499979 0.502941 0.920239
C13   C     C_R   0.499999 0.946623 0.499931 0.134911
C14   C     C_R   0.497478 0.499866 0.260344 0.860464
C15   C     C_R   0.497900 0.500124 0.739620 0.878516
C16   C     C_R   0.344589 0.582366 0.129319 -0.192165
C17   C     C_R   0.345605 0.583773 0.866957 -0.154541
C18   C     C_R   0.272966 0.622492 0.062690 -0.154869
C19   C     C_R   0.273561 0.623178 0.931701 -0.162533
C20   C     C_R   0.418881 0.543064 0.933114 0.091241
C21   C     C_R   0.418466 0.542498 0.064972 0.092290
C22   C     C_R   0.491419 0.499353 0.128127 -0.090436
C23   C     C_R   0.232295 0.500568 0.522786 -0.194998
C24   C     C_R   0.491971 0.500088 0.871671 -0.087112
C25   C     C_R   0.560801 0.454270 0.064940 -0.211501
C26   C     C_R   0.561035 0.454576 0.936384 -0.224719
C27   C     C_R   0.087122 0.562929 0.466646 0.559508
C28   C     C_R   0.901555 0.583654 0.599692 0.568800
C29   C     C_R   0.179254 0.560664 0.449448 -0.418393
C30   C     C_R   0.810206 0.581752 0.572672 -0.356971
C31   C     C_3   0.010946 0.566067 0.279773 0.058500
C32   C     C_3   0.927706 0.610037 0.218135 -0.287796
C33   C     C_3   0.896536 0.553401 0.103223 -1.007023
C34   C     C_R   0.769534 0.500105 0.523276 -0.247673
C35   C     C_3   0.991091 0.659219 0.749509 0.082057
C36   C     C_3   0.969819 0.741680 0.837569 -0.318425
C37   C     C_3   0.038932 0.750195 0.944252 -0.982098
C38   C     C_3   0.224593 0.375325 0.815413 -0.323964
C39   C     C_3   0.789773 0.338802 0.320719 -0.301198
C40   C     C_R   0.195613 0.445781 0.620137 0.548246
C41   C     C_R   0.820961 0.418432 0.501052 0.542695
C42   C     C_R   0.102308 0.449110 0.637382 -0.409750
C43   C     C_R   0.912187 0.419854 0.528783 -0.352579
C44   C     C_R   0.049408 0.508086 0.562400 -0.035287
H1    H     H_    0.615742 0.420583 0.115506 0.143691
H2    H     H_    0.217539 0.652944 0.879749 0.137172
H3    H     H_    0.208972 0.603600 0.376495 0.170031
H4    H     H_    0.771056 0.644709 0.590978 0.192683
H5    H     H_    0.069796 0.404916 0.706380 0.170596
H6    H     H_    0.952517 0.358257 0.507138 0.182015
H7    H     H_    0.431041 0.069288 0.319913 0.136285
H8    H     H_    0.569075 0.070260 0.679921 0.134880
H9    H     H_    0.430850 0.242732 0.325289 0.126047
H10   H     H_    0.569324 0.243662 0.674590 0.125272
H11   H     H_    0.995179 0.490695 0.300747 0.131089
H12   H     H_    0.616074 0.420971 0.887035 0.146851
H13   H     H_    0.068009 0.568638 0.212694 0.132430
H14   H     H_    0.872107 0.612433 0.287439 0.233494
H15   H     H_    0.943322 0.683474 0.189200 0.232001
H16   H     H_    0.951732 0.546778 0.034052 0.261655
H17   H     H_    0.838727 0.589621 0.057380 0.272582
H18   H     H_    0.874736 0.481743 0.131923 0.257010
H19   H     H_    0.063554 0.661813 0.724466 0.168418
H20   H     H_    0.978254 0.592223 0.801517 0.105677
H21   H     H_    0.969315 0.808746 0.783556 0.243041
H22   H     H_    0.901785 0.731123 0.877959 0.214304
H23   H     H_    0.626820 0.930592 0.601324 0.139324
H24   H     H_    0.047940 0.681656 0.992923 0.262243
H25   H     H_    0.015898 0.803477 0.013659 0.271805
H26   H     H_    0.104656 0.773566 0.906415 0.265222
H27   H     H_    0.198718 0.441802 0.857803 0.157273
H28   H     H_    0.283484 0.352952 0.872905 0.200624
H29   H     H_    0.173412 0.318339 0.820548 0.170053
H30   H     H_    0.754222 0.400950 0.280072 0.143623
H31   H     H_    0.757133 0.274551 0.281581 0.195010
H32   H     H_    0.861430 0.338203 0.290970 0.146212
H33   H     H_    0.373192 0.929835 0.398492 0.138688
H34   H     H_    0.622962 0.757165 0.601551 0.123565
H35   H     H_    0.377037 0.756360 0.398379 0.127674
H36   H     H_    0.340778 0.581563 0.230846 0.134402
H37   H     H_    0.342163 0.583785 0.765310 0.157345
H38   H     H_    0.216536 0.652335 0.112778 0.139239
N1    N     N_R   0.500000 0.252470 0.500000 -0.090328
N2    N     N_R   0.500000 0.747550 0.500000 -0.093912
O1    O     O_R   0.369060 0.579480 0.500010 -0.648546
O2    O     O_3   0.939265 0.668875 0.637677 -0.622969
O3    O     O_3   0.252881 0.387494 0.689966 -0.589204
O4    O     O_3   0.782783 0.336787 0.452985 -0.581642
O5    O     O_R   0.630940 0.579480 0.499990 -0.633931
O6    O     O_R   0.369050 0.420520 0.500010 -0.572380
O7    O     O_R   0.630950 0.420520 0.499990 -0.567476
O8    O     O_R   0.500000 0.579490 0.316770 -0.616372
O9    O     O_R   0.500000 0.579490 0.683230 -0.628191
O10   O     O_R   0.499990 0.420540 0.316770 -0.633364
O11   O     O_R   0.500010 0.420540 0.683230 -0.614965
O12   O     O_3   0.033463 0.618136 0.389444 -0.615416
Zn1   Zn    Zn3+2 0.500000 0.606140 0.500000 0.937280
Zn2   Zn    Zn3+2 0.500000 0.393860 0.500000 0.984048

loop_
_geom_bond_atom_site_label_1
_geom_bond_atom_site_label_2
_ccdc_geom_bond_type
C1    O6    A    
C37   H25   S    
C27   C29   A    
C12   O7    A    
C35   C36   S    
C32   H14   S    
C10   H34   S    
C19   H2    S    
C8    C13   A    
C29   H3    S    
N2    Zn1   S    
C23   C29   A    
C40   O3    S    
C30   H4    S    
C36   C37   S    
C24   C26   A    
C3    C7    A    
C15   O11   A    
C5    N1    A    
C35   O2    S    
C36   H22   S    
O10   Zn2   S    
C23   C40   A    
C37   H24   S    
C17   C20   A    
C18   C19   A    
C39   H30   S    
C9    C13   A    
C17   C19   A    
C27   C44   A    
C20   C24   A    
C2    C44   S    
C33   H18   S    
C22   C25   A    
C35   H20   S    
C39   H31   S    
C40   C42   A    
C21   C22   A    
C41   C43   A    
C27   O12   S    
C34   C41   A    
C42   C44   A    
C39   O4    S    
C6    H10   S    
C4    C7    A    
O8    Zn1   S    
C1    O1    A    
C38   H28   S    
O11   Zn2   S    
C30   C34   A    
C12   O5    A    
C4    C6    A    
C3    H7    S    
C36   H21   S    
C25   C26   A    
C16   C21   A    
N1    Zn2   S    
O5    Zn1   S    
C16   H36   S    
O9    Zn1   S    
C31   C32   S    
C2    C43   A    
C9    H33   S    
C39   H32   S    
C9    C11   A    
C14   O8    A    
C11   H35   S    
C16   C18   A    
C15   C24   S    
C4    H8    S    
C1    C23   S    
C33   H16   S    
C28   O2    S    
C12   C34   S    
C25   H1    S    
C5    H9    S    
C41   O4    S    
C38   H27   S    
C6    N1    A    
C3    C5    A    
C26   H12   S    
C15   O9    A    
C35   H19   S    
C43   H6    S    
C11   N2    A    
C38   O3    S    
C32   C33   S    
C14   C22   S    
C28   C30   A    
C31   H13   S    
C33   H17   S    
C10   N2    A    
C18   H38   S    
O6    Zn2   S    
C17   H37   S    
O7    Zn2   S    
O1    Zn1   S    
C42   H5    S    
C7    C13   S    
C20   C21   A    
C8    H23   S    
C8    C10   A    
C2    C28   A    
C32   H15   S    
C31   H11   S    
C37   H26   S    
C14   O10   A    
C31   O12   S    
C38   H29   S    
