data_mof_unit_3245.cif
_audit_creation_date              2012-12-10T17:17:50-0500
_audit_creation_method            fapswitch 2.2
_symmetry_space_group_name_H-M    P1
_symmetry_Int_Tables_number       1
_space_group_crystal_system       triclinic
_cell_length_a                    15.42095
_cell_length_b                    15.404286
_cell_length_c                    9.580297
_cell_angle_alpha                 90.004812
_cell_angle_beta                  91.472342
_cell_angle_gamma                 89.999861
_cell_volume                      2275.03595851

loop_
_atom_site_label
_atom_site_type_symbol
_atom_type_description
_atom_site_fract_x
_atom_site_fract_y
_atom_site_fract_z
_atom_type_partial_charge
C1    C     C_R   0.386293 0.876402 0.499035 0.837234
C2    C     C_R   0.386307 0.123610 0.499048 0.837211
C3    C     C_R   0.886293 0.376401 0.499035 0.837234
C4    C     C_R   0.886307 0.623610 0.499048 0.837211
C5    C     C_R   0.274900 0.213123 0.377478 -0.197707
C6    C     C_R   0.274776 0.786990 0.377499 -0.197701
C7    C     C_R   0.774900 0.713122 0.377478 -0.197707
C8    C     C_R   0.774778 0.286988 0.377498 -0.197700
C9    C     C_R   0.707356 0.772352 0.381163 -0.192121
C10   C     C_R   0.707236 0.227754 0.381200 -0.192095
C11   C     C_R   0.207356 0.272353 0.381163 -0.192123
C12   C     C_R   0.207234 0.727755 0.381201 -0.192094
C13   C     C_R   0.683745 0.810380 0.507929 -0.075113
C14   C     C_R   0.683718 0.189646 0.507944 -0.075151
C15   C     C_R   0.183745 0.310381 0.507929 -0.075113
C16   C     C_R   0.183717 0.689646 0.507944 -0.075151
C17   C     C_R   0.660432 0.999970 0.149728 -0.154777
C18   C     C_R   0.160432 0.499970 0.149728 -0.154776
C19   C     C_R   0.738207 0.999937 0.080350 -0.243309
C20   C     C_R   0.238207 0.499935 0.080350 -0.243309
C21   C     C_R   0.737811 0.999935 0.936936 -0.187152
C22   C     C_R   0.237811 0.499934 0.936936 -0.187152
C23   C     C_R   0.659640 0.999970 0.862220 -0.180415
C24   C     C_R   0.159640 0.499969 0.862220 -0.180416
C25   C     C_R   0.578543 0.999984 0.928266 0.186451
C26   C     C_R   0.078543 0.499984 0.928266 0.186451
C27   C     C_R   0.578681 0.999984 0.077861 0.214726
C28   C     C_R   0.078681 0.499984 0.077861 0.214726
C29   C     C_R   0.425394 0.000015 0.070840 -0.073640
C30   C     C_R   0.925394 0.500015 0.070840 -0.073640
C31   C     C_R   0.617256 0.120964 0.502146 0.799510
C32   C     C_R   0.617264 0.879043 0.502139 0.799552
C33   C     C_R   0.117256 0.620964 0.502146 0.799510
C34   C     C_R   0.117264 0.379043 0.502139 0.799552
C35   C     C_R   0.425434 0.000016 0.922847 -0.035923
C36   C     C_R   0.925434 0.500016 0.922847 -0.035923
C37   C     C_R   0.372541 0.253490 0.730498 0.161654
C38   C     C_R   0.372672 0.746383 0.730239 0.161517
C39   C     C_R   0.872542 0.753491 0.730498 0.161653
C40   C     C_R   0.872672 0.246384 0.730242 0.161519
C41   C     C_R   0.346158 0.273911 0.864511 -0.159750
C42   C     C_R   0.346392 0.725889 0.864274 -0.159622
C43   C     C_R   0.846159 0.773914 0.864510 -0.159748
C44   C     C_R   0.846391 0.225892 0.864277 -0.159622
C45   C     C_R   0.759848 0.793980 0.885870 -0.188440
C46   C     C_R   0.760092 0.205838 0.885776 -0.188511
C47   C     C_R   0.259848 0.293978 0.885870 -0.188439
C48   C     C_R   0.260093 0.705836 0.885775 -0.188513
C49   C     C_R   0.703582 0.805656 0.770974 -0.142315
C50   C     C_R   0.703737 0.194232 0.770967 -0.142442
C51   C     C_R   0.203582 0.305656 0.770974 -0.142314
C52   C     C_R   0.203738 0.694231 0.770966 -0.142442
C53   C     C_R   0.730736 0.787841 0.633291 0.085873
C54   C     C_R   0.730791 0.212120 0.633262 0.085881
C55   C     C_R   0.230736 0.287841 0.633291 0.085874
C56   C     C_R   0.230791 0.712120 0.633262 0.085883
C57   C     C_R   0.310695 0.245220 0.620296 0.059499
C58   C     C_R   0.310741 0.754740 0.620190 0.059548
C59   C     C_R   0.810695 0.745221 0.620295 0.059499
C60   C     C_R   0.810740 0.254741 0.620191 0.059547
C61   C     C_R   0.326263 0.197680 0.497341 -0.096541
C62   C     C_R   0.326228 0.802350 0.497294 -0.096542
C63   C     C_R   0.826263 0.697680 0.497340 -0.096541
C64   C     C_R   0.826229 0.302349 0.497294 -0.096542
Cu1   Cu    Cu3+1 0.499990 0.000000 0.640660 0.954468
Cu2   Cu    Cu3+1 0.999990 0.500000 0.640660 0.954468
Cu3   Cu    Cu3+1 0.500010 0.000000 0.359340 0.944540
Cu4   Cu    Cu3+1 0.000010 0.500000 0.359340 0.944540
H1    H     H_    0.286667 0.179277 0.280656 0.161493
H2    H     H_    0.286475 0.820898 0.280720 0.161501
H3    H     H_    0.786666 0.679276 0.280656 0.161493
H4    H     H_    0.786477 0.320896 0.280718 0.161501
H5    H     H_    0.798575 0.999919 0.882657 0.183745
H6    H     H_    0.298575 0.499918 0.882657 0.183745
H7    H     H_    0.667446 0.999996 0.752907 0.210566
H8    H     H_    0.167446 0.499995 0.752907 0.210566
H9    H     H_    0.364271 0.000029 0.864988 0.151412
H10   H     H_    0.864271 0.500029 0.864988 0.151412
H11   H     H_    0.393050 0.278903 0.950177 0.160242
H12   H     H_    0.393350 0.720825 0.949831 0.160249
H13   H     H_    0.893051 0.778907 0.950175 0.160242
H14   H     H_    0.893349 0.220829 0.949835 0.160247
H15   H     H_    0.738257 0.808050 0.990129 0.161935
H16   H     H_    0.738577 0.191719 0.990058 0.162029
H17   H     H_    0.238256 0.308048 0.990130 0.161935
H18   H     H_    0.238579 0.691717 0.990057 0.162030
H19   H     H_    0.639058 0.825753 0.794991 0.200464
H20   H     H_    0.639231 0.174129 0.795068 0.200499
H21   H     H_    0.139058 0.325753 0.794991 0.200464
H22   H     H_    0.139232 0.674129 0.795069 0.200499
H23   H     H_    0.671823 0.786325 0.284739 0.165558
H24   H     H_    0.671634 0.213837 0.284816 0.165595
H25   H     H_    0.171824 0.286326 0.284739 0.165558
H26   H     H_    0.171632 0.713839 0.284818 0.165595
H27   H     H_    0.364235 0.000028 0.123670 0.139390
H28   H     H_    0.864235 0.500028 0.123670 0.139390
H29   H     H_    0.669682 0.999989 0.259441 0.206536
H30   H     H_    0.169682 0.499989 0.259441 0.206536
H31   H     H_    0.799322 0.999921 0.138654 0.167806
H32   H     H_    0.299322 0.499919 0.138654 0.167806
N1    N     N_R   0.501200 0.000000 0.147910 -0.201370
N2    N     N_R   0.001200 0.500000 0.147910 -0.201370
N3    N     N_R   0.501270 0.000000 0.852040 -0.198832
N4    N     N_R   0.001270 0.500000 0.852040 -0.198832
O1    O     O_R   0.409820 0.909830 0.618810 -0.567500
O2    O     O_R   0.409820 0.090170 0.618810 -0.567472
O3    O     O_R   0.909820 0.409830 0.618810 -0.567500
O4    O     O_R   0.909820 0.590170 0.618810 -0.567472
O5    O     O_R   0.409840 0.909830 0.381240 -0.584598
O6    O     O_R   0.409840 0.090170 0.381240 -0.584646
O7    O     O_R   0.909840 0.409830 0.381240 -0.584598
O8    O     O_R   0.909840 0.590170 0.381240 -0.584646
O9    O     O_R   0.590170 0.090170 0.618760 -0.607105
O10   O     O_R   0.590170 0.909830 0.618760 -0.607161
O11   O     O_R   0.090170 0.590170 0.618760 -0.607105
O12   O     O_R   0.090170 0.409830 0.618760 -0.607161
O13   O     O_R   0.590190 0.090180 0.381190 -0.604132
O14   O     O_R   0.590190 0.909820 0.381190 -0.604111
O15   O     O_R   0.090190 0.590180 0.381190 -0.604133
O16   O     O_R   0.090190 0.409820 0.381190 -0.604111
I1    I     I_    0.501440 0.284079 0.685005 -0.420214
I2    I     I_    0.501489 0.715706 0.684346 -0.420278
I3    I     I_    0.001441 0.784080 0.685003 -0.420214
I4    I     I_    0.001489 0.215707 0.684350 -0.420278

loop_
_geom_bond_atom_site_label_1
_geom_bond_atom_site_label_2
_ccdc_geom_bond_type
C58   C62   A    
Cu2   Cu4   S    
C42   H12   S    
C40   C60   A    
Cu1   O10   S    
C49   H19   S    
C13   C32   S    
C52   H22   S    
C14   C31   S    
C1    C62   S    
C9    H23   S    
C53   C59   A    
C54   C60   A    
C3    C64   S    
C4    O4    A    
C4    C63   S    
C50   C54   A    
Cu2   O12   S    
C47   H17   S    
C19   C21   A    
Cu4   N2    S    
C5    C11   A    
C35   N3    A    
Cu4   O15   S    
C6    C12   A    
C34   O12   A    
C21   H5    S    
C39   I3    S    
C6    H2    S    
Cu4   O8    S    
C9    C13   A    
C31   O13   A    
C5    H1    S    
C1    O5    A    
C38   C58   A    
C11   C15   A    
Cu3   O5    S    
C12   C16   A    
C3    O7    A    
Cu1   Cu3   S    
C44   H14   S    
C30   H28   S    
Cu2   O3    S    
C15   C34   S    
C51   C55   A    
C2    C61   S    
C50   H20   S    
C26   N4    A    
C11   H25   S    
C4    O8    A    
C10   H24   S    
C12   H26   S    
C45   H15   S    
C27   N1    A    
Cu1   O1    S    
C44   C46   A    
C13   C53   A    
C56   C58   A    
C34   O16   A    
C40   I4    S    
C8    H4    S    
C33   O11   A    
Cu2   O11   S    
C29   N1    A    
C17   C27   A    
Cu2   N4    S    
C18   C28   A    
C10   C14   A    
C32   O14   A    
C29   H27   S    
C19   H31   S    
C25   N3    A    
C48   H18   S    
C39   C43   A    
C3    O3    A    
C35   H9    S    
Cu4   O7    S    
C15   C55   A    
C16   C56   A    
C16   C33   S    
C43   C45   A    
Cu3   O6    S    
C20   H32   S    
C45   C49   A    
C39   C59   A    
C30   N2    A    
C41   C47   A    
C5    C61   A    
C42   C48   A    
Cu3   O13   S    
C7    C63   A    
C38   I2    S    
C8    C64   A    
C37   I1    S    
C14   C54   A    
C20   C22   A    
C33   O15   A    
C21   C23   A    
C43   H13   S    
C22   C24   A    
C59   C63   A    
Cu1   N3    S    
C40   C44   A    
Cu1   O2    S    
C23   H7    S    
Cu3   N1    S    
C7    C9    A    
C46   C50   A    
C2    O6    A    
Cu1   O9    S    
C24   H8    S    
C24   C26   A    
Cu2   O4    S    
C41   H11   S    
C47   C51   A    
C57   C61   A    
C25   C27   A    
C29   C35   A    
C26   C28   A    
C30   C36   A    
C60   C64   A    
C6    C62   A    
C55   C57   A    
C36   H10   S    
Cu4   O16   S    
C7    H3    S    
C36   N4    A    
C49   C53   A    
C17   C19   A    
C2    O2    A    
C46   H16   S    
C18   C20   A    
C23   C25   A    
C37   C41   A    
Cu3   O14   S    
C37   C57   A    
C38   C42   A    
C28   N2    A    
C48   C52   A    
C8    C10   A    
C22   H6    S    
C18   H30   S    
C32   O10   A    
C17   H29   S    
C31   O9    A    
C51   H21   S    
C52   C56   A    
C1    O1    A    
