data_mof_unit_2068.cif
_audit_creation_date              2012-12-10T17:49:39-0500
_audit_creation_method            fapswitch 2.2
_symmetry_space_group_name_H-M    P1
_symmetry_Int_Tables_number       1
_space_group_crystal_system       triclinic
_cell_length_a                    14.624484
_cell_length_b                    14.824815
_cell_length_c                    15.8816
_cell_angle_alpha                 77.030911
_cell_angle_beta                  102.659906
_cell_angle_gamma                 114.824185
_cell_volume                      3014.80700553

loop_
_atom_site_label
_atom_site_type_symbol
_atom_type_description
_atom_site_fract_x
_atom_site_fract_y
_atom_site_fract_z
_atom_type_partial_charge
C1    C     C_R   0.879711 0.312612 0.513684 0.800879
C2    C     C_3   0.020059 0.411476 0.070094 -0.377398
C3    C     C_3   0.003862 0.503966 0.082976 0.151796
C4    C     C_3   0.089698 0.602756 0.046392 0.110936
C5    C     C_3   0.086297 0.603703 0.946723 0.145128
C6    C     C_1   0.002584 0.501485 0.175474 -0.069277
C7    C     C_1   0.998966 0.502972 0.823849 -0.052662
C8    C     C_1   0.999221 0.501272 0.748794 -0.202274
C9    C     C_R   0.810762 0.206124 0.527830 -0.095206
C10   C     C_R   0.188576 0.794229 0.483783 -0.096226
C11   C     C_R   0.784839 0.034468 0.593376 -0.200133
C12   C     C_R   0.999596 0.500049 0.659624 0.826238
C13   C     C_R   0.849811 0.134316 0.573577 -0.239210
C14   C     C_R   0.704454 0.176232 0.501392 0.170594
C15   C     C_R   0.638256 0.079395 0.534048 0.048441
C16   C     C_R   0.679398 0.006352 0.573770 0.118597
C17   C     C_R   0.531613 0.051764 0.525283 0.072069
C18   C     C_R   0.466959 0.948842 0.532763 0.076015
C19   C     C_R   0.509880 0.877181 0.571044 -0.176783
C20   C     C_R   0.614524 0.906088 0.593428 -0.225457
C21   C     C_R   0.488343 0.122991 0.517211 -0.173469
C22   C     C_R   0.383483 0.093671 0.508791 -0.209747
C23   C     C_R   0.120252 0.687501 0.485167 0.802722
C24   C     C_R   0.318873 0.993630 0.502866 0.108399
C25   C     C_R   0.360477 0.921271 0.509072 0.046240
C26   C     C_R   0.213277 0.964934 0.490875 -0.190948
C27   C     C_R   0.148802 0.865213 0.484741 -0.236356
C28   C     C_R   0.294959 0.825061 0.488280 0.189702
C29   C     C_R   0.711583 0.663466 0.351833 -0.088782
C30   C     C_R   0.797503 0.639541 0.380414 0.062089
C31   C     C_R   0.712422 0.505896 0.484786 0.004931
C32   C     C_R   0.621264 0.523440 0.458451 -0.064738
C33   C     C_R   0.618913 0.599038 0.385782 0.020628
C34   C     C_R   0.000371 0.499886 0.340370 0.821399
C35   C     C_R   0.533549 0.469310 0.502353 0.069089
C36   C     C_R   0.443261 0.488420 0.470854 0.031386
C37   C     C_R   0.434701 0.542039 0.385125 -0.081875
C38   C     C_R   0.523240 0.602365 0.345452 0.155184
C39   C     C_R   0.532584 0.395915 0.576526 -0.248488
C40   C     C_R   0.449654 0.348503 0.621940 -0.158438
C41   C     C_R   0.366834 0.377733 0.600588 0.120222
C42   C     C_R   0.363546 0.449386 0.524834 -0.007153
C43   C     C_R   0.285988 0.336333 0.651857 -0.102295
C44   C     C_R   0.204055 0.366331 0.625533 -0.014749
C45   C     C_3   0.012771 0.409568 0.971914 -0.439421
C46   C     C_R   0.282554 0.482706 0.508271 0.062802
C47   C     C_3   0.894710 0.498927 0.931883 0.060389
C48   C     C_3   0.899338 0.500130 0.030676 -0.469045
C49   C     C_1   0.001647 0.500362 0.250994 -0.158347
C50   C     C_3   0.999662 0.505193 0.915645 0.191224
Cu1   Cu    Cu3+1 0.081750 0.475690 0.522550 0.950467
Cu2   Cu    Cu3+1 0.918250 0.524310 0.477450 0.931975
H1    H     H_    0.961309 0.341138 0.098813 0.181864
H2    H     H_    0.078634 0.398610 0.959592 0.187715
H3    H     H_    0.095300 0.412624 0.104580 0.189139
H4    H     H_    0.070557 0.666120 0.052866 0.101399
H5    H     H_    0.644775 0.849500 0.624797 0.143992
H6    H     H_    0.067589 0.843830 0.480263 0.172779
H7    H     H_    0.352920 0.149787 0.505296 0.158696
H8    H     H_    0.816966 0.979621 0.625920 0.141620
H9    H     H_    0.930872 0.155118 0.593573 0.164590
H10   H     H_    0.945963 0.341438 0.953366 0.165852
H11   H     H_    0.463040 0.799201 0.589936 0.149524
H12   H     H_    0.534977 0.200727 0.523599 0.149528
H13   H     H_    0.180634 0.019127 0.488421 0.150560
H14   H     H_    0.280196 0.543479 0.457137 0.127501
H15   H     H_    0.140260 0.333603 0.662041 0.124127
H16   H     H_    0.453184 0.289828 0.675226 0.196674
H17   H     H_    0.867463 0.684713 0.353153 0.169127
H18   H     H_    0.719383 0.447684 0.536745 0.125719
H19   H     H_    0.594674 0.371955 0.601409 0.126675
H20   H     H_    0.834657 0.425323 0.916424 0.157955
H21   H     H_    0.837096 0.431477 0.057276 0.179944
H22   H     H_    0.885596 0.565434 0.039993 0.184113
H23   H     H_    0.063027 0.666529 0.912892 0.058659
N1    N     N_R   0.795410 0.560790 0.443550 -0.198649
N2    N     N_R   0.204590 0.439170 0.556520 -0.182201
O1    O     O_R   0.977910 0.338120 0.529720 -0.582386
O2    O     O_R   0.839850 0.379180 0.491640 -0.591560
O3    O     O_R   0.069060 0.479460 0.639610 -0.579445
O4    O     O_R   0.931000 0.520530 0.601530 -0.582096
O5    O     O_R   0.160150 0.620820 0.508360 -0.590201
O6    O     O_R   0.022090 0.661880 0.470280 -0.592189
O7    O     O_R   0.069000 0.479470 0.398470 -0.554763
O8    O     O_R   0.930940 0.520540 0.360390 -0.576192
N3    N     N_2   0.336275 0.767727 0.458976 -0.433606
H24   H     H_    0.334137 0.701831 0.498526 0.256532
C51   C     C_3   0.314142 0.763024 0.366361 -0.678890
H25   H     H_    0.362945 0.731249 0.349238 0.203192
H26   H     H_    0.330932 0.839593 0.328475 0.240661
H27   H     H_    0.233123 0.714333 0.348274 0.216525
N4    N     N_2   0.664189 0.235156 0.431969 -0.434658
H28   H     H_    0.666792 0.301065 0.445313 0.266494
C52   C     C_3   0.687215 0.241136 0.346358 -0.614718
H29   H     H_    0.643430 0.279075 0.296568 0.223485
H30   H     H_    0.665108 0.164461 0.331181 0.229146
H31   H     H_    0.769625 0.284970 0.342901 0.214570
N5    N     N_2   0.514187 0.657354 0.260105 -0.464777
H32   H     H_    0.467404 0.695977 0.249925 0.228219
C53   C     C_3   0.501459 0.604692 0.189168 -0.639826
H33   H     H_    0.503445 0.656445 0.126450 0.226497
H34   H     H_    0.427235 0.539398 0.186183 0.227232
H35   H     H_    0.564060 0.578222 0.197605 0.245331
C54   C     C_2   0.724226 0.759801 0.292718 0.379072
H36   H     H_    0.675936 0.799022 0.292025 0.105253
O9    O     O_2   0.790698 0.797947 0.245609 -0.556092
N6    N     N_2   0.863991 0.578717 0.879376 -0.429043
H37   H     H_    0.904995 0.651254 0.892266 0.246799
C55   C     C_3   0.815249 0.568650 0.790251 -0.650323
H38   H     H_    0.762530 0.608355 0.772552 0.228122
H39   H     H_    0.770449 0.488573 0.782086 0.226795
H40   H     H_    0.873142 0.603827 0.745118 0.227842
C56   C     C_2   0.333832 0.520812 0.329429 0.321164
H41   H     H_    0.318611 0.579087 0.281325 0.061896
O10   O     O_2   0.267341 0.436145 0.335112 -0.533146
C57   C     C_2   0.282489 0.263575 0.733541 0.315280
H42   H     H_    0.209448 0.208073 0.750463 0.065042
O11   O     O_2   0.358963 0.268770 0.785487 -0.544202
N7    N     N_2   0.185717 0.631372 0.920031 -0.402967
H43   H     H_    0.193609 0.672100 0.858270 0.239902
C58   C     C_3   0.238545 0.563810 0.941741 -0.593884
H44   H     H_    0.211576 0.512364 0.892372 0.203959
H45   H     H_    0.229487 0.520466 0.008039 0.245836
H46   H     H_    0.321092 0.608635 0.940156 0.218189
N8    N     N_2   0.190376 0.616475 0.095724 -0.400269
H47   H     H_    0.192773 0.569679 0.154150 0.259218
C59   C     C_3   0.260813 0.719381 0.100855 -0.684468
H48   H     H_    0.338498 0.721317 0.126162 0.224760
H49   H     H_    0.238218 0.751520 0.145823 0.211102
H50   H     H_    0.262509 0.765921 0.035355 0.253620

loop_
_geom_bond_atom_site_label_1
_geom_bond_atom_site_label_2
_ccdc_geom_bond_type
C10   C27   A    
C23   O5    A    
C41   C43   A    
C41   C42   A    
C3    C48   S    
C36   C42   A    
C19   C20   A    
C38   N5    S    
C3    C6    S    
C54   O9    D    
C7    C8    T    
C25   C28   A    
C26   C27   A    
C29   C30   A    
C23   O6    A    
C4    N8    S    
C5    N7    S    
Cu2   O8    S    
C24   C26   A    
C46   H14   S    
C2    H3    S    
C55   H39   S    
N3    C51   S    
C37   C56   S    
C15   C16   A    
C29   C33   A    
C45   H10   S    
C57   H42   S    
C18   C19   A    
C42   C46   A    
C9    C13   A    
Cu1   O3    S    
N4    H28   S    
C21   H12   S    
C31   H18   S    
C31   C32   A    
C19   H11   S    
C58   H46   S    
N6    H37   S    
Cu2   O2    S    
C8    C12   S    
C21   C22   A    
C4    H4    S    
C1    O1    A    
N6    C55   S    
C52   H29   S    
C18   C25   A    
C34   O7    A    
C53   H34   S    
C54   H36   S    
C47   C50   S    
N7    C58   S    
C2    C45   S    
C58   H45   S    
Cu1   Cu2   S    
C32   C35   A    
C48   H22   S    
C1    C9    S    
C24   C25   A    
C55   H40   S    
C22   H7    S    
C9    C14   A    
N3    H24   S    
C52   H31   S    
C27   H6    S    
C53   H35   S    
C17   C21   A    
C29   C54   S    
C34   O8    A    
C5    H23   S    
Cu2   O6    S    
C35   C39   A    
C43   C44   A    
C59   H49   S    
C37   C38   A    
C43   C57   S    
C30   N1    A    
C11   C16   A    
C47   C48   S    
C51   H27   S    
C16   C20   A    
N4    C52   S    
C17   C18   A    
C52   H30   S    
Cu1   O5    S    
C14   N4    S    
C58   H44   S    
C40   C41   A    
C51   H26   S    
C45   H2    S    
N5    C53   S    
C28   N3    S    
N8    H47   S    
C1    O2    A    
C22   C24   A    
C5    C50   S    
C3    C4    S    
C39   C40   A    
C30   H17   S    
C56   H41   S    
C10   C28   A    
C15   C17   A    
C36   C37   A    
C34   C49   S    
C26   H13   S    
C48   H21   S    
C7    C50   S    
C4    C5    S    
Cu2   N1    S    
C2    H1    S    
C46   N2    A    
N7    H43   S    
C59   H48   S    
C10   C23   S    
C44   N2    A    
C47   N6    S    
C33   C38   A    
C32   C33   A    
C2    C3    S    
C59   H50   S    
C55   H38   S    
C11   C13   A    
C31   N1    A    
Cu1   N2    S    
C45   C50   S    
C12   O3    A    
C53   H33   S    
C57   O11   D    
C12   O4    A    
C6    C49   T    
Cu2   O4    S    
C47   H20   S    
Cu1   O1    S    
C13   H9    S    
C51   H25   S    
N5    H32   S    
C40   H16   S    
N8    C59   S    
C39   H19   S    
C14   C15   A    
C44   H15   S    
C35   C36   A    
C20   H5    S    
Cu1   O7    S    
C11   H8    S    
C56   O10   D    
