data_mof_unit_1722.cif
_audit_creation_date              2012-12-11T17:09:26-0500
_audit_creation_method            fapswitch 2.2
_symmetry_space_group_name_H-M    P1
_symmetry_Int_Tables_number       1
_space_group_crystal_system       triclinic
_cell_length_a                    14.812626
_cell_length_b                    6.940966
_cell_length_c                    13.50706
_cell_angle_alpha                 89.998619
_cell_angle_beta                  99.834978
_cell_angle_gamma                 90.005185
_cell_volume                      1368.30515106

loop_
_atom_site_label
_atom_site_type_symbol
_atom_type_description
_atom_site_fract_x
_atom_site_fract_y
_atom_site_fract_z
_atom_type_partial_charge
O1    O     O_R   0.586930 0.505770 0.416350 -0.521709
O2    O     O_R   0.413070 0.005770 0.583650 -0.542418
O3    O     O_R   0.397900 0.173100 0.389630 -0.540723
O4    O     O_R   0.602100 0.673100 0.610370 -0.537976
C1    C     C_R   0.364291 0.345404 0.362879 0.716776
C2    C     C_R   0.635714 0.845409 0.637112 0.720809
O5    O     O_R   0.585280 0.175870 0.404330 -0.547434
O6    O     O_R   0.414720 0.675870 0.595670 -0.524926
O7    O     O_R   0.601790 0.008380 0.598460 -0.536796
O8    O     O_R   0.398210 0.508380 0.401540 -0.537113
C3    C     C_R   0.614519 0.344861 0.382648 0.705723
C4    C     C_R   0.385306 0.844727 0.617153 0.705669
O9    O     O_3   0.505200 0.340120 0.563670 -0.353882
O10   O     O_3   0.494800 0.840120 0.436330 -0.355689
V1    V     V_3+5 0.499040 0.064180 0.488190 1.497410
V2    V     V_3+5 0.500960 0.564180 0.511810 1.531317
C5    C     C_R   0.317040 0.007987 0.753769 0.100835
C6    C     C_R   0.744781 0.511126 0.320011 -0.017566
C7    C     C_R   0.319111 0.852679 0.687982 -0.163267
C8    C     C_R   0.685432 0.353425 0.317330 -0.054740
C9    C     C_R   0.256877 0.701068 0.693234 -0.105140
C10   C     C_R   0.696763 0.201879 0.251517 -0.166158
H1    H     H_    0.255663 0.578658 0.643677 0.119423
H2    H     H_    0.650847 0.080578 0.245005 0.204448
C11   C     C_R   0.190989 0.712617 0.757031 -0.187771
C12   C     C_R   0.762645 0.212426 0.187893 -0.162381
H3    H     H_    0.141560 0.597629 0.755664 0.122139
H4    H     H_    0.766272 0.096903 0.135037 0.135481
C13   C     C_R   0.184818 0.876955 0.816766 -0.100701
C14   C     C_R   0.818654 0.376353 0.187309 -0.065250
C15   C     C_R   0.251347 0.020189 0.816299 0.029472
C16   C     C_R   0.809912 0.522548 0.256537 -0.005954
C17   C     C_3   0.239190 0.231263 0.799039 -0.464455
C18   C     C_3   0.791498 0.731171 0.236567 -0.438037
C19   C     C_3   0.310986 0.217925 0.731339 0.516021
C20   C     C_3   0.720299 0.718185 0.304729 0.512490
H5    H     H_    0.261639 0.316171 0.868685 0.212977
H6    H     H_    0.761994 0.759385 0.156544 0.198959
H7    H     H_    0.169741 0.266361 0.757571 0.116499
H8    H     H_    0.851267 0.822313 0.267953 0.121957
H9    H     H_    0.285313 0.249738 0.650822 0.002970
H10   H     H_    0.736028 0.805607 0.374494 0.011106
C21   C     C_1   0.783491 0.877119 0.782848 -0.180972
C22   C     C_1   0.216514 0.377127 0.217144 -0.182040
C23   C     C_1   0.716202 0.860116 0.716777 -0.170469
C24   C     C_1   0.283803 0.360109 0.283212 -0.171476
O11   O     O_R   0.101720 0.231700 0.098560 -0.534721
O12   O     O_R   0.898280 0.731700 0.901440 -0.535985
O13   O     O_R   0.914700 0.558980 0.095690 -0.538953
O14   O     O_R   0.085300 0.058980 0.904310 -0.540624
C25   C     C_R   0.885146 0.389780 0.116986 0.697597
C26   C     C_R   0.114481 0.889759 0.882590 0.710198
O15   O     O_R   0.102080 0.561590 0.110390 -0.536236
O16   O     O_R   0.897920 0.061590 0.889610 -0.537803
O17   O     O_R   0.086950 0.728940 0.916330 -0.540185
O18   O     O_R   0.913050 0.228940 0.083670 -0.544201
C27   C     C_R   0.136046 0.391925 0.137455 0.736774
C28   C     C_R   0.863954 0.891919 0.862543 0.728509
O19   O     O_3   0.994770 0.394510 0.936380 -0.371077
O20   O     O_3   0.005230 0.894510 0.063620 -0.369919
V3    V     V_3+5 0.000970 0.670520 0.011800 1.426549
V4    V     V_3+5 0.999030 0.170520 0.988200 1.421374
F1    F     F_    0.391369 0.312342 0.770957 -0.648084
F2    F     F_    0.631778 0.739563 0.252687 -0.670652

loop_
_geom_bond_atom_site_label_1
_geom_bond_atom_site_label_2
_ccdc_geom_bond_type
O4    V2    S    
O5    C3    A    
C14   C25   S    
C15   C17   S    
O9    V2    S    
O12   C28   A    
C7    C9    A    
C2    C23   S    
O11   C27   A    
O16   V4    S    
C1    C24   S    
C20   H10   S    
O1    C3    A    
C26   O17   A    
C22   C27   S    
O6    C4    A    
O2    C4    A    
C2    O7    A    
O5    V1    S    
O7    V1    S    
O3    V1    S    
C1    O8    A    
C13   C15   A    
O1    V2    S    
O8    V2    S    
C14   C16   A    
O2    V1    S    
C21   C23   T    
O12   V3    S    
C17   H7    S    
C6    C20   S    
O11   V4    S    
C19   H9    S    
O17   V3    S    
C4    C7    S    
O20   V4    S    
C12   H4    S    
C17   C19   S    
C18   C20   S    
C8    C10   A    
C12   C14   A    
O18   V4    S    
O9    V1    S    
C9    H1    S    
C11   C13   A    
C11   H3    S    
C5    C15   A    
O10   V2    S    
C3    C8    S    
O19   V3    S    
O14   V4    S    
C6    C16   A    
C20   F2    S    
O13   V3    S    
C6    C8    A    
O4    C2    A    
C25   O18   A    
C10   C12   A    
C10   H2    S    
O16   C28   A    
O14   C26   A    
O15   C27   A    
O10   V1    S    
C18   H8    S    
O19   V4    S    
C9    C11   A    
O6    V2    S    
C5    C19   S    
C21   C28   S    
C5    C7    A    
C18   H6    S    
O15   V3    S    
C19   F1    S    
C17   H5    S    
O13   C25   A    
C22   C24   T    
O20   V3    S    
O3    C1    A    
C13   C26   S    
C16   C18   S    
