data_mof_unit_4689.cif
_audit_creation_date              2012-12-11T15:53:34-0500
_audit_creation_method            fapswitch 2.2
_symmetry_space_group_name_H-M    P1
_symmetry_Int_Tables_number       1
_space_group_crystal_system       triclinic
_cell_length_a                    6.924268
_cell_length_b                    14.552644
_cell_length_c                    15.971331
_cell_angle_alpha                 90.484725
_cell_angle_beta                  90.315767
_cell_angle_gamma                 89.932721
_cell_volume                      1609.29058641

loop_
_atom_site_label
_atom_site_type_symbol
_atom_type_description
_atom_site_fract_x
_atom_site_fract_y
_atom_site_fract_z
_atom_type_partial_charge
O1    O     O_R   0.361600 0.167310 0.164620 -0.513336
O2    O     O_R   0.638400 0.832690 0.835380 -0.513337
O3    O     O_R   0.691080 0.157570 0.338750 -0.518365
O4    O     O_R   0.308920 0.842430 0.661250 -0.518365
O5    O     O_R   0.861410 0.336420 0.339360 -0.546590
O6    O     O_R   0.138590 0.663580 0.660640 -0.546590
C1    C     C_R   0.522803 0.133740 0.366231 0.744341
C2    C     C_R   0.477197 0.866260 0.633769 0.744341
O7    O     O_R   0.691320 0.156280 0.165240 -0.530114
O8    O     O_R   0.308680 0.843720 0.834760 -0.530114
O9    O     O_R   0.861640 0.335130 0.164600 -0.545135
O10   O     O_R   0.138360 0.664870 0.835400 -0.545135
C3    C     C_R   0.521628 0.135628 0.134695 0.769083
C4    C     C_R   0.478372 0.864371 0.865304 0.769083
O11   O     O_R   0.361370 0.168600 0.339370 -0.539918
O12   O     O_R   0.638630 0.831400 0.660630 -0.539918
O13   O     O_3   0.527990 0.310540 0.251980 -0.391397
O14   O     O_3   0.472010 0.689460 0.748020 -0.391397
V1    V     V_3+5 0.802830 0.240980 0.251990 1.533209
V2    V     V_3+5 0.197170 0.759020 0.748010 1.533209
O15   O     O_R   0.191360 0.346160 0.165220 -0.542971
O16   O     O_R   0.808640 0.653840 0.834780 -0.542971
C5    C     C_R   0.022008 0.368276 0.136073 0.724877
C6    C     C_R   0.977992 0.631724 0.863927 0.724878
O17   O     O_R   0.191130 0.347440 0.338740 -0.551302
O18   O     O_R   0.808870 0.652560 0.661260 -0.551302
C7    C     C_R   0.022251 0.369665 0.367681 0.662494
C8    C     C_R   0.977749 0.630335 0.632319 0.662494
V3    V     V_3+5 0.302840 0.262750 0.251990 1.486855
V4    V     V_3+5 0.697160 0.737250 0.748010 1.486855
O19   O     O_3   0.027820 0.193180 0.251990 -0.333560
O20   O     O_3   0.972180 0.806820 0.748010 -0.333560
C9    C     C_3   0.821432 0.472538 0.478616 -0.117241
C10   C     C_3   0.178568 0.527462 0.521384 -0.117241
C11   C     C_3   0.914887 0.461258 0.566302 -0.136112
C12   C     C_3   0.085113 0.538742 0.433698 -0.136112
H1    H     H_    0.844407 0.429689 0.621275 0.115621
H2    H     H_    0.155593 0.570311 0.378725 0.115621
H3    H     H_    0.673648 0.449819 0.460829 0.111933
H4    H     H_    0.326352 0.550181 0.539171 0.111933
C13   C     C_3   0.989117 0.560727 0.562076 -0.011219
C14   C     C_3   0.010883 0.439273 0.437924 -0.011219
C15   C     C_3   0.895794 0.572796 0.475159 -0.134916
C16   C     C_3   0.104206 0.427204 0.524841 -0.134915
H5    H     H_    0.809423 0.633130 0.455120 0.115479
H6    H     H_    0.190577 0.366870 0.544880 0.115479
C17   C     C_R   0.820506 0.525676 0.967206 -0.126641
C18   C     C_R   0.179494 0.474324 0.032794 -0.126642
H7    H     H_    0.679609 0.544443 0.943056 0.116277
H8    H     H_    0.320390 0.455557 0.056944 0.116277
C19   C     C_R   0.831195 0.462601 0.032886 -0.132303
C20   C     C_R   0.168804 0.537399 0.967114 -0.132303
H9    H     H_    0.698138 0.434580 0.057110 0.117364
H10   H     H_    0.301862 0.565420 0.942890 0.117364
C21   C     C_R   0.010839 0.436045 0.066673 -0.041155
C22   C     C_R   0.989161 0.563955 0.933327 -0.041155
C23   C     C_R   0.659720 0.997228 0.446024 0.289755
C24   C     C_R   0.340280 0.002772 0.553975 0.289755
C25   C     C_R   0.644586 0.934580 0.511637 -0.174064
C26   C     C_R   0.355413 0.065420 0.488363 -0.174064
H11   H     H_    0.756855 0.883300 0.519024 0.169256
H12   H     H_    0.243145 0.116699 0.480976 0.169256
C27   C     C_R   0.486001 0.935747 0.566147 -0.153276
C28   C     C_R   0.513998 0.064253 0.433853 -0.153276
C29   C     C_R   0.657577 0.002875 0.054772 -0.158102
C30   C     C_R   0.342423 0.997125 0.945228 -0.158102
H13   H     H_    0.779580 0.003214 0.097549 0.191645
H14   H     H_    0.220420 0.996786 0.902451 0.191645
C31   C     C_R   0.650469 0.935841 0.991453 0.278533
C32   C     C_R   0.349531 0.064159 0.008546 0.278533
C33   C     C_R   0.491446 0.932596 0.935111 -0.157102
C34   C     C_R   0.508554 0.067404 0.064889 -0.157103
Br1   Br    Br    0.878474 0.982477 0.373414 -0.529454
Br2   Br    Br    0.121526 0.017523 0.626586 -0.529454
Br3   Br    Br    0.859170 0.848457 0.990098 -0.542447
Br4   Br    Br    0.140830 0.151542 0.009902 -0.542447

loop_
_geom_bond_atom_site_label_1
_geom_bond_atom_site_label_2
_ccdc_geom_bond_type
C18   C21   A    
C30   H14   S    
O13   V3    S    
C4    C33   S    
C12   C14   S    
O4    C2    A    
V1    O19   S    
C17   H7    S    
O9    V1    S    
C9    H3    S    
C10   H4    S    
C9    C14   S    
C11   H1    S    
O3    C1    A    
C23   C25   A    
O12   V4    S    
C8    C13   S    
C26   H12   S    
C23   Br1   S    
O9    C5    A    
C31   C33   A    
O7    C3    A    
C9    C11   S    
O5    C7    A    
O7    V1    S    
O6    C8    A    
O8    V2    S    
C29   H13   S    
O3    V1    S    
O14   V4    S    
C10   C12   S    
C20   H10   S    
C18   H8    S    
C2    O12   A    
C13   C15   S    
C10   C13   S    
C14   C16   S    
O2    C4    A    
C16   H6    S    
O11   V3    S    
O17   V3    S    
C25   H11   S    
C9    C15   S    
C10   C16   S    
O8    C4    A    
C17   C19   A    
C19   C21   A    
O15   V3    S    
C19   H9    S    
C30   C33   A    
O10   V2    S    
O1    V3    S    
C11   C16   S    
C15   H5    S    
O18   V4    S    
O15   C5    A    
C32   Br4   S    
O16   C6    A    
C6    C22   S    
C24   Br2   S    
C23   C28   A    
V2    O20   S    
C24   C27   A    
O16   V4    S    
C25   C27   A    
C5    C21   S    
O5    V1    S    
C3    C34   S    
O17   C7    A    
C29   C34   A    
O6    V2    S    
O10   C6    A    
O18   C8    A    
O2    V4    S    
C26   C28   A    
C12   H2    S    
V3    O19   S    
V4    O20   S    
C7    C14   S    
C30   C32   A    
C29   C31   A    
C1    O11   A    
O13   V1    S    
C31   Br3   S    
O14   V2    S    
C11   C13   S    
C1    C28   S    
C2    C27   S    
O4    V2    S    
C18   C20   A    
O1    C3    A    
C12   C15   S    
C32   C34   A    
C24   C26   A    
C20   C22   A    
C17   C22   A    
