data_mof_unit_1460.cif
_audit_creation_date              2012-12-10T17:48:53-0500
_audit_creation_method            fapswitch 2.2
_symmetry_space_group_name_H-M    P1
_symmetry_Int_Tables_number       1
_space_group_crystal_system       triclinic
_cell_length_a                    10.748366
_cell_length_b                    14.706475
_cell_length_c                    14.689986
_cell_angle_alpha                 64.672204
_cell_angle_beta                  103.772771
_cell_angle_gamma                 103.26499
_cell_volume                      2016.84931454

loop_
_atom_site_label
_atom_site_type_symbol
_atom_type_description
_atom_site_fract_x
_atom_site_fract_y
_atom_site_fract_z
_atom_type_partial_charge
C1    C     C_R   0.481790 0.119952 0.311956 0.846394
C2    C     C_3   0.877391 0.005095 0.493103 -0.050736
C3    C     C_3   0.925756 0.910442 0.585282 -0.459046
C4    C     C_3   0.962947 0.101738 0.506838 0.077546
C5    C     C_R   0.487038 0.187688 0.204355 -0.051493
C6    C     C_R   0.548649 0.811495 0.796525 -0.080440
C7    C     C_R   0.467499 0.216365 0.026830 -0.165043
C8    C     C_R   0.457008 0.150122 0.127498 -0.115140
C9    C     C_R   0.529977 0.291403 0.179662 -0.181935
C10   C     C_R   0.541500 0.359685 0.079011 0.098305
C11   C     C_R   0.507224 0.320916 0.001845 0.135719
C12   C     C_R   0.260201 0.000204 0.500491 0.798666
C13   C     C_R   0.578602 0.466057 0.052618 0.058800
C14   C     C_R   0.564639 0.533498 0.948590 0.080081
C15   C     C_R   0.537988 0.491579 0.873861 -0.202605
C16   C     C_R   0.511261 0.387134 0.900529 -0.194487
C17   C     C_R   0.632250 0.506699 0.126968 -0.198448
C18   C     C_R   0.651398 0.611000 0.102750 -0.010175
C19   C     C_R   0.607189 0.677821 0.002118 0.017228
C20   C     C_R   0.574681 0.639792 0.923405 0.075265
C21   C     C_R   0.594158 0.780910 0.976595 -0.003080
C22   C     C_R   0.571067 0.847176 0.873799 -0.179523
C23   C     C_R   0.524158 0.879908 0.688158 0.823439
C24   C     C_R   0.546820 0.708488 0.821909 -0.231600
C25   C     C_R   0.730100 0.297497 0.652648 -0.293361
C26   C     C_R   0.691298 0.210524 0.632360 0.474616
C27   C     C_R   0.513725 0.282960 0.511093 0.035425
C28   C     C_R   0.553121 0.376515 0.524418 0.018179
C29   C     C_R   0.661643 0.379757 0.600097 0.104056
C30   C     C_R   0.485407 0.463796 0.471416 0.032372
C31   C     C_R   0.520220 0.546118 0.505073 0.063302
C32   C     C_R   0.628534 0.543353 0.582263 -0.210899
C33   C     C_R   0.698930 0.463142 0.626723 -0.161017
C34   C     C_R   0.739435 0.002374 0.496217 0.834113
C35   C     C_R   0.384462 0.472400 0.387091 0.173775
C36   C     C_R   0.300440 0.544606 0.355587 -0.030227
C37   C     C_R   0.341643 0.631481 0.379829 -0.011526
C38   C     C_R   0.449510 0.630830 0.457986 -0.039997
C39   C     C_R   0.280818 0.720863 0.326172 -0.095927
C40   C     C_R   0.316856 0.799585 0.360763 0.028935
C41   C     C_R   0.481724 0.715486 0.486642 0.037418
C42   C     C_3   0.044263 0.010124 0.393180 -0.471655
C43   C     C_3   0.897133 0.998170 0.393835 -0.145202
C44   C     C_3   0.066211 0.904381 0.582696 -0.351376
C45   C     C_3   0.107329 0.097500 0.516163 0.075559
C46   C     C_3   0.122718 0.002774 0.499132 0.018725
Cu1   Cu    Cu3+1 0.465900 0.918260 0.475680 0.964500
Cu2   Cu    Cu3+1 0.534100 0.081740 0.524320 1.032540
H1    H     H_    0.061761 0.949498 0.373366 0.193484
H2    H     H_    0.947196 0.102160 0.578568 0.216670
H3    H     H_    0.126001 0.892430 0.658846 0.204380
H4    H     H_    0.921069 0.914821 0.658195 0.210725
H5    H     H_    0.489137 0.358316 0.840897 0.160934
H6    H     H_    0.521469 0.683514 0.760253 0.150241
H7    H     H_    0.563600 0.925899 0.854069 0.201748
H8    H     H_    0.442555 0.186116 0.968204 0.165933
H9    H     H_    0.425559 0.069818 0.145103 0.176303
H10   H     H_    0.550368 0.317974 0.240135 0.195036
H11   H     H_    0.080108 0.083809 0.334392 0.222189
H12   H     H_    0.537822 0.536895 0.793739 0.138211
H13   H     H_    0.667620 0.458316 0.204175 0.186898
H14   H     H_    0.781649 0.465125 0.685287 0.150451
H15   H     H_    0.559842 0.720967 0.545986 0.115146
H16   H     H_    0.271558 0.867829 0.321353 0.151771
H17   H     H_    0.812754 0.299945 0.711096 0.180339
H18   H     H_    0.423453 0.269090 0.465221 0.181838
H19   H     H_    0.663615 0.602570 0.610418 0.122715
H20   H     H_    0.856075 0.919543 0.399012 0.151107
H21   H     H_    0.067345 0.837354 0.566326 0.186860
H22   H     H_    0.862771 0.839222 0.584119 0.180254
H23   H     H_    0.150790 0.167466 0.457098 0.181826
N1    N     N_R   0.585360 0.204570 0.560800 -0.205856
N2    N     N_R   0.414550 0.795430 0.439160 -0.189553
O1    O     O_R   0.455060 0.022100 0.338110 -0.573724
O2    O     O_R   0.512640 0.160150 0.379180 -0.575332
O3    O     O_R   0.288900 0.930980 0.479450 -0.594947
O4    O     O_R   0.346480 0.069030 0.520520 -0.561612
O5    O     O_R   0.487360 0.839850 0.620820 -0.601526
O6    O     O_R   0.544940 0.977900 0.661890 -0.538619
O7    O     O_R   0.653520 0.930970 0.479480 -0.579912
O8    O     O_R   0.711100 0.069020 0.520550 -0.539174
C47   C     C_2   0.729529 0.646256 0.182774 0.880153
O9    O     O_2   0.810271 0.722590 0.160036 -0.543746
O10   O     O_R   0.714042 0.589741 0.284885 -0.731430
H24   H     H_    0.773203 0.620786 0.332391 0.346679
C48   C     C_2   0.584781 0.818823 0.053302 0.885905
O11   O     O_2   0.630935 0.906121 0.043149 -0.550367
O12   O     O_R   0.518222 0.756061 0.134823 -0.718552
H25   H     H_    0.517424 0.790639 0.181356 0.344950
C49   C     C_2   0.162022 0.519024 0.314256 0.930373
O13   O     O_2   0.132428 0.477377 0.254189 -0.489514
O14   O     O_R   0.064536 0.541140 0.346727 -0.756606
H26   H     H_    0.974498 0.520243 0.314194 0.356816
Br1   Br    Br    0.787909 0.100255 0.714455 -0.470681
C50   C     C_2   0.825721 0.067713 0.294713 0.899747
O15   O     O_2   0.709346 0.044870 0.271993 -0.599141
O16   O     O_R   0.891430 0.155073 0.227290 -0.708390
H27   H     H_    0.831542 0.193780 0.164305 0.351719
Br2   Br    Br    0.385873 0.416883 0.289549 -0.467099
C51   C     C_2   0.194518 0.742347 0.226131 0.857212
O17   O     O_2   0.103912 0.789004 0.205114 -0.538536
O18   O     O_R   0.220336 0.713464 0.154069 -0.715571
H28   H     H_    0.155549 0.733276 0.088674 0.354949
Br3   Br    Br    0.199037 0.099405 0.648524 -0.502410
Br4   Br    Br    0.915807 0.231868 0.401993 -0.451283

loop_
_geom_bond_atom_site_label_1
_geom_bond_atom_site_label_2
_ccdc_geom_bond_type
C26   Br1   S    
C45   H23   S    
C26   N1    A    
C15   H12   S    
C50   O15   D    
O16   H27   S    
C49   O13   D    
C7    C8    A    
C45   C46   S    
Cu2   O8    S    
C7    C11   A    
C30   C35   A    
C1    C5    S    
C1    O1    A    
C7    H8    S    
Cu2   O6    S    
C36   C37   A    
C19   C21   A    
Cu1   O3    S    
C18   C19   A    
C30   C31   A    
C48   O12   S    
C24   H6    S    
C15   C16   A    
C6    C22   A    
C29   C33   A    
C40   N2    A    
C9    H10   S    
C42   C46   S    
C16   H5    S    
O14   H26   S    
C34   O7    A    
C20   C24   A    
C43   H20   S    
C43   C50   S    
C34   O8    A    
C9    C10   A    
C17   H13   S    
C2    C34   S    
C21   C22   A    
Cu2   O2    S    
Cu1   O7    S    
Cu2   N1    S    
C35   Br2   S    
C44   C46   S    
C4    C45   S    
C25   C29   A    
C3    C44   S    
C1    O2    A    
C14   C20   A    
C3    H22   S    
C25   H17   S    
O10   H24   S    
Cu1   N2    S    
C38   C41   A    
C12   C46   S    
C39   C40   A    
C48   O11   D    
C33   H14   S    
C25   C26   A    
C4    H2    S    
C35   C36   A    
Cu2   O4    S    
C2    C4    S    
C5    C9    A    
C37   C38   A    
C45   Br3   S    
C8    H9    S    
C11   C16   A    
C49   O14   S    
Cu1   Cu2   S    
C2    C43   S    
C6    C24   A    
C12   O4    A    
C51   O18   S    
C17   C18   A    
C44   H21   S    
C32   H19   S    
C44   H3    S    
C47   O10   S    
C12   O3    A    
C42   C43   S    
C41   H15   S    
C36   C49   S    
C21   C48   S    
C28   C29   A    
C31   C32   A    
Cu1   O1    S    
C10   C13   A    
C42   H11   S    
C5    C8    A    
C3    H4    S    
C50   O16   S    
C22   H7    S    
C4    Br4   S    
C40   H16   S    
C31   C38   A    
C13   C17   A    
C32   C33   A    
C19   C20   A    
C28   C30   A    
C2    C3    S    
C37   C39   A    
C27   H18   S    
C39   C51   S    
C6    C23   S    
C51   O17   D    
C18   C47   S    
C23   O5    A    
O18   H28   S    
C10   C11   A    
C42   H1    S    
C41   N2    A    
O12   H25   S    
C47   O9    D    
C27   C28   A    
C14   C15   A    
Cu1   O5    S    
C23   O6    A    
C13   C14   A    
C27   N1    A    
