data_mof_unit_2620.cif
_audit_creation_date              2012-12-10T17:45:35-0500
_audit_creation_method            fapswitch 2.2
_symmetry_space_group_name_H-M    P1
_symmetry_Int_Tables_number       1
_space_group_crystal_system       triclinic
_cell_length_a                    11.534173
_cell_length_b                    10.696897
_cell_length_c                    9.947942
_cell_angle_alpha                 89.981641
_cell_angle_beta                  90.219193
_cell_angle_gamma                 94.012098
_cell_volume                      1224.35880459

loop_
_atom_site_label
_atom_site_type_symbol
_atom_type_description
_atom_site_fract_x
_atom_site_fract_y
_atom_site_fract_z
_atom_type_partial_charge
C1    C     C_R   0.508828 0.260687 0.500887 0.869663
C2    C     C_R   0.475683 0.871180 0.502889 -0.101878
C3    C     C_R   0.334341 0.327819 0.128455 0.310111
C4    C     C_R   0.282157 0.500476 0.499837 0.877134
C5    C     C_R   0.255387 0.251803 0.047688 0.258228
C6    C     C_R   0.258798 0.260891 0.910001 0.431842
C7    C     C_R   0.343790 0.339991 0.851133 -0.323519
C8    C     C_R   0.422702 0.418837 0.925130 0.034524
C9    C     C_R   0.420915 0.416369 0.069394 -0.005524
C10   C     C_R   0.574610 0.579538 0.073861 0.540316
C11   C     C_R   0.574158 0.577737 0.928708 -0.190997
C12   C     C_R   0.538265 0.050209 0.874052 0.329328
C13   C     C_R   0.489912 0.738804 0.500478 0.859839
C14   C     C_R   0.717920 0.500677 0.500186 0.890542
C15   C     C_1   0.161652 0.500493 0.499537 -0.189579
C16   C     C_1   0.059415 0.500342 0.499727 0.018220
C17   C     C_1   0.940684 0.500313 0.500186 0.005365
C18   C     C_1   0.838446 0.500453 0.500442 -0.181717
C19   C     C_R   0.560214 0.112749 0.750104 -0.399453
C20   C     C_3   0.216921 0.113313 0.742273 0.101220
C21   C     C_3   0.185778 0.147826 0.598718 -0.826408
C22   C     C_3   0.670700 0.185706 0.993931 0.097340
C23   C     C_R   0.467050 0.938219 0.872370 0.391019
C24   C     C_3   0.716356 0.212301 0.135405 -0.807643
C25   C     C_3   0.336991 0.923065 0.045101 0.168006
C26   C     C_3   0.268813 0.818478 0.120789 -0.789223
C27   C     C_3   0.713952 0.752249 0.079633 0.067916
C28   C     C_3   0.779610 0.839670 0.178574 -0.762990
C29   C     C_R   0.430891 0.882911 0.750134 0.301155
C30   C     C_R   0.472192 0.936626 0.626626 -0.104196
C31   C     C_R   0.517729 0.060529 0.627286 0.014326
C32   C     C_R   0.516990 0.127144 0.503856 -0.055110
C33   C     C_R   0.503440 0.063432 0.381790 -0.207524
C34   C     C_R   0.489665 0.935655 0.381394 -0.222045
H1    H     H_    0.504708 0.111700 0.286131 0.211328
H2    H     H_    0.090155 0.151043 0.588134 0.264178
H3    H     H_    0.645567 0.276217 0.951587 0.146739
H4    H     H_    0.742008 0.148312 0.933991 0.158741
H5    H     H_    0.734337 0.123532 0.186745 0.255929
H6    H     H_    0.797927 0.273753 0.130832 0.225987
H7    H     H_    0.651488 0.261058 0.194027 0.261222
H8    H     H_    0.277500 0.958836 0.967663 0.142833
H9    H     H_    0.362503 0.000268 0.116103 0.158607
H10   H     H_    0.323945 0.777713 0.198722 0.252102
H11   H     H_    0.192273 0.855948 0.170051 0.207600
H12   H     H_    0.344538 0.336919 0.745605 0.248847
H13   H     H_    0.238232 0.743174 0.049579 0.272424
H14   H     H_    0.307555 0.776676 0.667270 0.319496
H15   H     H_    0.655363 0.809078 0.019597 0.186641
H16   H     H_    0.778883 0.710713 0.013782 0.132682
H17   H     H_    0.839982 0.786565 0.240096 0.250319
H18   H     H_    0.830578 0.914802 0.122987 0.214228
H19   H     H_    0.717512 0.883214 0.246187 0.257583
H20   H     H_    0.241164 0.301972 0.287876 0.330302
H21   H     H_    0.205930 0.129371 0.184342 0.326014
H22   H     H_    0.633659 0.638838 0.871230 0.126793
H23   H     H_    0.613124 0.199748 0.748007 0.192444
H24   H     H_    0.491909 0.887787 0.285761 0.214072
H25   H     H_    0.176217 0.018249 0.763471 0.172932
H26   H     H_    0.312322 0.106882 0.749748 0.106871
H27   H     H_    0.228266 0.240468 0.571726 0.241268
H28   H     H_    0.216237 0.076748 0.528145 0.215033
N1    N     N_R   0.498930 0.498800 0.142780 -0.118763
N2    N     N_R   0.498900 0.498720 0.857170 -0.090051
O1    O     O_R   0.500000 0.316780 0.614690 -0.657846
O2    O     O_3   0.573134 0.098268 0.999658 -0.610949
O3    O     O_3   0.438286 0.876188 0.990870 -0.588090
O4    O     O_3   0.347785 0.783556 0.755500 -0.710599
O5    O     O_3   0.650190 0.657268 0.152003 -0.577597
O6    O     O_3   0.324658 0.311705 0.263322 -0.720733
O7    O     O_3   0.173962 0.164912 0.101278 -0.753181
O8    O     O_R   0.499990 0.316750 0.385360 -0.559889
O9    O     O_R   0.334450 0.500030 0.614670 -0.608509
O10   O     O_R   0.334440 0.500000 0.385330 -0.564596
O11   O     O_R   0.500010 0.683250 0.614640 -0.575001
O12   O     O_R   0.500000 0.683220 0.385310 -0.586998
O13   O     O_R   0.665560 0.500000 0.614670 -0.627904
O14   O     O_R   0.665550 0.499970 0.385330 -0.571750
O15   O     O_3   0.171467 0.198270 0.834138 -0.557897
Zn1   Zn    Zn3+2 0.500010 0.500020 0.653130 0.964831
Zn2   Zn    Zn3+2 0.499990 0.499980 0.346870 1.024017

loop_
_geom_bond_atom_site_label_1
_geom_bond_atom_site_label_2
_ccdc_geom_bond_type
C14   C18   S    
C10   N1    A    
C25   O3    S    
C19   C31   A    
C25   H9    S    
C26   H10   S    
C7    C8    A    
C21   H2    S    
C19   H23   S    
C12   C23   A    
N1    Zn2   S    
C23   C29   A    
C30   C31   A    
C28   H17   S    
C15   C16   T    
C22   H4    S    
C24   H5    S    
C14   O13   A    
C23   O3    S    
C2    C13   S    
C22   O2    S    
C26   H11   S    
C33   H1    S    
C13   O11   A    
C8    C9    A    
C1    O1    A    
C20   H26   S    
O11   Zn1   S    
C4    O10   A    
O8    Zn2   S    
C27   O5    S    
C27   H16   S    
C2    C34   A    
O1    Zn1   S    
C24   H7    S    
N2    Zn1   S    
C33   C34   A    
C1    O8    A    
C7    H12   S    
C3    O6    S    
C11   N2    A    
C16   C17   S    
C25   C26   S    
C22   H3    S    
C12   O2    S    
C1    C32   S    
O12   Zn2   S    
C29   C30   A    
C3    C9    A    
C29   O4    S    
C31   C32   A    
H20   O6    S    
C13   O12   A    
C17   C18   T    
C21   H28   S    
H14   O4    S    
C20   H25   S    
C4    O9    A    
C26   H13   S    
C8    N2    A    
C22   C24   S    
O10   Zn2   S    
O13   Zn1   S    
C20   O15   S    
C9    N1    A    
C21   H27   S    
C3    C5    A    
C25   H8    S    
C28   H19   S    
C6    C7    A    
C2    C30   A    
C32   C33   A    
C4    C15   S    
C5    O7    S    
C28   H18   S    
O14   Zn2   S    
C6    O15   S    
C5    C6    A    
C12   C19   A    
C24   H6    S    
O9    Zn1   S    
C14   O14   A    
C10   C11   A    
C10   O5    S    
C20   C21   S    
C27   C28   S    
C34   H24   S    
H21   O7    S    
C11   H22   S    
C27   H15   S    
