data_mof_unit_1709.cif
_audit_creation_date              2012-12-10T17:38:58-0500
_audit_creation_method            fapswitch 2.2
_symmetry_space_group_name_H-M    P1
_symmetry_Int_Tables_number       1
_space_group_crystal_system       triclinic
_cell_length_a                    11.992044
_cell_length_b                    12.834017
_cell_length_c                    23.069785
_cell_angle_alpha                 90.216124
_cell_angle_beta                  86.226837
_cell_angle_gamma                 93.998932
_cell_volume                      3534.25745052

loop_
_atom_site_label
_atom_site_type_symbol
_atom_type_description
_atom_site_fract_x
_atom_site_fract_y
_atom_site_fract_z
_atom_type_partial_charge
C1    C     C_R   0.522907 0.700449 0.499860 0.935766
C2    C     C_R   0.458446 0.376176 0.310118 0.357995
C3    C     C_R   0.497896 0.536764 0.772692 -0.006920
C4    C     C_R   0.436640 0.356908 0.252209 -0.003877
C5    C     C_R   0.456525 0.435842 0.791324 0.051477
C6    C     C_R   0.456902 0.437671 0.211107 0.047968
C7    C     C_R   0.461178 0.187815 0.498965 -0.167208
C8    C     C_R   0.538512 0.812111 0.501590 -0.174352
C9    C     C_R   0.635587 0.971874 0.531942 0.364798
C10   C     C_R   0.363567 0.027880 0.469245 0.359574
C11   C     C_R   0.628967 0.862641 0.528470 0.420318
C12   C     C_R   0.477039 0.299519 0.500238 0.910073
C13   C     C_R   0.369974 0.137071 0.472776 0.449259
C14   C     C_R   0.455687 0.867066 0.479009 -0.295379
C15   C     C_R   0.544159 0.132974 0.521491 -0.287612
C16   C     C_R   0.499981 0.499434 0.610836 0.865565
C17   C     C_R   0.499691 0.499429 0.389178 0.852464
C18   C     C_R   0.454053 0.973379 0.487335 -0.029837
C19   C     C_R   0.545458 0.026536 0.513524 -0.028717
C20   C     C_R   0.953677 0.397497 0.447831 0.286795
C21   C     C_R   0.046320 0.602485 0.552154 0.286432
C22   C     C_R   0.836248 0.410478 0.451310 0.473874
C23   C     C_R   0.436775 0.355429 0.751011 0.000915
C24   C     C_R   0.163729 0.589479 0.548702 0.471094
C25   C     C_R   0.858788 0.543118 0.522604 -0.039086
C26   C     C_R   0.141230 0.456888 0.477377 -0.035134
C27   C     C_R   0.976170 0.536730 0.518989 -0.092695
C28   C     C_R   0.023839 0.463257 0.480991 -0.094837
C29   C     C_R   0.515163 0.360229 0.119875 0.573628
C30   C     C_R   0.350641 0.455457 0.882751 0.576399
C31   C     C_R   0.352757 0.458068 0.126587 0.548392
C32   C     C_R   0.512521 0.356916 0.878284 0.534803
C33   C     C_R   0.345933 0.455192 0.065971 -0.125036
C34   C     C_R   0.497485 0.538548 0.227752 -0.006605
C35   C     C_R   0.501337 0.340139 0.938491 -0.145710
C36   C     C_R   0.423393 0.397345 0.032630 -0.152297
C37   C     C_R   0.421453 0.395164 0.971713 -0.147052
C38   C     C_R   0.505969 0.345172 0.060023 -0.116051
C39   C     C_R   0.341953 0.450340 0.943813 -0.106718
C40   C     C_R   0.265064 0.508790 0.037928 0.331423
C41   C     C_R   0.572132 0.275366 0.966538 0.341307
C42   C     C_R   0.259881 0.502559 0.977173 0.436035
C43   C     C_R   0.578049 0.281311 0.027197 0.446814
C44   C     C_R   0.393961 0.249367 0.770901 0.189399
C45   C     C_R   0.458703 0.375231 0.691763 0.348310
C46   C     C_R   0.459561 0.163756 0.760742 -0.019977
C47   C     C_R   0.419790 0.064093 0.780175 -0.163402
C48   C     C_R   0.314348 0.049196 0.809697 -0.120035
C49   C     C_R   0.248530 0.133905 0.819843 -0.120576
C50   C     C_R   0.287964 0.233663 0.800474 -0.162854
C51   C     C_R   0.519599 0.622627 0.183676 0.195386
C52   C     C_R   0.603491 0.614625 0.138719 -0.162826
C53   C     C_R   0.619704 0.690934 0.095313 -0.136912
C54   C     C_R   0.552977 0.776040 0.096711 -0.098619
C55   C     C_R   0.470189 0.785150 0.141638 -0.176486
C56   C     C_R   0.515702 0.559798 0.286150 0.339657
C57   C     C_R   0.453459 0.708846 0.185055 -0.046557
C58   C     C_R   0.520156 0.620475 0.815834 0.187794
C59   C     C_R   0.456142 0.708186 0.818532 -0.017929
C60   C     C_R   0.473526 0.784653 0.860969 -0.150054
C61   C     C_R   0.554797 0.774195 0.900889 -0.101893
C62   C     C_R   0.619407 0.687601 0.898194 -0.136858
C63   C     C_R   0.602618 0.611175 0.855698 -0.157161
C64   C     C_R   0.393149 0.251180 0.234602 0.187215
C65   C     C_R   0.287126 0.236323 0.212163 -0.150265
C66   C     C_R   0.246547 0.136738 0.195386 -0.121034
C67   C     C_R   0.495759 0.477465 0.672714 -0.269716
C68   C     C_R   0.311203 0.051332 0.201079 -0.110276
C69   C     C_R   0.416650 0.065367 0.223520 -0.136697
C70   C     C_R   0.457593 0.164867 0.240304 -0.002659
C71   C     C_R   0.494935 0.478315 0.327437 -0.262411
C72   C     C_R   0.516956 0.558402 0.713188 0.346009
H1    H     H_    0.180404 0.401930 0.448229 0.238891
H2    H     H_    0.055576 0.737885 0.590128 0.347359
H3    H     H_    0.122250 0.577216 0.977854 0.377841
H4    H     H_    0.700775 0.187455 0.027250 0.379292
H5    H     H_    0.541718 0.174471 0.738250 0.163958
H6    H     H_    0.470737 0.998433 0.772400 0.157081
H7    H     H_    0.283496 0.972022 0.824617 0.140483
H8    H     H_    0.166807 0.122226 0.842618 0.157934
H9    H     H_    0.235787 0.298455 0.808261 0.176153
H10   H     H_    0.655735 0.549069 0.137111 0.168456
H11   H     H_    0.683802 0.683947 0.060503 0.145673
H12   H     H_    0.819634 0.598096 0.551743 0.234681
H13   H     H_    0.565405 0.834897 0.062984 0.139622
H14   H     H_    0.418465 0.850967 0.142556 0.135895
H15   H     H_    0.387859 0.715927 0.219131 0.158831
H16   H     H_    0.485772 0.306961 0.617219 0.323793
H17   H     H_    0.568716 0.664385 0.342291 0.332078
H18   H     H_    0.572633 0.662790 0.654237 0.351550
H19   H     H_    0.486615 0.307064 0.382093 0.343262
H20   H     H_    0.391777 0.716430 0.788387 0.156101
H21   H     H_    0.423528 0.851700 0.863174 0.130400
H22   H     H_    0.567741 0.833196 0.933883 0.136744
H23   H     H_    0.608747 0.175260 0.544626 0.199523
H24   H     H_    0.682412 0.679625 0.929091 0.145846
H25   H     H_    0.653504 0.544672 0.854001 0.174680
H26   H     H_    0.235662 0.301577 0.208076 0.182799
H27   H     H_    0.164779 0.125720 0.178141 0.156602
H28   H     H_    0.279421 0.974284 0.188230 0.136175
H29   H     H_    0.466667 0.999155 0.227895 0.151643
H30   H     H_    0.539675 0.174869 0.257361 0.157576
H31   H     H_    0.233478 0.150417 0.431767 0.398018
H32   H     H_    0.764357 0.848987 0.570323 0.396886
H33   H     H_    0.751576 0.084406 0.529290 0.344067
H34   H     H_    0.391394 0.824961 0.455579 0.201884
H35   H     H_    0.248023 0.914894 0.472159 0.345106
H36   H     H_    0.243049 0.625508 0.088115 0.361306
H37   H     H_    0.587044 0.171414 0.906481 0.363031
H38   H     H_    0.194194 0.662350 0.620364 0.330484
H39   H     H_    0.805685 0.337491 0.379689 0.329143
H40   H     H_    0.944454 0.262114 0.409832 0.346523
N1    N     N_R   0.439971 0.416556 0.151186 -0.347228
N2    N     N_R   0.438179 0.413994 0.852188 -0.345704
N3    N     N_R   0.207800 0.519350 0.510590 -0.146646
N4    N     N_R   0.792200 0.480650 0.489410 -0.144742
O1    O     O_R   0.421690 0.658830 0.502820 -0.585601
O2    O     O_2   0.275251 0.504329 0.853734 -0.495696
O3    O     O_2   0.273894 0.501919 0.161200 -0.536307
O4    O     O_2   0.600381 0.321935 0.846137 -0.539833
O5    O     O_3   0.194457 0.572752 0.068315 -0.726647
O6    O     O_3   0.634396 0.204199 0.936145 -0.738568
O7    O     O_3   0.235801 0.644916 0.583512 -0.728639
O8    O     O_3   0.764130 0.354983 0.416545 -0.735365
O9    O     O_3   0.001059 0.321179 0.413865 -0.752489
O10   O     O_3   0.998950 0.678835 0.586098 -0.752281
O11   O     O_3   0.179439 0.552047 0.949276 -0.690832
O12   O     O_R   0.578310 0.341170 0.497180 -0.595265
O13   O     O_3   0.650546 0.222739 0.055574 -0.695022
O14   O     O_3   0.438921 0.293667 0.653601 -0.752023
O15   O     O_3   0.553298 0.660421 0.300744 -0.754671
O16   O     O_3   0.555621 0.658904 0.696721 -0.744808
O17   O     O_3   0.439296 0.294141 0.348997 -0.731742
O18   O     O_3   0.289421 0.196005 0.451327 -0.710733
O19   O     O_3   0.708491 0.803440 0.550683 -0.743027
O20   O     O_3   0.729201 0.022354 0.553861 -0.767274
O21   O     O_3   0.269655 0.977245 0.447702 -0.768427
O22   O     O_R   0.609320 0.646410 0.496030 -0.579312
O23   O     O_R   0.390680 0.353590 0.503970 -0.559462
O24   O     O_R   0.406170 0.506240 0.587240 -0.542879
O25   O     O_R   0.593830 0.493760 0.412760 -0.571551
O26   O     O_R   0.593790 0.493820 0.580450 -0.628492
O27   O     O_R   0.406210 0.506180 0.419550 -0.603110
O28   O     O_2   0.600089 0.321757 0.146772 -0.499250
Zn1   Zn    Zn3+2 0.374720 0.508290 0.504530 1.043067
Zn2   Zn    Zn3+2 0.625280 0.491710 0.495470 1.016572

loop_
_geom_bond_atom_site_label_1
_geom_bond_atom_site_label_2
_ccdc_geom_bond_type
C66   H27   S    
C66   C68   A    
C34   C56   A    
C23   C45   A    
H32   O19   S    
C62   H24   S    
C5    N2    S    
C1    C8    S    
C13   O18   S    
C14   C18   A    
C16   O26   A    
H16   O14   S    
H36   O5    S    
C33   C36   A    
C53   C54   A    
C15   C19   A    
C40   O5    S    
C34   C51   S    
C48   H7    S    
C17   O25   A    
C36   C37   A    
C35   C37   A    
H31   O18   S    
C10   C18   A    
C65   H26   S    
C18   C19   A    
C15   H23   S    
H37   O6    S    
C26   H1    S    
O1    Zn1   S    
C67   C72   A    
C49   C50   A    
O26   Zn2   S    
C26   N3    A    
C46   C47   A    
C9    C19   A    
C68   C69   A    
C5    C23   A    
C29   C38   A    
C45   C67   A    
C25   H12   S    
C31   C33   A    
C51   C57   A    
C10   O21   S    
C64   C70   A    
C59   C60   A    
C61   C62   A    
H18   O16   S    
C60   H21   S    
C40   C42   A    
C21   C27   A    
C45   O14   S    
C41   C43   A    
C4    C64   S    
C16   O24   A    
C32   O4    S    
C44   C46   A    
C72   O16   S    
C39   C42   A    
C7    C12   S    
C2    O17   S    
C51   C52   A    
C33   C40   A    
C32   C35   A    
C43   O13   S    
C22   N4    A    
C4    C6    A    
C25   N4    A    
C61   H22   S    
C30   O2    S    
C58   C59   A    
C29   O28   S    
C24   O7    S    
C23   C44   S    
C6    C34   A    
C60   C61   A    
C41   O6    S    
H35   O21   S    
C2    C4    A    
C68   H28   S    
C6    N1    S    
C62   C63   A    
C11   O19   S    
H38   O7    S    
C54   H13   S    
H4    O13   S    
C47   C48   A    
H19   O17   S    
C14   H34   S    
C9    O20   S    
C56   C71   A    
C12   O23   A    
C16   C67   S    
C1    O1    A    
C52   H10   S    
C9    C11   A    
C31   O3    S    
H40   O9    S    
O25   Zn2   S    
H33   O20   S    
C42   O11   S    
C48   C49   A    
C20   C22   A    
C17   C71   S    
C55   C57   A    
C38   C43   A    
C2    C71   A    
C52   C53   A    
C30   N2    A    
C44   C50   A    
C58   C63   A    
O27   Zn1   S    
C29   N1    A    
C54   C55   A    
O23   Zn1   S    
C8    C14   A    
H39   O8    S    
C3    C5    A    
C10   C13   A    
O24   Zn1   S    
C46   H5    S    
C70   H30   S    
C22   O8    S    
C12   O12   A    
C69   H29   S    
C25   C27   A    
C20   C28   A    
N3    Zn1   S    
C26   C28   A    
H17   O15   S    
C49   H8    S    
C53   H11   S    
C17   O27   A    
C64   C65   A    
C55   H14   S    
C36   C38   A    
C3    C72   A    
C20   O9    S    
C37   C39   A    
N4    Zn2   S    
O12   Zn2   S    
H2    O10   S    
O22   Zn2   S    
C8    C11   A    
C7    C15   A    
C30   C39   A    
H3    O11   S    
C59   H20   S    
C69   C70   A    
C35   C41   A    
C56   O15   S    
C3    C58   S    
C57   H15   S    
C7    C13   A    
C24   N3    A    
C63   H25   S    
C65   C66   A    
C21   C24   A    
C27   C28   A    
C47   H6    S    
C32   N2    A    
C21   O10   S    
C31   N1    A    
C1    O22   A    
C50   H9    S    
