data_mof_unit_3272.cif
_audit_creation_date              2012-12-10T18:31:53-0500
_audit_creation_method            fapswitch 2.2
_symmetry_space_group_name_H-M    P1
_symmetry_Int_Tables_number       1
_space_group_crystal_system       triclinic
_cell_length_a                    10.636819
_cell_length_b                    14.980859
_cell_length_c                    15.455676
_cell_angle_alpha                 82.33963
_cell_angle_beta                  89.565789
_cell_angle_gamma                 104.2547
_cell_volume                      2363.61649248

loop_
_atom_site_label
_atom_site_type_symbol
_atom_type_description
_atom_site_fract_x
_atom_site_fract_y
_atom_site_fract_z
_atom_type_partial_charge
C1    C     C_R   0.484700 0.441867 0.662157 0.858979
C2    C     C_3   0.121170 0.500152 0.500023 0.154375
C3    C     C_3   0.067608 0.484811 0.408883 -0.406591
C4    C     C_3   0.103917 0.595346 0.521464 -0.354105
C5    C     C_R   0.493688 0.406974 0.754217 -0.061837
C6    C     C_R   0.552854 0.592343 0.245216 -0.065579
C7    C     C_R   0.480959 0.281865 0.872729 -0.199147
C8    C     C_R   0.468411 0.311817 0.784670 -0.204746
C9    C     C_R   0.536835 0.471448 0.811247 -0.249486
C10   C     C_R   0.554865 0.443429 0.899021 0.058844
C11   C     C_R   0.519808 0.346856 0.931602 0.095338
C12   C     C_R   0.742108 0.500661 0.500089 0.826457
C13   C     C_R   0.596982 0.510246 0.955898 0.068919
C14   C     C_R   0.577757 0.481416 0.046369 0.017542
C15   C     C_R   0.549704 0.385363 0.078274 -0.276543
C16   C     C_R   0.523169 0.317556 0.021881 0.195001
C17   C     C_R   0.655231 0.605189 0.925448 -0.216578
C18   C     C_R   0.679300 0.671189 0.982596 -0.237821
C19   C     C_R   0.640992 0.645010 0.070575 0.177286
C20   C     C_R   0.586930 0.549981 0.102290 0.111059
C21   C     C_R   0.654171 0.712329 0.127302 -0.206967
C22   C     C_R   0.612161 0.685830 0.214896 -0.190892
C23   C     C_R   0.520830 0.558149 0.337735 0.867055
C24   C     C_R   0.536231 0.526506 0.187903 -0.267356
C25   C     C_R   0.680726 0.839264 0.644301 -0.317667
C26   C     C_R   0.654322 0.751521 0.618872 0.009512
C27   C     C_R   0.515632 0.794126 0.509930 -0.021064
C28   C     C_R   0.531497 0.882660 0.536153 0.018383
C29   C     C_R   0.620391 0.905419 0.602669 0.177693
C30   C     C_R   0.466461 0.949728 0.497374 -0.062376
C31   C     C_R   0.504619 0.042381 0.518657 0.013452
C32   C     C_R   0.595426 0.062008 0.584225 -0.200844
C33   C     C_R   0.649828 0.994151 0.626476 -0.206763
C34   C     C_R   0.257854 0.499696 0.499954 0.832489
C35   C     C_R   0.362713 0.927699 0.440176 0.560476
C36   C     C_R   0.310537 0.996599 0.397196 -0.274105
C37   C     C_R   0.353588 0.088209 0.412471 0.079370
C38   C     C_R   0.448962 0.112106 0.474687 -0.005346
C39   C     C_R   0.298379 0.155862 0.368052 -0.291623
C40   C     C_R   0.336257 0.246323 0.386753 0.009611
C41   C     C_R   0.483562 0.205532 0.490210 -0.038389
C42   C     C_3   0.899757 0.422591 0.570267 -0.399890
C43   C     C_3   0.043892 0.421800 0.569996 -0.399000
C44   C     C_3   0.923544 0.485805 0.408919 -0.390093
C45   C     C_3   0.961348 0.595985 0.521692 -0.393548
C46   C     C_3   0.878884 0.501444 0.500280 0.170447
H1    H     H_    0.840881 0.353773 0.556774 0.177138
H2    H     H_    0.158815 0.653103 0.472059 0.230990
H3    H     H_    0.908950 0.542039 0.358135 0.163172
H4    H     H_    0.123289 0.540493 0.358007 0.165756
H5    H     H_    0.480993 0.456568 0.210851 0.157924
H6    H     H_    0.626858 0.737890 0.258674 0.161220
H7    H     H_    0.723480 0.743271 0.957257 0.143094
H8    H     H_    0.458505 0.207724 0.894154 0.146771
H9    H     H_    0.437787 0.260612 0.740801 0.158007
H10   H     H_    0.551118 0.544210 0.786844 0.158860
H11   H     H_    0.867878 0.433078 0.636140 0.158450
H12   H     H_    0.550315 0.362472 0.147281 0.165541
H13   H     H_    0.686225 0.629739 0.857912 0.138427
H14   H     H_    0.697552 0.785046 0.104067 0.137666
H15   H     H_    0.717864 0.011976 0.677092 0.139179
H16   H     H_    0.554355 0.231062 0.536104 0.119218
H17   H     H_    0.292768 0.299127 0.354202 0.126669
H18   H     H_    0.232815 0.977407 0.353015 0.174299
H19   H     H_    0.747278 0.855202 0.696081 0.142330
H20   H     H_    0.698237 0.698949 0.651427 0.127383
H21   H     H_    0.461158 0.772892 0.454809 0.205670
H22   H     H_    0.082350 0.431924 0.635739 0.158940
H23   H     H_    0.625536 0.129020 0.606005 0.129893
H24   H     H_    0.225315 0.138638 0.320351 0.143899
H25   H     H_    0.054039 0.352801 0.556144 0.182757
H26   H     H_    0.865185 0.418529 0.391563 0.183089
H27   H     H_    0.078138 0.417012 0.391906 0.177081
H28   H     H_    0.947749 0.653938 0.472447 0.193524
H29   H     H_    0.930990 0.608981 0.587064 0.175032
H30   H     H_    0.142224 0.608485 0.586713 0.183827
N1    N     N_R   0.573860 0.731700 0.552730 -0.117044
N2    N     N_R   0.426060 0.268290 0.447230 -0.101280
O1    O     O_R   0.462770 0.383110 0.605620 -0.616987
O2    O     O_R   0.510160 0.531900 0.639510 -0.620686
O3    O     O_R   0.661510 0.425600 0.483070 -0.627428
O4    O     O_R   0.708900 0.574390 0.516960 -0.628033
O5    O     O_R   0.489840 0.468100 0.360490 -0.622246
O6    O     O_R   0.537230 0.616890 0.394380 -0.616212
O7    O     O_R   0.291100 0.425610 0.483040 -0.624727
O8    O     O_R   0.338490 0.574400 0.516930 -0.614850
Zn1   Zn    Zn3+2 0.468350 0.400660 0.477370 0.928045
Zn2   Zn    Zn3+2 0.531650 0.599340 0.522630 0.941090
N3    N     N_2   0.489943 0.220335 0.055041 -0.309903
H31   H     H_    0.397840 0.184973 0.041255 0.218207
C47   C     C_3   0.531667 0.188913 0.140203 -0.788842
H32   H     H_    0.519011 0.112443 0.147637 0.243362
H33   H     H_    0.471721 0.204628 0.192578 0.237160
H34   H     H_    0.636063 0.222070 0.146952 0.250481
F1    F     F_    0.301625 0.839341 0.429814 -0.719841

loop_
_geom_bond_atom_site_label_1
_geom_bond_atom_site_label_2
_ccdc_geom_bond_type
N2    Zn1   S    
C44   H3    S    
O5    Zn1   S    
C19   C20   A    
O1    Zn1   S    
C7    C8    A    
C45   C46   S    
C7    C11   A    
C40   H17   S    
C23   O5    A    
C30   C35   A    
C1    C5    S    
C28   C29   A    
C19   C21   A    
C18   C19   A    
C34   O8    A    
C30   C31   A    
O8    Zn2   S    
C15   C16   A    
C6    C22   A    
C29   C33   A    
C42   H11   S    
C38   C41   A    
C42   C46   S    
C18   H7    S    
C20   C24   A    
N1    Zn2   S    
C43   H22   S    
N3    C47   S    
C9    C10   A    
C47   H32   S    
C2    C34   S    
C24   H5    S    
C16   N3    S    
C21   C22   A    
O2    Zn2   S    
C41   H16   S    
C8    H9    S    
C3    H4    S    
C44   C46   S    
C4    C45   S    
O7    Zn1   S    
C25   C29   A    
C3    C44   S    
C26   N1    A    
C23   O6    A    
C26   H20   S    
C14   C20   A    
C25   H19   S    
C21   H14   S    
C12   C46   S    
C41   N2    A    
C25   C26   A    
C45   H28   S    
C34   O7    A    
C2    C4    S    
C5    C9    A    
C37   C38   A    
C47   H33   S    
C11   C16   A    
C31   C32   A    
C2    C43   S    
C6    C24   A    
C17   C18   A    
C12   O4    A    
C9    H10   S    
O3    Zn1   S    
C17   H13   S    
C1    O1    A    
C15   H12   S    
C40   N2    A    
C42   C43   S    
C39   C40   A    
C22   H6    S    
C4    H2    S    
C36   C37   A    
C43   H25   S    
O6    Zn2   S    
C27   N1    A    
C10   C13   A    
C5    C8    A    
C32   H23   S    
C35   F1    S    
C31   C38   A    
C13   C17   A    
C45   H29   S    
C32   C33   A    
C28   C30   A    
C2    C3    S    
C37   C39   A    
C36   H18   S    
C47   H34   S    
O4    Zn2   S    
C6    C23   S    
C39   H24   S    
C12   O3    A    
C44   H26   S    
C42   H1    S    
C3    H27   S    
C4    H30   S    
C27   H21   S    
C10   C11   A    
C33   H15   S    
C27   C28   A    
C1    O2    A    
C14   C15   A    
C35   C36   A    
C7    H8    S    
N3    H31   S    
C13   C14   A    
