data_mof_unit_127.cif
_audit_creation_date              2012-12-11T15:06:36-0500
_audit_creation_method            fapswitch 2.2
_symmetry_space_group_name_H-M    P1
_symmetry_Int_Tables_number       1
_space_group_crystal_system       triclinic
_cell_length_a                    7.236908
_cell_length_b                    14.809242
_cell_length_c                    22.489643
_cell_angle_alpha                 90.000029
_cell_angle_beta                  89.999698
_cell_angle_gamma                 91.65129
_cell_volume                      2409.28430668

loop_
_atom_site_label
_atom_site_type_symbol
_atom_type_description
_atom_site_fract_x
_atom_site_fract_y
_atom_site_fract_z
_atom_type_partial_charge
O1    O     O_R   0.390810 0.844810 0.447340 -0.519836
O2    O     O_R   0.109190 0.155190 0.947340 -0.519835
O3    O     O_R   0.890810 0.655190 0.552660 -0.533338
O4    O     O_R   0.609190 0.344810 0.052660 -0.533341
O5    O     O_R   0.720550 0.655820 0.440420 -0.534476
O6    O     O_R   0.779450 0.344180 0.940420 -0.534478
O7    O     O_R   0.220550 0.844180 0.559580 -0.530494
O8    O     O_R   0.279450 0.155820 0.059580 -0.530495
C1    C     C_R   0.550007 0.626190 0.426543 0.748991
C2    C     C_R   0.949994 0.373810 0.926543 0.748986
C3    C     C_R   0.054475 0.874048 0.573484 0.746825
C4    C     C_R   0.445524 0.125953 0.073484 0.746826
O9    O     O_R   0.720530 0.844130 0.440420 -0.540566
O10   O     O_R   0.779470 0.155870 0.940420 -0.540562
O11   O     O_R   0.220530 0.655870 0.559580 -0.524614
O12   O     O_R   0.279470 0.344130 0.059580 -0.524611
O13   O     O_R   0.890830 0.844810 0.552660 -0.532469
O14   O     O_R   0.609170 0.155190 0.052660 -0.532469
O15   O     O_R   0.390830 0.655190 0.447340 -0.530648
O16   O     O_R   0.109170 0.344810 0.947340 -0.530645
C5    C     C_R   0.554312 0.873155 0.425892 0.687118
C6    C     C_R   0.945689 0.126844 0.925893 0.687121
C7    C     C_R   0.050000 0.626637 0.573780 0.686328
C8    C     C_R   0.449999 0.373363 0.073780 0.686335
O17   O     O_3   0.557310 0.749980 0.536820 -0.374466
O18   O     O_3   0.942690 0.250020 0.036820 -0.374468
O19   O     O_3   0.057310 0.750020 0.463180 -0.377445
O20   O     O_3   0.442690 0.249980 0.963180 -0.377443
V1    V     V_3+5 0.832160 0.749980 0.493170 1.489743
V2    V     V_3+5 0.667840 0.250020 0.993170 1.489745
V3    V     V_3+5 0.332160 0.750020 0.506830 1.516708
V4    V     V_3+5 0.167840 0.249980 0.006830 1.516715
C9    C     C_R   0.059559 0.607745 0.866621 0.241118
C10   C     C_R   0.440518 0.392248 0.366621 0.241130
C11   C     C_R   0.341225 0.895918 0.140984 0.238588
C12   C     C_R   0.158761 0.104084 0.640983 0.238592
H1    H     H_    0.125092 0.730693 0.779392 0.170789
H2    H     H_    0.375015 0.269297 0.279393 0.170788
H3    H     H_    0.316363 0.775131 0.231282 0.170870
H4    H     H_    0.183586 0.224877 0.731278 0.170867
C13   C     C_R   0.968511 0.450729 0.885027 -0.150199
C14   C     C_R   0.531496 0.549273 0.385026 -0.150202
C15   C     C_R   0.443015 0.049402 0.115760 -0.151788
C16   C     C_R   0.056982 0.950598 0.615759 -0.151790
C17   C     C_R   0.985434 0.465855 0.593813 -0.069449
C18   C     C_R   0.514535 0.534147 0.093812 -0.069450
C19   C     C_R   0.636802 0.030365 0.400186 -0.068003
C20   C     C_R   0.863247 0.969626 0.900191 -0.068013
C21   C     C_R   0.946435 0.393725 0.631664 -0.019456
C22   C     C_R   0.553526 0.606279 0.131663 -0.019458
C23   C     C_R   0.662565 0.100782 0.360015 -0.037004
C24   C     C_R   0.837516 0.899203 0.860023 -0.036990
C25   C     C_R   0.951893 0.405271 0.693117 -0.164208
C26   C     C_R   0.548081 0.594733 0.193116 -0.164205
C27   C     C_R   0.609797 0.090494 0.300803 -0.167574
C28   C     C_R   0.890267 0.909493 0.800809 -0.167569
C29   C     C_R   0.997077 0.490481 0.718744 0.104664
C30   C     C_R   0.502918 0.509520 0.218743 0.104663
C31   C     C_R   0.529059 0.008269 0.279803 0.108781
C32   C     C_R   0.970954 0.991727 0.779805 0.108775
C33   C     C_R   0.038602 0.564230 0.679373 0.067900
C34   C     C_R   0.461411 0.435769 0.179373 0.067898
C35   C     C_R   0.502096 0.936147 0.321626 0.068853
C36   C     C_R   0.997894 0.063853 0.821625 0.068853
C37   C     C_R   0.000696 0.504972 0.781940 0.058413
C38   C     C_R   0.499312 0.495029 0.281939 0.058414
C39   C     C_R   0.476921 0.994997 0.218654 0.057596
C40   C     C_R   0.023076 0.005002 0.718654 0.057596
C41   C     C_R   0.049560 0.592478 0.804390 0.017217
C42   C     C_R   0.450493 0.407518 0.304390 0.017213
C43   C     C_R   0.397437 0.910081 0.200787 0.020253
C44   C     C_R   0.102545 0.089921 0.700786 0.020252
C45   C     C_R   0.088946 0.663226 0.764273 -0.146202
C46   C     C_R   0.411128 0.336767 0.264274 -0.146197
C47   C     C_R   0.374523 0.840721 0.243056 -0.147603
C48   C     C_R   0.125441 0.159284 0.743053 -0.147597
C49   C     C_R   0.082739 0.649554 0.703245 -0.200746
C50   C     C_R   0.417311 0.350441 0.203245 -0.200738
C51   C     C_R   0.426075 0.853337 0.301983 -0.204108
C52   C     C_R   0.073888 0.146669 0.801980 -0.204099
C53   C     C_R   0.959648 0.435198 0.823627 -0.271072
C54   C     C_R   0.540329 0.564807 0.323626 -0.271071
C55   C     C_R   0.499034 0.063567 0.174785 -0.269970
C56   C     C_R   0.000960 0.936433 0.674785 -0.269970
C57   C     C_R   0.018426 0.536927 0.906584 0.230874
C58   C     C_R   0.481632 0.463069 0.406584 0.230869
C59   C     C_R   0.364795 0.965435 0.098794 0.237990
C60   C     C_R   0.135202 0.034566 0.598793 0.237988
C61   C     C_R   0.031836 0.551267 0.616697 -0.096160
C62   C     C_R   0.468160 0.448733 0.116696 -0.096159
C63   C     C_R   0.556672 0.947851 0.382059 -0.092299
C64   C     C_R   0.943334 0.052148 0.882060 -0.092304
H5    H     H_    0.924792 0.367073 0.810061 0.117249
H6    H     H_    0.575141 0.632936 0.310059 0.117243
H7    H     H_    0.554230 0.129995 0.185215 0.118968
H8    H     H_    0.945755 0.870007 0.685214 0.118973
H9    H     H_    0.976389 0.455344 0.546190 0.156740
H10   H     H_    0.523568 0.544659 0.046189 0.156744
H11   H     H_    0.682362 0.039842 0.445734 0.155452
H12   H     H_    0.817704 0.960147 0.945741 0.155454
H13   H     H_    0.918778 0.345986 0.719113 0.121522
H14   H     H_    0.581192 0.654018 0.219111 0.121525
H15   H     H_    0.636168 0.148192 0.272656 0.117877
H16   H     H_    0.863936 0.851787 0.772666 0.117876
H17   H     H_    0.909361 0.328175 0.613170 0.179508
H18   H     H_    0.590585 0.671831 0.113168 0.179509
H19   H     H_    0.725977 0.163983 0.374806 0.173135
H20   H     H_    0.774148 0.835994 0.874818 0.173139
H21   H     H_    0.114154 0.706901 0.674745 0.103192
H22   H     H_    0.385913 0.293093 0.174745 0.103179
H23   H     H_    0.405438 0.797026 0.332190 0.110829
H24   H     H_    0.094509 0.202983 0.832186 0.110817
Br1   Br    Br    0.032270 0.557015 0.991426 -0.443016
Br2   Br    Br    0.467826 0.442978 0.491426 -0.443013
Br3   Br    Br    0.290286 0.946065 0.017123 -0.432575
Br4   Br    Br    0.209722 0.053935 0.517123 -0.432569
Br5   Br    Br    0.138209 0.723889 0.898536 -0.442973
Br6   Br    Br    0.361926 0.276097 0.398538 -0.442963
Br7   Br    Br    0.224094 0.783087 0.116009 -0.451362
Br8   Br    Br    0.275882 0.216917 0.616008 -0.451350

loop_
_geom_bond_atom_site_label_1
_geom_bond_atom_site_label_2
_ccdc_geom_bond_type
O17   V3    S    
C30   C34   A    
C54   H6    S    
C27   C31   A    
O19   V1    S    
O13   V1    S    
C11   Br7   S    
C14   C54   A    
C44   C48   A    
O15   V3    S    
C35   C51   A    
C12   C60   A    
O1    C5    A    
C30   C38   A    
C1    C14   S    
C22   C26   A    
O9    V1    S    
C4    C15   S    
C10   C58   A    
O4    C8    A    
C37   C41   A    
C39   C43   A    
C12   C44   A    
C27   H15   S    
C15   C55   A    
O1    V3    S    
C19   H11   S    
O11   V3    S    
O2    V4    S    
C56   H8    S    
O3    V1    S    
C9    C57   A    
C42   C46   A    
C31   C39   A    
C11   C59   A    
C1    O15   A    
C33   C49   A    
O2    C6    A    
C7    C61   S    
C41   C45   A    
C14   C58   A    
H3    C47   S    
C17   C61   A    
C10   C42   A    
C59   Br3   S    
C9    C41   A    
O11   C7    A    
C18   H10   S    
C55   H7    S    
O12   C8    A    
C2    C13   S    
C36   C52   A    
O10   V2    S    
O16   V4    S    
C33   C61   A    
O5    V1    S    
C9    Br5   S    
C20   H12   S    
O7    V3    S    
C40   C56   A    
C28   H16   S    
C25   H13   S    
C25   C29   A    
O18   V4    S    
C19   C23   A    
O3    C7    A    
C10   Br6   S    
H4    C48   S    
C40   C44   A    
O8    V4    S    
C60   Br4   S    
O7    C3    A    
O5    C1    A    
C38   C54   A    
C53   H5    S    
C37   C53   A    
C17   C21   A    
O8    C4    A    
C13   C53   A    
C52   H24   S    
C26   C30   A    
O9    C5    A    
C3    C16   S    
C50   H22   S    
C39   C55   A    
C49   H21   S    
C32   C40   A    
O14   V2    S    
O6    V2    S    
C46   C50   A    
C36   C64   A    
C35   C63   A    
C5    C63   S    
H1    C45   S    
C3    O13   A    
C6    C64   S    
C58   Br2   S    
C19   C63   A    
C26   H14   S    
C48   C52   A    
C29   C37   A    
C16   C56   A    
C8    C62   S    
O6    C2    A    
C21   H17   S    
C29   C33   A    
C18   C62   A    
O12   V4    S    
C13   C57   A    
C18   C22   A    
C31   C35   A    
C51   H23   S    
C32   C36   A    
C15   C59   A    
O10   C6    A    
C57   Br1   S    
C17   H9    S    
C43   C47   A    
C34   C50   A    
C2    O16   A    
C21   C25   A    
C34   C62   A    
O20   V2    S    
H2    C46   S    
C23   C27   A    
C12   Br8   S    
C11   C43   A    
C28   C32   A    
C20   C24   A    
C38   C42   A    
C24   H20   S    
C23   H19   S    
C20   C64   A    
C4    O14   A    
C22   H18   S    
C45   C49   A    
C16   C60   A    
C47   C51   A    
O4    V2    S    
C24   C28   A    
