data_mof_unit_2494.cif
_audit_creation_date              2012-12-11T15:36:40-0500
_audit_creation_method            fapswitch 2.2
_symmetry_space_group_name_H-M    P1
_symmetry_Int_Tables_number       1
_space_group_crystal_system       triclinic
_cell_length_a                    15.057057
_cell_length_b                    15.067601
_cell_length_c                    34.833956
_cell_angle_alpha                 91.428907
_cell_angle_beta                  91.839715
_cell_angle_gamma                 60.081775
_cell_volume                      6845.85901765

loop_
_atom_site_label
_atom_site_type_symbol
_atom_type_description
_atom_site_fract_x
_atom_site_fract_y
_atom_site_fract_z
_atom_type_partial_charge
C1    C     C_R   0.610720 0.302682 0.444006 0.544069
C2    C     C_R   0.749136 0.693019 0.183899 0.016431
C3    C     C_R   0.610178 0.152915 0.831083 0.030233
C4    C     C_R   0.679960 0.172877 0.851836 -0.119518
C5    C     C_R   0.710718 0.136839 0.889050 -0.125194
C6    C     C_R   0.588554 0.263503 0.775142 -0.121725
C7    C     C_R   0.592189 0.275083 0.735766 -0.119621
C8    C     C_R   0.599495 0.198821 0.709963 0.026388
C9    C     C_R   0.597574 0.113345 0.723917 -0.117650
C10   C     C_R   0.595093 0.101113 0.763417 -0.114298
C11   C     C_R   0.593407 0.174806 0.789463 0.028839
C12   C     C_R   0.547020 0.198588 0.641213 -0.119662
C13   C     C_R   0.837450 0.628729 0.162549 0.150578
C14   C     C_R   0.550299 0.221018 0.602798 -0.123439
C15   C     C_R   0.689849 0.253163 0.618508 -0.126559
C16   C     C_R   0.685504 0.232201 0.656922 -0.123878
C17   C     C_R   0.611904 0.208044 0.668727 0.027911
C18   C     C_R   0.619476 0.251869 0.591352 0.022844
C19   C     C_R   0.045660 0.739157 0.048529 0.537174
C20   C     C_R   0.747752 0.746968 0.064234 0.543662
C21   C     C_R   0.751237 0.040359 0.050668 0.540136
C22   C     C_R   0.017158 0.722094 0.939674 0.557750
C23   C     C_R   0.717125 0.729883 0.954962 0.542395
C24   C     C_R   0.832788 0.641839 0.122427 -0.095090
C25   C     C_R   0.721281 0.024556 0.942104 0.541620
C26   C     C_R   0.760643 0.592918 0.240635 -0.137996
C27   C     C_R   0.749697 0.584350 0.279600 -0.131740
C28   C     C_R   0.724749 0.667486 0.304602 -0.015033
C29   C     C_R   0.714852 0.758250 0.290272 -0.042858
C30   C     C_R   0.727543 0.767387 0.251244 0.238437
C31   C     C_R   0.748069 0.684255 0.225922 0.006352
C32   C     C_R   0.610288 0.739396 0.360759 -0.120496
C33   C     C_R   0.593429 0.610143 0.449414 0.543229
C34   C     C_R   0.577745 0.725380 0.396010 -0.123416
C35   C     C_R   0.729947 0.557981 0.401125 -0.128050
C36   C     C_R   0.762194 0.571920 0.365885 -0.113478
C37   C     C_R   0.700920 0.661189 0.344823 0.032786
C38   C     C_R   0.635569 0.633000 0.415855 0.022045
C39   C     C_R   0.103339 0.729109 0.084717 0.022982
C40   C     C_R   0.151399 0.635060 0.103938 -0.133801
C41   C     C_R   0.176767 0.631294 0.142881 -0.122005
C42   C     C_R   0.155231 0.721145 0.163038 0.035325
C43   C     C_R   0.117709 0.813162 0.143191 -0.123260
C44   C     C_R   0.304587 0.590840 0.442170 0.542346
C45   C     C_R   0.092026 0.817160 0.104109 -0.128641
C46   C     C_R   0.226900 0.741927 0.225964 -0.130804
C47   C     C_R   0.235760 0.731136 0.265796 -0.169525
C48   C     C_R   0.175904 0.699708 0.285214 0.055261
C49   C     C_R   0.102224 0.684697 0.264694 0.243076
C50   C     C_R   0.095015 0.694252 0.224561 -0.126723
C51   C     C_R   0.158856 0.720316 0.205168 -0.006522
C52   C     C_R   0.228976 0.573583 0.339012 0.198194
C53   C     C_R   0.254609 0.551075 0.378153 -0.100741
C54   C     C_R   0.222232 0.723292 0.391018 -0.141483
C55   C     C_R   0.605403 0.301041 0.553866 0.542047
C56   C     C_R   0.193089 0.748062 0.352626 -0.159458
C57   C     C_R   0.197717 0.673808 0.326357 0.076863
C58   C     C_R   0.254916 0.624135 0.403946 -0.010441
C59   C     C_R   0.725072 0.096637 0.087391 0.024101
C60   C     C_R   0.802895 0.096256 0.110813 -0.125332
C61   C     C_R   0.786092 0.121820 0.149643 -0.121364
C62   C     C_R   0.690910 0.149591 0.165334 0.028662
C63   C     C_R   0.610270 0.159425 0.141207 -0.113467
C64   C     C_R   0.627367 0.132660 0.102478 -0.124129
C65   C     C_R   0.594162 0.243706 0.223207 -0.063398
C66   C     C_R   0.587016 0.606162 0.559418 0.567787
C67   C     C_R   0.583157 0.254671 0.262872 0.227316
C68   C     C_R   0.656702 0.175990 0.287160 0.024502
C69   C     C_R   0.740420 0.087888 0.271047 0.148364
C70   C     C_R   0.750729 0.081232 0.230963 -0.079191
C71   C     C_R   0.678635 0.159045 0.207194 -0.052589
C72   C     C_R   0.729622 0.201150 0.348348 -0.110887
C73   C     C_R   0.719913 0.229487 0.386912 -0.126867
C74   C     C_R   0.558859 0.229507 0.388195 -0.138537
C75   C     C_R   0.569701 0.199267 0.349616 -0.138208
C76   C     C_R   0.652777 0.189716 0.329191 0.017108
C77   C     C_R   0.298755 0.589031 0.551974 0.542981
C78   C     C_R   0.632141 0.248570 0.406736 0.022867
C79   C     C_R   0.690752 0.688081 0.920449 0.020933
C80   C     C_R   0.763198 0.593011 0.904899 -0.127315
C81   C     C_R   0.749468 0.564840 0.867658 -0.127522
C82   C     C_R   0.663428 0.631501 0.845191 0.031763
C83   C     C_R   0.586793 0.722286 0.862055 -0.120939
C84   C     C_R   0.600106 0.750057 0.899369 -0.128656
C85   C     C_R   0.565722 0.644742 0.783754 -0.121808
C86   C     C_R   0.560640 0.643692 0.743685 -0.119204
C87   C     C_R   0.649420 0.611358 0.722331 0.031768
C88   C     C_R   0.743651 0.718562 0.104103 -0.011512
C89   C     C_R   0.744040 0.575534 0.741672 -0.116211
C90   C     C_R   0.749058 0.577052 0.781711 -0.115883
C91   C     C_R   0.659641 0.614061 0.803216 0.030454
C92   C     C_R   0.711469 0.533555 0.657622 -0.144186
C93   C     C_R   0.698277 0.534806 0.617829 -0.178556
C94   C     C_R   0.551110 0.706949 0.621616 0.246471
C95   C     C_R   0.565061 0.704360 0.661802 -0.110682
C96   C     C_R   0.642601 0.616678 0.679984 -0.002743
C97   C     C_R   0.615701 0.619174 0.599460 0.058757
C98   C     C_R   0.070442 0.696354 0.902755 0.011255
C99   C     C_R   0.656018 0.778236 0.125705 -0.140566
C100  C     C_R   0.100977 0.763243 0.888634 -0.175590
C101  C     C_R   0.135541 0.752326 0.851455 -0.166827
C102  C     C_R   0.140099 0.674598 0.827520 0.008331
C103  C     C_R   0.113984 0.603554 0.841475 0.156738
C104  C     C_R   0.081334 0.612953 0.879564 0.162421
C105  C     C_R   0.250124 0.599932 0.770708 -0.124676
C106  C     C_R   0.262170 0.596583 0.731174 -0.124173
C107  C     C_R   0.184150 0.670644 0.707753 0.020006
C108  C     C_R   0.095314 0.749746 0.724051 -0.124938
C109  C     C_R   0.083230 0.752997 0.763580 -0.124713
C110  C     C_R   0.658710 0.765168 0.165154 -0.145470
C111  C     C_R   0.159519 0.676709 0.786823 0.034535
C112  C     C_R   0.208105 0.733994 0.645105 0.154030
C113  C     C_R   0.232825 0.713665 0.606309 -0.084709
C114  C     C_R   0.223178 0.558025 0.608916 -0.139949
C115  C     C_R   0.198809 0.577226 0.647468 -0.150397
C116  C     C_R   0.195093 0.662440 0.666091 0.030124
C117  C     C_R   0.245104 0.623539 0.588522 -0.014282
C118  C     C_R   0.672372 0.080105 0.906378 0.020570
C119  C     C_R   0.597001 0.066332 0.886810 -0.131894
C120  C     C_R   0.566394 0.102185 0.849337 -0.124565
Cr1   Cr    Cr6+3 0.426010 0.422500 0.497000 1.010673
Cr2   Cr    Cr6+3 0.651300 0.426310 0.501970 1.006927
Cr3   Cr    Cr6+3 0.422670 0.651170 0.501050 1.040557
Cr4   Cr    Cr6+3 0.905130 0.911420 0.992650 1.007248
Cr5   Cr    Cr6+3 0.911860 0.682710 0.002320 1.013380
Cr6   Cr    Cr6+3 0.682710 0.906840 0.004710 1.010092
H1    H     H_    0.586308 0.837787 0.112359 0.137713
H2    H     H_    0.504916 0.784714 0.406725 0.129611
H3    H     H_    0.776754 0.486326 0.415908 0.125422
H4    H     H_    0.161884 0.565848 0.089705 0.119744
H5    H     H_    0.055124 0.890760 0.090070 0.122559
H6    H     H_    0.169618 0.824692 0.343053 0.108237
H7    H     H_    0.292479 0.743058 0.281347 0.117989
H8    H     H_    0.275912 0.762927 0.211238 0.121870
H9    H     H_    0.207099 0.559435 0.157898 0.109452
H10   H     H_    0.899957 0.596504 0.105470 0.130882
H11   H     H_    0.040601 0.680175 0.208295 0.102943
H12   H     H_    0.281798 0.474335 0.388262 0.126543
H13   H     H_    0.100934 0.883105 0.158490 0.102448
H14   H     H_    0.222371 0.780723 0.410306 0.129869
H15   H     H_    0.879025 0.068386 0.099960 0.120117
H16   H     H_    0.566113 0.133768 0.084931 0.116456
H17   H     H_    0.510765 0.188918 0.335100 0.119784
H18   H     H_    0.538339 0.303942 0.204798 0.139916
H19   H     H_    0.833086 0.511198 0.354331 0.111366
H20   H     H_    0.848765 0.115281 0.167835 0.102781
H21   H     H_    0.813508 0.014765 0.217716 0.119977
H22   H     H_    0.794584 0.193188 0.332902 0.126327
H23   H     H_    0.777993 0.242984 0.400393 0.129079
H24   H     H_    0.536231 0.180964 0.152825 0.108157
H25   H     H_    0.490723 0.243130 0.402830 0.120523
H26   H     H_    0.833480 0.543089 0.920576 0.128830
H27   H     H_    0.542781 0.823763 0.910518 0.123956
H28   H     H_    0.513921 0.770107 0.679047 0.093579
H29   H     H_    0.756022 0.514140 0.289905 0.119974
H30   H     H_    0.487086 0.669215 0.729325 0.110692
H31   H     H_    0.495816 0.671677 0.799478 0.101892
H32   H     H_    0.808724 0.493235 0.855781 0.098494
H33   H     H_    0.813517 0.550245 0.725824 0.100334
H34   H     H_    0.822386 0.553814 0.795718 0.091765
H35   H     H_    0.772351 0.465309 0.671068 0.110885
H36   H     H_    0.749301 0.466584 0.601718 0.131276
H37   H     H_    0.519939 0.775872 0.845529 0.100254
H38   H     H_    0.094534 0.826865 0.905927 0.135012
H39   H     H_    0.775666 0.529146 0.221619 0.141620
H40   H     H_    0.187425 0.522890 0.663358 0.115740
H41   H     H_    0.331463 0.535587 0.718713 0.115019
H42   H     H_    0.309763 0.541353 0.788577 0.104295
H43   H     H_    0.154760 0.807411 0.840714 0.120510
H44   H     H_    0.034707 0.807017 0.706109 0.113966
H45   H     H_    0.012913 0.812556 0.775940 0.113069
H46   H     H_    0.250233 0.764608 0.590964 0.154365
H47   H     H_    0.590462 0.813165 0.181387 0.136296
H48   H     H_    0.231687 0.488244 0.595901 0.138133
H49   H     H_    0.566305 0.022672 0.899518 0.123037
H50   H     H_    0.768521 0.149045 0.903557 0.125716
H51   H     H_    0.737337 0.238296 0.677710 0.104634
H52   H     H_    0.591079 0.342878 0.725436 0.110667
H53   H     H_    0.585241 0.322433 0.794483 0.103640
H54   H     H_    0.511517 0.086877 0.834127 0.101472
H55   H     H_    0.602813 0.053905 0.704398 0.106506
H56   H     H_    0.600159 0.031385 0.773599 0.105050
H57   H     H_    0.489989 0.179647 0.649787 0.106361
H58   H     H_    0.696855 0.822479 0.309456 0.133106
H59   H     H_    0.495070 0.219569 0.582466 0.122333
H60   H     H_    0.716016 0.210667 0.838502 0.104662
H61   H     H_    0.743568 0.277282 0.610669 0.123757
H62   H     H_    0.561450 0.808686 0.344892 0.104601
O1    O     O_R   0.324990 0.503440 0.453910 -0.521804
O2    O     O_R   0.639980 0.519500 0.542640 -0.522419
O3    O     O_R   0.500750 0.673190 0.545480 -0.442266
O4    O     O_R   0.336260 0.640450 0.538210 -0.502318
O5    O     O_3   0.499990 0.499990 0.500010 -0.242323
O6    O     O_R   0.834210 0.019400 0.034570 -0.521781
O7    O     O_R   0.002210 0.824620 0.031030 -0.503820
O8    O     O_R   0.024400 0.669340 0.039790 -0.525151
O9    O     O_R   0.830490 0.694950 0.045870 -0.506471
O10   O     O_R   0.675430 0.831160 0.051290 -0.513835
O11   O     O_R   0.698870 0.998880 0.039560 -0.499689
O12   O     O_R   0.522030 0.339050 0.458320 -0.502958
O13   O     O_R   0.811290 0.006780 0.950620 -0.516211
O14   O     O_R   0.980960 0.812920 0.953200 -0.507788
O15   O     O_R   0.001480 0.656720 0.955830 -0.481438
O16   O     O_R   0.809240 0.683250 0.968050 -0.496175
O17   O     O_R   0.652500 0.818540 0.967340 -0.521597
O18   O     O_R   0.677620 0.987170 0.961730 -0.503191
O19   O     O_3   0.833240 0.833660 0.999890 -0.236367
O20   O     O_R   0.676180 0.324490 0.458320 -0.519535
O21   O     O_R   0.643570 0.521510 0.464260 -0.503941
O22   O     O_R   0.504630 0.675350 0.460920 -0.517849
O23   O     O_R   0.339850 0.642450 0.459830 -0.499327
O24   O     O_R   0.321120 0.501280 0.538470 -0.515408
O25   O     O_R   0.518440 0.337050 0.536710 -0.499984
O26   O     O_R   0.672300 0.322330 0.542880 -0.520406
N1    N     N_2   0.929415 0.554626 0.182048 -0.523974
H63   H     H_    0.942274 0.575743 0.209116 0.248569
C121  C     C_3   0.021821 0.492135 0.160811 -0.321916
H64   H     H_    0.083621 0.438616 0.180684 0.144277
H65   H     H_    0.047448 0.541233 0.147341 0.141172
H66   H     H_    0.008344 0.445698 0.138614 0.151421
O27   O     O_3   0.039596 0.659645 0.284341 -0.689560
H67   H     H_    0.991488 0.653543 0.265811 0.315330
N2    N     N_2   0.240112 0.496112 0.311629 -0.468235
H68   H     H_    0.273555 0.496015 0.286237 0.276665
C122  C     C_3   0.265126 0.395353 0.324316 -0.288664
H69   H     H_    0.261909 0.349715 0.299338 0.152975
H70   H     H_    0.208641 0.401396 0.345460 0.150516
H71   H     H_    0.343856 0.355059 0.337029 0.133385
O28   O     O_3   0.501579 0.344803 0.276255 -0.723972
H72   H     H_    0.511850 0.354455 0.303851 0.333355
N3    N     N_2   0.812585 0.008304 0.295846 -0.518221
H73   H     H_    0.781155 0.989561 0.317948 0.268270
C123  C     C_3   0.905414 0.923722 0.280710 -0.284915
H74   H     H_    0.955079 0.876501 0.304872 0.174085
H75   H     H_    0.948720 0.952485 0.264882 0.136575
H76   H     H_    0.886804 0.874813 0.261643 0.188121
O29   O     O_3   0.472854 0.792517 0.603882 -0.681898
H77   H     H_    0.434554 0.845817 0.623566 0.316466
N4    N     N_2   0.056025 0.540830 0.893973 -0.480787
H78   H     H_    0.014427 0.521135 0.875095 0.259655
C124  C     C_3   0.141837 0.452328 0.911481 -0.282205
H79   H     H_    0.114568 0.403695 0.924288 0.129439
H80   H     H_    0.178012 0.476382 0.934679 0.157821
H81   H     H_    0.199736 0.406458 0.889570 0.145804
N5    N     N_2   0.207376 0.820372 0.663165 -0.522926
H82   H     H_    0.220223 0.816143 0.692468 0.256195
C125  C     C_3   0.124426 0.918794 0.650870 -0.314571
H83   H     H_    0.132584 0.980799 0.665460 0.138070
H84   H     H_    0.049542 0.927014 0.658454 0.138205
H85   H     H_    0.126126 0.927562 0.619388 0.153325
N6    N     N_2   0.116695 0.524486 0.817348 -0.526224
H86   H     H_    0.182342 0.484525 0.801715 0.251921
C126  C     C_3   0.024232 0.554383 0.794536 -0.319315
H87   H     H_    0.026630 0.485085 0.781683 0.134537
H88   H     H_    0.017799 0.605679 0.770985 0.156200
H89   H     H_    0.955423 0.594453 0.812620 0.145467
O30   O     O_3   0.718127 0.858462 0.239275 -0.721462
H90   H     H_    0.744951 0.849622 0.213058 0.325159

loop_
_geom_bond_atom_site_label_1
_geom_bond_atom_site_label_2
_ccdc_geom_bond_type
Cr6   O11   S    
C92   H35   S    
C15   C18   A    
C26   H39   S    
C19   O7    A    
C101  C102  A    
C22   C98   S    
C29   H58   S    
C108  H44   S    
C6    H53   S    
C104  N4    S    
C30   O30   S    
C48   C57   S    
C41   C42   A    
C14   C18   A    
C95   C96   A    
C112  C116  A    
C25   O18   A    
C72   C76   A    
C25   C118  S    
C49   C50   A    
C55   O26   A    
C114  C115  A    
C85   C91   A    
C50   H11   S    
N6    H86   S    
Cr5   O16   S    
C85   C86   A    
C56   C57   A    
C121  H66   S    
C54   H14   S    
C59   C64   A    
C29   C30   A    
C22   O15   A    
C28   C37   S    
C66   C97   S    
C36   C37   A    
C122  H69   S    
C21   C59   S    
C25   O13   A    
C69   C70   A    
C69   N3    S    
C61   H20   S    
Cr1   O1    S    
C126  H87   S    
C44   O1    A    
C98   C104  A    
N6    C126  S    
C12   H57   S    
C106  C107  A    
Cr6   O17   S    
C15   C16   A    
Cr3   O22   S    
C66   O2    A    
C92   C96   A    
C122  H71   S    
Cr2   O26   S    
C108  C109  A    
O30   H90   S    
C33   O22   A    
Cr1   O24   S    
C4    H60   S    
C2    C13   A    
C1    O20   A    
C86   H30   S    
C118  C119  A    
C100  C101  A    
C83   H37   S    
C103  C104  A    
C77   O24   A    
C119  H49   S    
C33   O21   A    
C2    C110  A    
N4    H78   S    
C44   C58   S    
C16   C17   A    
C65   C67   A    
Cr3   O23   S    
C12   C17   A    
C65   H18   S    
C107  C108  A    
C43   H13   S    
C70   C71   A    
C21   O6    A    
C125  H85   S    
C123  H74   S    
C35   H3    S    
N1    C121  S    
C42   C51   S    
C39   C45   A    
C73   H23   S    
Cr6   O10   S    
C105  C111  A    
Cr5   O9    S    
C59   C60   A    
O29   H77   S    
C47   H7    S    
C1    C78   S    
C79   C84   A    
C44   O23   A    
C102  C111  S    
C61   C62   A    
C85   H31   S    
C21   O11   A    
Cr1   O5    S    
C112  C113  A    
O28   H72   S    
Cr5   O15   S    
C89   H33   S    
C113  H46   S    
C125  H84   S    
C119  C120  A    
C27   H29   S    
C112  N5    S    
C107  C116  S    
Cr2   O2    S    
C54   C56   A    
Cr2   O21   S    
C74   C75   A    
C32   H62   S    
C67   C68   A    
C80   C81   A    
C47   C48   A    
Cr2   O20   S    
C7    C8    A    
C35   C38   A    
C3    C11   S    
C79   C80   A    
N2    H68   S    
N4    C124  S    
C3    C120  A    
C6    C11   A    
C126  H88   S    
C14   H59   S    
C22   O14   A    
C86   C87   A    
C68   C69   A    
C99   H1    S    
Cr5   O8    S    
C121  H64   S    
C72   H22   S    
C99   C110  A    
C15   H61   S    
C46   C51   A    
Cr5   O19   S    
C81   C82   A    
C82   C91   S    
C53   H12   S    
C7    H52   S    
Cr4   O14   S    
C2    C31   S    
C124  H80   S    
C35   C36   A    
Cr1   O25   S    
C109  H45   S    
N1    H63   S    
C63   H24   S    
O27   H67   S    
C60   H15   S    
C46   H8    S    
C123  H75   S    
C84   H27   S    
C94   O29   S    
C83   C84   A    
C114  H48   S    
Cr6   O19   S    
C73   C78   A    
C87   C96   S    
C62   C63   A    
C54   C58   A    
C50   C51   A    
C8    C9    A    
Cr1   O12   S    
C94   C95   A    
C100  H38   S    
C32   C37   A    
C115  H40   S    
C101  H43   S    
C43   C45   A    
C24   C88   A    
C20   O10   A    
C16   H51   S    
C56   H6    S    
C19   C39   S    
C18   C55   S    
C113  C117  A    
C40   C41   A    
C12   C14   A    
C45   H5    S    
C98   C100  A    
C87   C89   A    
C66   O3    A    
C26   C27   A    
C10   H56   S    
C5    H50   S    
C74   H25   S    
C1    O12   A    
C68   C76   S    
C42   C43   A    
Cr2   O5    S    
Cr3   O3    S    
C3    C4    A    
C93   C97   A    
C41   H9    S    
C52   C53   A    
C9    C10   A    
C110  H47   S    
C80   H26   S    
C40   H4    S    
C46   C47   A    
C28   C29   A    
C75   C76   A    
C81   H32   S    
C49   O27   S    
C34   C38   A    
C77   O4    A    
C26   C31   A    
Cr3   O4    S    
Cr3   O5    S    
C33   C38   S    
C67   O28   S    
C72   C73   A    
C24   H10   S    
C55   O25   A    
C126  H89   S    
C53   C58   A    
N2    C122  S    
C75   H17   S    
C6    C7    A    
C52   C57   A    
C121  H65   S    
C105  C106  A    
C23   O16   A    
C77   C117  S    
C8    C17   S    
C94   C97   A    
C105  H42   S    
Cr4   O13   S    
C95   H28   S    
C103  N6    S    
C106  H41   S    
C124  H81   S    
C109  C111  A    
C120  H54   S    
Cr4   O19   S    
C65   C71   A    
C13   N1    S    
C90   C91   A    
C30   C31   A    
C64   H16   S    
C93   H36   S    
Cr6   O18   S    
C124  H79   S    
C48   C49   A    
C4    C5    A    
C20   C88   S    
Cr4   O7    S    
C92   C93   A    
C122  H70   S    
N5    C125  S    
C62   C71   S    
C90   H34   S    
C102  C103  A    
C123  H76   S    
C20   O9    A    
C88   C99   A    
C9    H55   S    
C10   C11   A    
N3    C123  S    
C63   C64   A    
C39   C40   A    
C5    C118  A    
C36   H19   S    
C19   O8    A    
C13   C24   A    
C52   N2    S    
C34   H2    S    
C82   C83   A    
C74   C78   A    
Cr4   O6    S    
N3    H73   S    
C60   C61   A    
C70   H21   S    
C114  C117  A    
C23   C79   S    
C89   C90   A    
N5    H82   S    
C23   O17   A    
C115  C116  A    
C125  H83   S    
C32   C34   A    
C27   C28   A    
