data_mof_unit_2680.cif
_audit_creation_date              2012-12-11T14:42:05-0500
_audit_creation_method            fapswitch 2.2
_symmetry_space_group_name_H-M    P1
_symmetry_Int_Tables_number       1
_space_group_crystal_system       triclinic
_cell_length_a                    18.951647
_cell_length_b                    10.969524
_cell_length_c                    18.829314
_cell_angle_alpha                 89.937156
_cell_angle_beta                  90.201711
_cell_angle_gamma                 90.104912
_cell_volume                      3914.40323268

loop_
_atom_site_label
_atom_site_type_symbol
_atom_type_description
_atom_site_fract_x
_atom_site_fract_y
_atom_site_fract_z
_atom_type_partial_charge
C1    C     C_R   0.726997 0.954202 0.853517 0.555342
C2    C     C_R   0.273005 0.954342 0.146473 0.555376
C3    C     C_R   0.226998 0.454202 0.853517 0.555349
C4    C     C_R   0.773004 0.454340 0.146475 0.555380
C5    C     C_R   0.697459 0.457517 0.038994 -0.156414
C6    C     C_R   0.302725 0.457097 0.960834 -0.156693
C7    C     C_R   0.197457 0.957503 0.038994 -0.156408
C8    C     C_R   0.802728 0.957078 0.960832 -0.156686
C9    C     C_R   0.757098 0.412768 0.074454 -0.000273
C10   C     C_R   0.242859 0.412599 0.925552 -0.000197
C11   C     C_R   0.257104 0.912778 0.074450 -0.000270
C12   C     C_R   0.742856 0.912599 0.925552 -0.000195
C13   C     C_R   0.810813 0.353606 0.035424 0.092178
C14   C     C_R   0.188967 0.353824 0.964755 0.091915
C15   C     C_R   0.310827 0.853645 0.035414 0.092169
C16   C     C_R   0.688960 0.853839 0.964759 0.091898
C17   C     C_R   0.812265 0.367351 0.962044 0.097558
C18   C     C_R   0.187640 0.367810 0.038098 0.097735
C19   C     C_R   0.312273 0.867399 0.962035 0.097551
C20   C     C_R   0.687636 0.867827 0.038101 0.097721
C21   C     C_R   0.749810 0.403818 0.926306 0.005457
C22   C     C_R   0.250278 0.404045 0.073681 0.006544
C23   C     C_R   0.249810 0.903834 0.926302 0.005466
C24   C     C_R   0.750280 0.904045 0.073682 0.006555
C25   C     C_R   0.480896 0.281545 0.542811 -0.097659
C26   C     C_R   0.459261 0.283143 0.473855 -0.106760
C27   C     C_R   0.980895 0.781543 0.542811 -0.097657
C28   C     C_R   0.959263 0.783143 0.473855 -0.106762
C29   C     C_R   0.449109 0.173932 0.437662 0.012245
C30   C     C_R   0.491601 0.170930 0.578265 0.023049
C31   C     C_R   0.949105 0.673934 0.437663 0.012243
C32   C     C_R   0.991591 0.670928 0.578269 0.023047
C33   C     C_R   0.454897 0.062119 0.473637 -0.122728
C34   C     C_R   0.476415 0.060415 0.544378 -0.119689
C35   C     C_R   0.954882 0.562121 0.473641 -0.122727
C36   C     C_R   0.976397 0.560415 0.544384 -0.119684
C37   C     C_R   0.789301 0.295203 0.526575 -0.119821
C38   C     C_R   0.202818 0.322408 0.469888 -0.112762
C39   C     C_R   0.289304 0.795209 0.526576 -0.119814
C40   C     C_R   0.702808 0.822429 0.469884 -0.112759
C41   C     C_R   0.798294 0.317372 0.455227 0.047168
C42   C     C_R   0.201646 0.325726 0.543001 0.061950
C43   C     C_R   0.298296 0.817377 0.455228 0.047173
C44   C     C_R   0.701637 0.825739 0.542997 0.061948
C45   C     C_R   0.529981 0.177861 0.850669 0.556326
C46   C     C_R   0.469948 0.178053 0.149284 0.565262
C47   C     C_R   0.029982 0.677861 0.850670 0.556320
C48   C     C_R   0.969946 0.678052 0.149283 0.565259
C49   C     C_R   0.749184 0.393293 0.418637 0.033698
C50   C     C_R   0.249715 0.402422 0.579688 0.039212
C51   C     C_R   0.249185 0.893293 0.418637 0.033700
C52   C     C_R   0.749712 0.902424 0.579687 0.039208
C53   C     C_R   0.685441 0.424965 0.453200 0.130167
C54   C     C_R   0.307069 0.453465 0.542318 0.109500
C55   C     C_R   0.185440 0.924961 0.453199 0.130161
C56   C     C_R   0.807069 0.953461 0.542318 0.109499
C57   C     C_R   0.676380 0.395469 0.524907 -0.099347
C58   C     C_R   0.308946 0.444192 0.468556 -0.120163
C59   C     C_R   0.176380 0.895465 0.524906 -0.099347
C60   C     C_R   0.808948 0.944189 0.468555 -0.120156
C61   C     C_R   0.730378 0.337024 0.562754 -0.037108
C62   C     C_R   0.255251 0.383593 0.431724 -0.032957
C63   C     C_R   0.230379 0.837024 0.562754 -0.037104
C64   C     C_R   0.755248 0.883603 0.431722 -0.032952
C65   C     C_R   0.738746 0.363663 0.853115 0.569791
C66   C     C_R   0.261275 0.363850 0.146892 0.565340
C67   C     C_R   0.238746 0.863667 0.853113 0.569797
C68   C     C_R   0.761275 0.863850 0.146892 0.565345
C69   C     C_R   0.729080 0.951273 0.648905 0.567365
C70   C     C_R   0.271184 0.951158 0.351476 0.560935
C71   C     C_R   0.229080 0.451273 0.648905 0.567369
C72   C     C_R   0.771184 0.451158 0.351476 0.560934
C73   C     C_R   0.528967 0.176477 0.645188 0.539864
C74   C     C_R   0.435708 0.180572 0.362168 0.549296
C75   C     C_R   0.028960 0.676476 0.645191 0.539854
C76   C     C_R   0.935706 0.680573 0.362168 0.549297
C77   C     C_R   0.725446 0.311922 0.639015 0.557711
C78   C     C_R   0.262127 0.356004 0.356266 0.549139
C79   C     C_R   0.225447 0.811922 0.639015 0.557716
C80   C     C_R   0.762126 0.856009 0.356265 0.549139
C81   C     C_2   0.496555 0.169644 0.920019 -0.105651
C82   C     C_2   0.503276 0.170118 0.079880 -0.106608
C83   C     C_2   0.996558 0.669648 0.920021 -0.105675
C84   C     C_2   0.003267 0.670115 0.079874 -0.106613
C85   C     C_2   0.488459 0.076378 0.036945 -0.133171
C86   C     C_2   0.511552 0.076303 0.963209 -0.131683
C87   C     C_2   0.988453 0.576365 0.036945 -0.133170
C88   C     C_2   0.011532 0.576283 0.963202 -0.131694
C89   C     C_R   0.692053 0.445428 0.965737 -0.151320
C90   C     C_R   0.308171 0.445168 0.034102 -0.150895
C91   C     C_R   0.192049 0.945415 0.965737 -0.151306
C92   C     C_R   0.808176 0.945147 0.034099 -0.150883
Cr1   Cr    Cr6+3 0.769270 0.163730 0.750710 1.103423
Cr2   Cr    Cr6+3 0.230730 0.163730 0.249290 1.104896
Cr3   Cr    Cr6+3 0.269270 0.663730 0.750710 1.103426
Cr4   Cr    Cr6+3 0.730730 0.663730 0.249290 1.104893
Cr5   Cr    Cr6+3 0.612620 0.009790 0.748780 1.096052
Cr6   Cr    Cr6+3 0.387380 0.009790 0.251220 1.099902
Cr7   Cr    Cr6+3 0.112620 0.509790 0.748780 1.096047
Cr8   Cr    Cr6+3 0.887380 0.509790 0.251220 1.099903
Cr9   Cr    Cr6+3 0.614160 0.322500 0.747710 1.082295
Cr10  Cr    Cr6+3 0.385840 0.322500 0.252290 1.080663
Cr11  Cr    Cr6+3 0.114160 0.822500 0.747710 1.082302
Cr12  Cr    Cr6+3 0.885840 0.822500 0.252290 1.080669
H1    H     H_    0.458939 0.997973 0.055804 0.209098
H2    H     H_    0.541229 0.998174 0.944570 0.209235
H3    H     H_    0.958944 0.497952 0.055813 0.209093
H4    H     H_    0.041180 0.498131 0.944553 0.209252
H5    H     H_    0.627963 0.420857 0.551325 0.180549
H6    H     H_    0.353333 0.480934 0.440086 0.182906
H7    H     H_    0.127963 0.920850 0.551323 0.180547
H8    H     H_    0.853338 0.980922 0.440087 0.182904
H9    H     H_    0.532541 0.248388 0.060064 0.117628
H10   H     H_    0.467131 0.247634 0.939627 0.117279
H11   H     H_    0.032523 0.748389 0.060051 0.117614
H12   H     H_    0.967158 0.747657 0.939639 0.117274
H13   H     H_    0.642582 0.467452 0.940043 0.179818
H14   H     H_    0.357777 0.466904 0.059683 0.179635
H15   H     H_    0.142572 0.967413 0.940047 0.179813
H16   H     H_    0.857787 0.966862 0.059677 0.179631
H17   H     H_    0.654957 0.500625 0.067900 0.173859
H18   H     H_    0.345364 0.499874 0.931778 0.173267
H19   H     H_    0.154950 0.000586 0.067904 0.173849
H20   H     H_    0.845371 0.999840 0.931773 0.173263
H21   H     H_    0.494976 0.368174 0.566112 0.204816
H22   H     H_    0.455527 0.370789 0.447763 0.187380
H23   H     H_    0.994979 0.868171 0.566111 0.204813
H24   H     H_    0.955537 0.870790 0.447761 0.187387
H25   H     H_    0.446434 0.976992 0.446304 0.178605
H26   H     H_    0.484861 0.973954 0.570892 0.168548
H27   H     H_    0.946411 0.476994 0.446310 0.178599
H28   H     H_    0.984834 0.473955 0.570901 0.168539
H29   H     H_    0.830255 0.247074 0.554433 0.215191
H30   H     H_    0.163933 0.266233 0.443216 0.207983
H31   H     H_    0.330258 0.747084 0.554434 0.215194
H32   H     H_    0.663915 0.766268 0.443210 0.207983
O1    O     O_R   0.784320 0.290430 0.830510 -0.473415
O2    O     O_R   0.215680 0.290430 0.169490 -0.474102
O3    O     O_R   0.284320 0.790430 0.830510 -0.473415
O4    O     O_R   0.715680 0.790430 0.169490 -0.474104
O5    O     O_R   0.554640 0.080370 0.673500 -0.496542
O6    O     O_R   0.445360 0.080370 0.326500 -0.484557
O7    O     O_R   0.054640 0.580370 0.673500 -0.496538
O8    O     O_R   0.945360 0.580370 0.326500 -0.484550
O9    O     O_R   0.543920 0.282180 0.666790 -0.518694
O10   O     O_R   0.456080 0.282180 0.333210 -0.483282
O11   O     O_R   0.043920 0.782180 0.666790 -0.518689
O12   O     O_R   0.956080 0.782180 0.333210 -0.483281
O13   O     O_R   0.679040 0.374160 0.674430 -0.480597
O14   O     O_R   0.320960 0.374160 0.325570 -0.513559
O15   O     O_R   0.179040 0.874160 0.674430 -0.480591
O16   O     O_R   0.820960 0.874160 0.325570 -0.513558
O17   O     O_3   0.665350 0.165340 0.749070 -0.304593
O18   O     O_3   0.334650 0.165340 0.250930 -0.309347
O19   O     O_3   0.165350 0.665340 0.749070 -0.304589
O20   O     O_3   0.834650 0.665340 0.250930 -0.309348
O21   O     O_R   0.762640 0.040960 0.825200 -0.497351
O22   O     O_R   0.237360 0.040960 0.174800 -0.495438
O23   O     O_R   0.262640 0.540960 0.825200 -0.497358
O24   O     O_R   0.737360 0.540960 0.174800 -0.495445
O25   O     O_R   0.667400 0.923970 0.829950 -0.476324
O26   O     O_R   0.332600 0.923970 0.170050 -0.476643
O27   O     O_R   0.167400 0.423970 0.829950 -0.476320
O28   O     O_R   0.832600 0.423970 0.170050 -0.476642
O29   O     O_R   0.553960 0.081340 0.821780 -0.479097
O30   O     O_R   0.446040 0.081340 0.178220 -0.474807
O31   O     O_R   0.053960 0.581340 0.821780 -0.479112
O32   O     O_R   0.946040 0.581340 0.178220 -0.474814
O33   O     O_R   0.543180 0.283240 0.826740 -0.501910
O34   O     O_R   0.456820 0.283240 0.173260 -0.497682
O35   O     O_R   0.043180 0.783240 0.826740 -0.501910
O36   O     O_R   0.956820 0.783240 0.173260 -0.497680
O37   O     O_R   0.678360 0.375140 0.822710 -0.492785
O38   O     O_R   0.321640 0.375140 0.177290 -0.496378
O39   O     O_R   0.178360 0.875140 0.822710 -0.492785
O40   O     O_R   0.821640 0.875140 0.177290 -0.496376
O41   O     O_R   0.785050 0.289380 0.670560 -0.481320
O42   O     O_R   0.214950 0.289380 0.329440 -0.490499
O43   O     O_R   0.285050 0.789380 0.670560 -0.481318
O44   O     O_R   0.714950 0.789380 0.329440 -0.490500
O45   O     O_R   0.763320 0.039990 0.676930 -0.476036
O46   O     O_R   0.236680 0.039990 0.323070 -0.463418
O47   O     O_R   0.263320 0.539990 0.676930 -0.476037
O48   O     O_R   0.736680 0.539990 0.323070 -0.463414
O49   O     O_R   0.668130 0.922920 0.670000 -0.484266
O50   O     O_R   0.331870 0.922920 0.330000 -0.496516
O51   O     O_R   0.168130 0.422920 0.670000 -0.484261
O52   O     O_R   0.831870 0.422920 0.330000 -0.496517
I1    I     I_    0.891203 0.231000 0.413480 -0.291101
I2    I     I_    0.125785 0.206163 0.590503 -0.255248
I3    I     I_    0.391207 0.731008 0.413483 -0.291107
I4    I     I_    0.625768 0.706181 0.590492 -0.255254
Br1   Br    Br    0.608107 0.505139 0.406346 -0.459776
Br2   Br    Br    0.386243 0.528929 0.589170 -0.512311
Br3   Br    Br    0.108105 0.005129 0.406344 -0.459786
Br4   Br    Br    0.886243 0.028922 0.589172 -0.512313
I5    I     I_    0.886072 0.230597 0.083293 -0.280275
I6    I     I_    0.113295 0.230944 0.917218 -0.280683
I7    I     I_    0.386098 0.730645 0.083268 -0.280277
I8    I     I_    0.613276 0.730972 0.917228 -0.280676
I9    I     I_    0.911075 0.335253 0.908404 -0.267948
I10   I     I_    0.088828 0.336047 0.091973 -0.264746
I11   I     I_    0.411081 0.835348 0.908382 -0.267925
I12   I     I_    0.588826 0.836085 0.091984 -0.264746

loop_
_geom_bond_atom_site_label_1
_geom_bond_atom_site_label_2
_ccdc_geom_bond_type
C58   C62   A    
C69   O49   A    
C55   Br3   S    
C87   C88   S    
Cr6   O18   S    
Cr10  O34   S    
C54   Br2   S    
C55   C59   A    
C53   Br1   S    
Cr12  O12   S    
Cr9   O37   S    
C35   C36   A    
C84   C87   D    
C21   C65   S    
C2    O26   A    
C32   C75   S    
Cr7   O51   S    
C71   O51   A    
C68   O40   A    
Cr11  O11   S    
Cr12  O40   S    
C73   O5    A    
C85   C86   S    
C91   H15   S    
C15   C19   A    
C14   I6    S    
Cr9   O9    S    
C50   C54   A    
C13   I5    S    
Cr3   O23   S    
C80   O44   A    
Cr7   O7    S    
Cr8   O52   S    
C38   C42   A    
C36   H28   S    
C26   H22   S    
C88   H4    S    
C49   C53   A    
C33   H25   S    
C66   O2    A    
C5    H17   S    
C15   I7    S    
Cr2   O42   S    
C23   C67   S    
C57   C61   A    
C25   H21   S    
C72   O52   A    
C9    C13   A    
C52   C69   S    
C46   C82   S    
C11   C15   A    
C70   O46   A    
C57   H5    S    
C12   C16   A    
C29   C33   A    
C61   C77   S    
C49   C72   S    
Cr7   O19   S    
C81   H10   S    
C59   H7    S    
C4    O28   A    
Cr9   O33   S    
C8    C92   A    
C51   C70   S    
Cr5   O17   S    
C67   O3    A    
Cr10  O18   S    
C51   C55   A    
C81   C86   D    
C16   I8    S    
C16   C20   A    
Cr12  O36   S    
C65   O1    A    
Cr8   O20   S    
C83   C88   D    
C74   O6    A    
C43   I3    S    
Cr2   O22   S    
C56   Br4   S    
Cr6   O6    S    
C3    O23   A    
C47   O35   A    
C64   C80   S    
C78   O42   A    
C86   H2    S    
C1    C12   S    
Cr1   O45   S    
C7    H19   S    
Cr4   O48   S    
C85   H1    S    
C2    C11   S    
C24   C92   A    
C41   C49   A    
Cr6   O26   S    
C74   O10   A    
C7    C11   A    
Cr7   O31   S    
Cr1   O21   S    
Cr11  O39   S    
C30   C34   A    
C71   O47   A    
C20   I12   S    
Cr8   O28   S    
C10   C14   A    
C67   O39   A    
C30   C73   S    
C53   C57   A    
C19   C23   A    
C8    H20   S    
C34   H26   S    
C21   C89   A    
C29   C74   S    
C75   O11   A    
C25   C26   A    
C6    C90   A    
C24   C68   S    
Cr1   O17   S    
Cr12  O20   S    
C48   C84   S    
C73   O9    A    
Cr2   O46   S    
Cr5   O49   S    
C50   C71   S    
C5    C9    A    
C60   H8    S    
C47   O31   A    
C42   I2    S    
C37   C61   A    
C48   O32   A    
Cr9   O17   S    
C8    C12   A    
C7    C91   A    
Cr11  O15   S    
C19   I11   S    
C33   C34   A    
C22   C90   A    
C87   H3    S    
C1    O21   A    
C18   I10   S    
C78   O14   A    
Cr4   O44   S    
C17   I9    S    
C39   H31   S    
Cr5   O5    S    
Cr8   O32   S    
Cr6   O30   S    
C75   O7    A    
C42   C50   A    
Cr7   O27   S    
C76   O8    A    
Cr3   O43   S    
Cr4   O24   S    
Cr10  O14   S    
C84   H11   S    
Cr5   O25   S    
Cr8   O8    S    
Cr2   O2    S    
C23   C91   A    
C68   O4    A    
C6    H18   S    
C77   O13   A    
C90   H14   S    
C48   O36   A    
C79   O15   A    
C54   C58   A    
Cr11  O19   S    
C25   C30   A    
C80   O16   A    
Cr1   O41   S    
C46   O30   A    
C65   O37   A    
C27   C32   A    
C58   H6    S    
C72   O48   A    
C59   C63   A    
C83   H12   S    
C62   C78   S    
C28   C31   A    
C45   C81   S    
C82   H9    S    
C89   H13   S    
C45   O33   A    
C44   C52   A    
Cr4   O4    S    
C39   C43   A    
C41   I1    S    
C32   C36   A    
C22   C66   S    
C63   C79   S    
C3    O27   A    
Cr10  O38   S    
C82   C85   D    
C39   C63   A    
Cr3   O3    S    
C40   C64   A    
C13   C17   A    
C60   C64   A    
Cr12  O16   S    
C18   C22   A    
C92   H16   S    
C35   H27   S    
Cr6   O50   S    
C3    C10   S    
Cr10  O10   S    
C4    O24   A    
Cr2   O18   S    
Cr11  O35   S    
Cr3   O47   S    
C31   C76   S    
Cr4   O20   S    
C52   C56   A    
C43   C51   A    
Cr5   O29   S    
C31   C35   A    
Cr9   O13   S    
C14   C18   A    
Cr3   O19   S    
C38   H30   S    
C37   C41   A    
C37   H29   S    
C77   O41   A    
C27   H23   S    
Cr1   O1    S    
C6    C10   A    
C70   O50   A    
C1    O25   A    
C47   C83   S    
C46   O34   A    
C40   C44   A    
C79   O43   A    
C56   C60   A    
C2    O22   A    
C76   O12   A    
C26   C29   A    
C44   I4    S    
C27   C28   A    
C66   O38   A    
C40   H32   S    
C4    C9    S    
C45   O29   A    
C20   C24   A    
C5    C89   A    
C28   H24   S    
C69   O45   A    
C38   C62   A    
C17   C21   A    
