data_mof_unit_3924.cif
_audit_creation_date              2012-12-10T18:52:57-0500
_audit_creation_method            fapswitch 2.2
_symmetry_space_group_name_H-M    P1
_symmetry_Int_Tables_number       1
_space_group_crystal_system       triclinic
_cell_length_a                    9.90359
_cell_length_b                    10.63711
_cell_length_c                    16.877028
_cell_angle_alpha                 90.167175
_cell_angle_beta                  86.243574
_cell_angle_gamma                 89.496672
_cell_volume                      1774.0211969

loop_
_atom_site_label
_atom_site_type_symbol
_atom_type_description
_atom_site_fract_x
_atom_site_fract_y
_atom_site_fract_z
_atom_type_partial_charge
C1    C     C_R   0.499257 0.739446 0.497115 0.869161
C2    C     C_R   0.500780 0.260489 0.502652 0.861462
C3    C     C_R   0.548020 0.930723 0.562455 -0.152472
C4    C     C_R   0.450792 0.069168 0.437491 -0.147174
C5    C     C_R   0.556300 0.059713 0.564593 -0.040212
C6    C     C_R   0.444596 0.940035 0.434589 -0.055432
C7    C     C_R   0.504251 0.127939 0.501991 -0.095852
C8    C     C_R   0.495724 0.871917 0.497586 -0.125792
C9    C     C_R   0.931869 0.410303 0.458772 0.511647
C10   C     C_R   0.068141 0.588893 0.542292 0.488511
C11   C     C_R   0.076141 0.409814 0.459081 -0.179280
C12   C     C_R   0.923431 0.588035 0.542838 -0.179578
C13   C     C_R   0.482611 0.495845 0.652774 0.894513
C14   C     C_R   0.517129 0.507809 0.347250 0.895511
C15   C     C_R   0.474245 0.480052 0.738625 -0.139868
C16   C     C_R   0.524325 0.537114 0.262331 -0.120772
C17   C     C_R   0.582009 0.423244 0.776488 0.547563
C18   C     C_R   0.409482 0.583386 0.225770 0.543585
C19   C     C_R   0.567529 0.406447 0.858510 -0.214426
C20   C     C_R   0.423170 0.614378 0.145433 -0.259989
C21   C     C_R   0.456381 0.457425 0.902558 0.056296
C22   C     C_R   0.542650 0.586866 0.100359 0.041479
C23   C     C_R   0.346926 0.512553 0.865321 0.029393
C24   C     C_R   0.659634 0.545077 0.136398 0.039773
C25   C     C_R   0.356962 0.521025 0.782644 -0.289380
C26   C     C_R   0.648661 0.524004 0.218233 -0.302916
C27   C     C_2   0.472012 0.469673 0.987042 -0.116661
C28   C     C_2   0.529686 0.575859 0.015280 -0.105355
H1    H     H_    0.736482 0.492646 0.247347 0.186287
H2    H     H_    0.275066 0.563521 0.752259 0.235601
H3    H     H_    0.337558 0.651209 0.115856 0.171243
H4    H     H_    0.646992 0.361195 0.889500 0.150061
H5    H     H_    0.584439 0.875411 0.610749 0.180140
H6    H     H_    0.413363 0.124569 0.389666 0.167363
N1    N     N_R   0.142790 0.500030 0.500020 -0.159607
N2    N     N_R   0.857210 0.499970 0.499980 -0.168906
O1    O     O_R   0.385380 0.683250 0.500010 -0.568173
O2    O     O_R   0.614620 0.316750 0.499990 -0.521871
O3    O     O_R   0.614710 0.683220 0.500000 -0.606419
O4    O     O_R   0.385290 0.316780 0.500000 -0.625539
O5    O     O_R   0.371780 0.500040 0.615800 -0.600843
O6    O     O_R   0.628220 0.499960 0.384200 -0.638606
O7    O     O_R   0.601110 0.500010 0.615800 -0.542076
O8    O     O_R   0.398890 0.499990 0.384200 -0.517051
Zn1   Zn    Zn3+2 0.346870 0.500020 0.500000 1.058202
Zn2   Zn    Zn3+2 0.653130 0.499980 0.500000 1.058075
O9    O     O_3   0.694828 0.378352 0.731099 -0.581080
C29   C     C_3   0.817036 0.398886 0.767763 -0.122525
H7    H     H_    0.837228 0.320588 0.808847 0.136250
H8    H     H_    0.818186 0.491142 0.799178 0.193143
H9    H     H_    0.901151 0.399363 0.720988 0.208663
O10   O     O_3   0.289090 0.606134 0.270923 -0.571935
C30   C     C_3   0.175397 0.563369 0.232654 -0.106136
H10   H     H_    0.194444 0.471299 0.202066 0.186808
H11   H     H_    0.141078 0.635315 0.190703 0.161910
H12   H     H_    0.091341 0.550161 0.278388 0.177017
C31   C     C_2   0.570531 0.688329 0.966093 1.004155
O11   O     O_2   0.588309 0.788772 0.999194 -0.596436
O12   O     O_R   0.592465 0.680554 0.883544 -0.811904
H13   H     H_    0.620575 0.763599 0.858480 0.352850
C32   C     C_2   0.429844 0.357293 0.035802 0.975051
O13   O     O_2   0.473265 0.338055 0.100850 -0.635837
O14   O     O_R   0.341907 0.270384 0.004811 -0.762986
H14   H     H_    0.320814 0.197647 0.042163 0.359232
C33   C     C_2   0.224193 0.564876 0.910211 0.908395
O15   O     O_2   0.202334 0.543368 0.980996 -0.638503
O16   O     O_R   0.131763 0.638210 0.870837 -0.794631
H15   H     H_    0.052710 0.668596 0.907327 0.359691
C34   C     C_2   0.790837 0.515952 0.090671 0.938194
O17   O     O_2   0.886431 0.474109 0.125084 -0.641879
O18   O     O_R   0.806664 0.535852 0.008764 -0.820769
H16   H     H_    0.899723 0.510341 0.985246 0.361385
C35   C     C_2   0.620284 0.117952 0.632181 0.918825
O19   O     O_2   0.712377 0.192498 0.620128 -0.530999
O20   O     O_R   0.581267 0.080672 0.709630 -0.803735
H17   H     H_    0.634768 0.124004 0.750841 0.360928
C36   C     C_2   0.385683 0.881531 0.365215 0.897021
O21   O     O_2   0.300243 0.800032 0.374749 -0.575847
O22   O     O_R   0.422536 0.925235 0.288860 -0.786821
H18   H     H_    0.374009 0.879711 0.246323 0.359650
O23   O     O_3   0.864172 0.313511 0.423838 -0.554250
C37   C     C_3   0.881387 0.320506 0.340251 -0.192049
H19   H     H_    0.958865 0.251009 0.317712 0.185823
H20   H     H_    0.909060 0.415610 0.317481 0.111098
H21   H     H_    0.784777 0.293966 0.315229 0.194662
O24   O     O_3   0.134762 0.668027 0.591953 -0.597216
C38   C     C_3   0.127681 0.794316 0.566403 -0.131828
H22   H     H_    0.051552 0.846949 0.604766 0.188408
H23   H     H_    0.106777 0.805331 0.502627 0.179154
H24   H     H_    0.225732 0.839935 0.575253 0.184331
C39   C     C_2   0.151882 0.306762 0.417965 1.008877
O25   O     O_2   0.145871 0.200687 0.445602 -0.609732
O26   O     O_R   0.221117 0.328315 0.344639 -0.807340
H25   H     H_    0.262021 0.248876 0.319607 0.332698
C40   C     C_2   0.845137 0.679796 0.592593 1.019236
O27   O     O_2   0.822856 0.784359 0.566419 -0.655757
O28   O     O_R   0.803588 0.649868 0.670815 -0.779975
H26   H     H_    0.751785 0.721171 0.699273 0.335099

loop_
_geom_bond_atom_site_label_1
_geom_bond_atom_site_label_2
_ccdc_geom_bond_type
C36   O21   D    
C38   H22   S    
O26   H25   S    
C1    C8    S    
C35   O19   D    
C2    C7    S    
C13   O5    A    
O23   C37   S    
C18   O10   S    
C28   C31   S    
O8    Zn1   S    
C19   C21   A    
C24   C26   A    
C31   O12   S    
C3    H5    S    
C32   O14   S    
O6    Zn2   S    
C34   O18   S    
C27   C32   S    
C29   H9    S    
C40   O27   D    
C33   O16   S    
C9    N2    A    
C12   C40   S    
N2    Zn2   S    
C10   N1    A    
C12   N2    A    
C18   C20   A    
C1    O1    A    
C14   O6    A    
C36   O22   S    
C21   C27   S    
O12   H13   S    
C22   C28   S    
C35   O20   S    
C32   O13   D    
C4    C7    A    
C19   H4    S    
C24   C34   S    
O28   H26   S    
C30   H11   S    
C21   C23   A    
C16   C26   A    
O4    Zn1   S    
C4    H6    S    
O16   H15   S    
C4    C6    A    
C3    C8    A    
C39   O25   D    
C5    C7    A    
O24   C38   S    
C6    C36   S    
C6    C8    A    
C30   H10   S    
O14   H14   S    
O20   H17   S    
C11   C39   S    
C39   O26   S    
C2    O2    A    
O9    C29   S    
C9    C11   A    
C10   C12   A    
O3    Zn2   S    
C29   H7    S    
C20   C22   A    
C37   H19   S    
C37   H20   S    
C13   C15   S    
C14   C16   S    
O1    Zn1   S    
N1    Zn1   S    
C13   O7    A    
O10   C30   S    
C14   O8    A    
C30   H12   S    
C25   H2    S    
C15   C17   A    
C10   O24   S    
C17   O9    S    
C3    C5    A    
C40   O28   S    
C37   H21   S    
C23   C33   S    
C11   N1    A    
O18   H16   S    
C31   O11   D    
C29   H8    S    
C17   C19   A    
C22   C24   A    
C23   C25   A    
C5    C35   S    
C34   O17   D    
O7    Zn2   S    
O2    Zn2   S    
C15   C25   A    
C1    O3    A    
O22   H18   S    
C2    O4    A    
C26   H1    S    
C16   C18   A    
C33   O15   D    
C38   H24   S    
C27   C28   D    
C38   H23   S    
O5    Zn1   S    
C9    O23   S    
C20   H3    S    
