data_mof_unit_698.cif
_audit_creation_date              2012-12-10T17:37:19-0500
_audit_creation_method            fapswitch 2.2
_symmetry_space_group_name_H-M    P1
_symmetry_Int_Tables_number       1
_space_group_crystal_system       triclinic
_cell_length_a                    12.32305
_cell_length_b                    13.082492
_cell_length_c                    15.842586
_cell_angle_alpha                 77.795095
_cell_angle_beta                  100.925262
_cell_angle_gamma                 116.115353
_cell_volume                      2227.91667784

loop_
_atom_site_label
_atom_site_type_symbol
_atom_type_description
_atom_site_fract_x
_atom_site_fract_y
_atom_site_fract_z
_atom_type_partial_charge
C1    C     C_R   0.855369 0.286459 0.505305 0.775359
C2    C     C_3   0.999137 0.499398 0.917213 0.157620
C3    C     C_3   0.098676 0.590146 0.026969 -0.179561
C4    C     C_3   0.000457 0.499219 0.083097 0.170104
C5    C     C_3   0.996876 0.597472 0.954810 -0.180982
C6    C     C_3   0.898793 0.506881 0.012577 -0.145494
C7    C     C_1   0.998347 0.499623 0.825274 -0.084559
C8    C     C_1   0.001046 0.499333 0.174857 -0.076450
C9    C     C_R   0.277006 0.040859 0.427467 -0.219691
C10   C     C_R   0.228672 0.838934 0.479868 -0.091927
C11   C     C_R   0.819623 0.081439 0.544758 -0.207589
C12   C     C_R   0.999349 0.499800 0.659986 0.823669
C13   C     C_R   0.742365 0.965265 0.556539 -0.156330
C14   C     C_R   0.618164 0.928943 0.531596 -0.177603
C15   C     C_R   0.568870 0.008660 0.489594 0.087288
C16   C     C_R   0.650446 0.125553 0.468596 0.083054
C17   C     C_R   0.441372 0.978048 0.470869 0.067741
C18   C     C_R   0.399728 0.064048 0.432597 0.135807
C19   C     C_R   0.481310 0.173136 0.400347 -0.231818
C20   C     C_R   0.604755 0.201536 0.414272 -0.199990
C21   C     C_R   0.353819 0.865610 0.490551 -0.284634
C22   C     C_R   0.190930 0.930515 0.455103 0.093595
C23   C     C_R   0.145026 0.714697 0.490310 0.790016
C24   C     C_R   0.774666 0.163220 0.503492 -0.103341
C25   C     C_R   0.347902 0.329725 0.639382 -0.307227
C26   C     C_R   0.754298 0.637790 0.378306 0.080359
C27   C     C_R   0.655587 0.666120 0.350384 -0.268632
C28   C     C_R   0.554917 0.615469 0.396931 -0.199596
C29   C     C_R   0.550504 0.533130 0.471274 -0.007727
C30   C     C_R   0.653762 0.506159 0.497026 0.281969
C31   C     C_R   0.446985 0.474943 0.519841 -0.039919
C32   C     C_R   0.447856 0.389300 0.591362 0.176124
C33   C     C_R   0.548323 0.363293 0.614664 -0.280656
C34   C     C_R   0.000585 0.500110 0.340029 0.823174
C35   C     C_R   0.649002 0.420707 0.568919 -0.176565
C36   C     C_R   0.341685 0.497378 0.500857 0.016546
C37   C     C_R   0.247386 0.355579 0.617184 0.068148
C38   C     C_3   0.002550 0.400796 0.045820 -0.177630
C39   C     C_3   0.901086 0.408796 0.973578 -0.182100
C40   C     C_1   0.998375 0.499779 0.749623 -0.185719
C41   C     C_1   0.001207 0.499612 0.250450 -0.189149
C42   C     C_3   0.099601 0.491818 0.988275 0.138797
Cu1   Cu    Cu3+1 0.098270 0.475420 0.519690 0.931049
Cu2   Cu    Cu3+1 0.901730 0.524580 0.480310 0.914588
H1    H     H_    0.819952 0.334744 0.950339 0.133094
H2    H     H_    0.381565 0.796477 0.513255 0.162911
H3    H     H_    0.914464 0.107382 0.570152 0.152583
H4    H     H_    0.563878 0.838153 0.547169 0.127216
H5    H     H_    0.778339 0.903132 0.588617 0.141535
H6    H     H_    0.663038 0.284232 0.382325 0.179768
H7    H     H_    0.169983 0.310030 0.654080 0.121326
H8    H     H_    0.549351 0.297603 0.669185 0.150169
H9    H     H_    0.347674 0.263737 0.693902 0.133753
H10   H     H_    0.333667 0.561845 0.448313 0.122248
H11   H     H_    0.830744 0.675692 0.340767 0.128685
H12   H     H_    0.005292 0.320381 0.084353 0.124349
H13   H     H_    0.481122 0.640594 0.372289 0.135512
H14   H     H_    0.657041 0.727408 0.292294 0.146131
H15   H     H_    0.720499 0.393660 0.591836 0.207573
H16   H     H_    0.815937 0.513084 0.024112 0.131564
H17   H     H_    0.994162 0.677860 0.916218 0.133518
H18   H     H_    0.179866 0.664233 0.050120 0.123874
H19   H     H_    0.449682 0.237105 0.364618 0.146316
H20   H     H_    0.248693 0.110590 0.404630 0.135961
N1    N     N_R   0.246280 0.438200 0.549540 -0.177663
N2    N     N_R   0.754330 0.561180 0.450980 -0.208253
O1    O     O_R   0.972510 0.318130 0.524770 -0.582297
O2    O     O_R   0.806530 0.359650 0.491510 -0.604241
O3    O     O_R   0.082970 0.479240 0.637550 -0.574175
O4    O     O_R   0.916990 0.520750 0.604290 -0.595173
O5    O     O_R   0.193470 0.640350 0.508490 -0.585124
O6    O     O_R   0.027490 0.681870 0.475230 -0.587451
O7    O     O_R   0.083010 0.479250 0.395710 -0.576592
O8    O     O_R   0.917030 0.520760 0.362450 -0.589978
C43   C     C_3   0.213611 0.483287 0.972404 -0.419488
C44   C     C_3   0.295400 0.477166 0.057454 -0.342863
C45   C     C_3   0.409288 0.468762 0.041516 -0.851356
H21   H     H_    0.384109 0.389958 0.012554 0.252112
H22   H     H_    0.462932 0.545509 0.997072 0.252655
H23   H     H_    0.466690 0.464485 0.104144 0.240918
H24   H     H_    0.323212 0.555377 0.087973 0.216767
H25   H     H_    0.244751 0.400576 0.103358 0.216558
H26   H     H_    0.185566 0.404982 0.941983 0.198375
H27   H     H_    0.264177 0.559915 0.926531 0.200613
C46   C     C_3   0.065656 0.920381 0.462521 -0.389659
C47   C     C_3   0.995442 0.932443 0.372834 -0.346761
C48   C     C_3   0.877106 0.938953 0.380510 -0.840292
H28   H     H_    0.822356 0.865035 0.426351 0.267248
H29   H     H_    0.897260 0.020126 0.404297 0.261432
H30   H     H_    0.823207 0.937782 0.315788 0.235227
H31   H     H_    0.050781 0.011962 0.331400 0.212330
H32   H     H_    0.975862 0.858412 0.339959 0.214776
H33   H     H_    0.011629 0.840478 0.503548 0.216341
H34   H     H_    0.077325 0.990723 0.497310 0.187807

loop_
_geom_bond_atom_site_label_1
_geom_bond_atom_site_label_2
_ccdc_geom_bond_type
Cu1   O7    S    
C48   H28   S    
C3    C42   S    
C9    H20   S    
Cu2   N2    S    
C19   C20   A    
C4    C8    S    
C26   H11   S    
C28   H13   S    
C10   C22   A    
C33   H8    S    
C26   C27   A    
C30   C35   A    
C28   C29   A    
C25   H9    S    
C38   C42   S    
C47   H31   S    
C46   C47   S    
C5    C6    S    
C37   H7    S    
C43   H27   S    
C3    H18   S    
C15   C16   A    
C11   C24   A    
C1    O2    A    
C35   H15   S    
C18   C19   A    
C22   C46   S    
C43   C44   S    
C25   C37   A    
C11   H3    S    
C2    C39   S    
C2    C7    S    
C19   H19   S    
C37   N1    A    
C20   H6    S    
C7    C40   T    
Cu2   O4    S    
C16   C20   A    
C39   H1    S    
C25   C32   A    
C16   C24   A    
C13   C14   A    
C34   C41   S    
C46   H33   S    
C45   H22   S    
C10   C21   A    
C26   N2    A    
C6    H16   S    
C44   C45   S    
C4    C6    S    
C44   H25   S    
C47   C48   S    
C14   H4    S    
C45   H21   S    
C17   C21   A    
C12   C40   S    
Cu1   Cu2   S    
C29   C30   A    
C23   O5    A    
C46   H34   S    
C31   C32   A    
C14   C15   A    
Cu1   N1    S    
C17   C18   A    
C42   C43   S    
C5    H17   S    
C8    C41   T    
Cu2   O8    S    
C30   N2    A    
C34   O8    A    
C13   H5    S    
C12   O3    A    
C4    C38   S    
C48   H29   S    
Cu2   O2    S    
C2    C5    S    
C3    C4    S    
C21   H2    S    
C45   H23   S    
C15   C17   A    
C12   O4    A    
Cu1   O5    S    
C6    C39   S    
C23   O6    A    
C3    C5    S    
C27   H14   S    
C44   H24   S    
C10   C23   S    
C32   C33   A    
C36   N1    A    
C29   C31   A    
C47   H32   S    
C11   C13   A    
C33   C35   A    
C43   H26   S    
C38   C39   S    
C2    C42   S    
C1    O1    A    
Cu2   O6    S    
C9    C22   A    
C36   H10   S    
C34   O7    A    
C9    C18   A    
C38   H12   S    
C1    C24   S    
Cu1   O1    S    
C48   H30   S    
C27   C28   A    
C31   C36   A    
Cu1   O3    S    
