data_mof_unit_2341.cif
_audit_creation_date              2012-12-10T17:02:11-0500
_audit_creation_method            fapswitch 2.2
_symmetry_space_group_name_H-M    P1
_symmetry_Int_Tables_number       1
_space_group_crystal_system       triclinic
_cell_length_a                    10.659544
_cell_length_b                    10.674551
_cell_length_c                    10.062654
_cell_angle_alpha                 89.341692
_cell_angle_beta                  89.627217
_cell_angle_gamma                 89.292023
_cell_volume                      1144.80142838

loop_
_atom_site_label
_atom_site_type_symbol
_atom_type_description
_atom_site_fract_x
_atom_site_fract_y
_atom_site_fract_z
_atom_type_partial_charge
C1    C     C_R   0.508346 0.262810 0.500764 0.958977
C2    C     C_2   0.537392 0.132331 0.504466 -0.378026
C3    C     C_2   0.597178 0.526872 0.924356 -0.100415
C4    C     C_R   0.260598 0.506991 0.500558 0.986587
C5    C     C_2   0.588400 0.547081 0.071756 0.086472
C6    C     C_R   0.504407 0.737426 0.498855 1.010204
C7    C     C_R   0.739245 0.498138 0.499381 0.895979
C8    C     C_R   0.117418 0.734009 0.589912 0.446861
C9    C     C_R   0.042302 0.838411 0.624027 -0.238087
C10   C     C_R   0.912943 0.833997 0.614503 -0.186089
C11   C     C_R   0.856188 0.725293 0.572786 -0.137216
C12   C     C_R   0.060104 0.622343 0.544115 0.046900
C13   C     C_R   0.928392 0.618173 0.538554 -0.023415
C14   C     C_3   0.866355 0.275781 0.275812 -0.733526
C15   C     C_R   0.127824 0.514050 0.502059 -0.119383
C16   C     C_R   0.068771 0.406695 0.458399 -0.295597
C17   C     C_R   0.940187 0.401980 0.455797 0.192249
C18   C     C_R   0.871345 0.506756 0.497370 -0.102573
C19   C     C_2   0.568493 0.932517 0.397538 0.462761
C20   C     C_2   0.508284 0.870380 0.495201 -0.361143
C21   C     C_2   0.557330 0.068688 0.392889 -0.274301
H1    H     H_    0.123212 0.325290 0.427607 0.147205
H2    H     H_    0.560061 0.115439 0.296403 0.188017
H3    H     H_    0.381582 0.377206 0.170422 0.375710
H4    H     H_    0.267601 0.820750 0.644370 0.318714
H5    H     H_    0.918683 0.210428 0.461403 0.224161
H6    H     H_    0.960004 0.265097 0.227756 0.230451
H7    H     H_    0.816807 0.358249 0.231785 0.261716
H8    H     H_    0.810487 0.191055 0.255599 0.231651
H9    H     H_    0.672342 0.931097 0.238472 0.325842
H10   H     H_    0.546610 0.089099 0.602157 0.153402
H11   H     H_    0.687358 0.540365 0.876177 0.142759
H12   H     H_    0.414050 0.509892 0.895324 0.242451
H13   H     H_    0.662158 0.600566 0.117374 0.104553
H14   H     H_    0.084419 0.924138 0.657714 0.133929
H15   H     H_    0.856187 0.915168 0.639985 0.156333
H16   H     H_    0.755203 0.726696 0.566695 0.144843
H17   H     H_    0.455409 0.916928 0.572920 0.101695
N1    N     N_2   0.501340 0.501330 0.852150 -0.168151
N2    N     N_2   0.501380 0.501360 0.147810 0.045906
N3    N     N_2   0.879817 0.289674 0.417813 -0.314805
O1    O     O_R   0.499980 0.319060 0.613040 -0.614451
O2    O     O_3   0.245587 0.740765 0.601740 -0.791604
O3    O     O_3   0.634051 0.868728 0.299708 -0.758788
O4    O     O_R   0.500020 0.319100 0.386900 -0.621197
O5    O     O_R   0.316750 0.499980 0.613090 -0.584989
O6    O     O_R   0.316790 0.500020 0.386950 -0.637479
O7    O     O_R   0.499980 0.680900 0.613100 -0.613892
O8    O     O_R   0.500020 0.680940 0.386960 -0.559071
O9    O     O_R   0.683210 0.499980 0.613050 -0.641213
O10   O     O_R   0.683250 0.500020 0.386910 -0.620587
O11   O     O_3   0.433052 0.409520 0.095739 -0.712481
Zn1   Zn    Zn3+2 0.499970 0.499970 0.650990 0.974221
Zn2   Zn    Zn3+2 0.500030 0.500030 0.349010 0.997930

loop_
_geom_bond_atom_site_label_1
_geom_bond_atom_site_label_2
_ccdc_geom_bond_type
H3    O11   S    
C16   H1    S    
C8    O2    S    
C14   H7    S    
C7    C18   S    
C14   H6    S    
C6    C20   S    
C9    C10   A    
C2    H10   S    
C19   C20   D    
C12   C15   A    
C8    C12   A    
O10   Zn2   S    
C1    O4    A    
C5    H13   S    
H4    O2    S    
C2    C21   D    
C17   C18   A    
C7    O10   A    
C3    H11   S    
O1    Zn1   S    
N1    Zn1   S    
C12   C13   A    
C11   C13   A    
H9    O3    S    
H12   N1    S    
C6    O7    A    
C13   C18   A    
C4    C15   S    
C14   N3    S    
O5    Zn1   S    
C19   C21   S    
O4    Zn2   S    
N2    Zn2   S    
C21   H2    S    
C6    O8    A    
O7    Zn1   S    
C4    O5    A    
C17   N3    S    
O9    Zn1   S    
C10   C11   A    
C14   H8    S    
C3    N1    D    
C15   C16   A    
C1    O1    A    
C20   H17   S    
C19   O3    S    
C7    O9    A    
C9    H14   S    
C1    C2    S    
C5    N2    D    
C11   H16   S    
C16   C17   A    
C10   H15   S    
O6    Zn2   S    
N2    O11   S    
O8    Zn2   S    
H5    N3    S    
C8    C9    A    
C3    C5    S    
C4    O6    A    
