data_mof_unit_535.cif
_audit_creation_date              2012-12-11T14:14:36-0500
_audit_creation_method            fapswitch 2.2
_symmetry_space_group_name_H-M    P1
_symmetry_Int_Tables_number       1
_space_group_crystal_system       triclinic
_cell_length_a                    24.407717
_cell_length_b                    17.433162
_cell_length_c                    15.475311
_cell_angle_alpha                 89.984755
_cell_angle_beta                  127.934562
_cell_angle_gamma                 89.98699
_cell_volume                      5193.52057981

loop_
_atom_site_label
_atom_site_type_symbol
_atom_type_description
_atom_site_fract_x
_atom_site_fract_y
_atom_site_fract_z
_atom_type_partial_charge
C1    C     C_R   0.335584 0.393439 0.201548 0.322581
C2    C     C_R   0.655696 0.369735 0.773626 0.307443
C3    C     C_R   0.844007 0.870311 0.226268 0.320869
C4    C     C_R   0.164538 0.893693 0.798684 0.322568
C5    C     C_R   0.401261 0.628062 0.596286 -0.237097
C6    C     C_R   0.601935 0.625741 0.405744 -0.239018
C7    C     C_R   0.898567 0.126746 0.594050 -0.246462
C8    C     C_R   0.098181 0.128961 0.403816 -0.228137
C9    C     C_R   0.339890 0.658836 0.508706 0.133751
C10   C     C_R   0.662785 0.656801 0.494326 0.126957
C11   C     C_R   0.838311 0.158848 0.505256 0.127590
C12   C     C_R   0.159396 0.159985 0.491457 0.131172
C13   C     C_R   0.374100 0.667801 0.185122 -0.166495
C14   C     C_R   0.642993 0.637631 0.854542 -0.210642
C15   C     C_R   0.852834 0.125417 0.135824 -0.170871
C16   C     C_R   0.126942 0.166076 0.817452 -0.167302
C17   C     C_2   0.663239 0.781910 0.430349 -0.304046
C18   C     C_2   0.338595 0.783583 0.573150 -0.312441
C19   C     C_2   0.161022 0.284750 0.427007 -0.307930
C20   C     C_2   0.837706 0.284045 0.569191 -0.300283
C21   C     C_2   0.699092 0.719282 0.488475 -0.219216
C22   C     C_2   0.303503 0.720361 0.516057 -0.217566
C23   C     C_2   0.195891 0.221433 0.484187 -0.221571
C24   C     C_2   0.802052 0.221436 0.511091 -0.228810
C25   C     C_2   0.198283 0.349157 0.421841 0.623148
C26   C     C_2   0.801542 0.348134 0.577264 0.620130
C27   C     C_2   0.699079 0.846654 0.422900 0.618649
C28   C     C_2   0.301622 0.848287 0.578417 0.625476
C29   C     C_2   0.262222 0.367834 0.513268 0.138962
C30   C     C_2   0.738342 0.370033 0.486357 0.131126
C31   C     C_2   0.762190 0.868385 0.513914 0.139986
C32   C     C_2   0.237723 0.867129 0.486967 0.138358
C33   C     C_2   0.651744 0.260851 0.879854 -0.223485
C34   C     C_2   0.318138 0.331806 0.040221 -0.241945
C35   C     C_2   0.182433 0.833148 0.961111 -0.242372
C36   C     C_2   0.846937 0.760840 0.120118 -0.243208
C37   C     C_2   0.695215 0.213677 0.880651 -0.040202
C38   C     C_2   0.269900 0.285348 0.023469 -0.031295
C39   C     C_2   0.231438 0.787288 0.979257 -0.029405
C40   C     C_2   0.802699 0.714884 0.119126 -0.024536
C41   C     C_2   0.340298 0.726037 0.101842 0.624461
C42   C     C_2   0.687859 0.672497 0.964773 0.671244
C43   C     C_2   0.805840 0.151308 0.020563 0.636965
C44   C     C_2   0.161315 0.223359 0.901856 0.625710
C45   C     C_R   0.613315 0.400072 0.405347 -0.124249
C46   C     C_R   0.386574 0.399594 0.594211 -0.133561
C47   C     C_R   0.113388 0.899190 0.405887 -0.135413
C48   C     C_R   0.886865 0.899701 0.594760 -0.123829
C49   C     C_2   0.286958 0.762070 0.086917 -0.359023
C50   C     C_2   0.757230 0.665111 0.025353 -0.335835
C51   C     C_2   0.737678 0.160730 0.971870 -0.351345
C52   C     C_2   0.214379 0.259631 0.916305 -0.358051
C53   C     C_R   0.687582 0.402478 0.586437 -0.142902
C54   C     C_R   0.312990 0.399163 0.412691 -0.132416
C55   C     C_R   0.186981 0.898913 0.587419 -0.131712
C56   C     C_R   0.812602 0.901692 0.413558 -0.141129
C57   C     C_R   0.561656 0.364386 0.767001 -0.243059
C58   C     C_R   0.428388 0.387318 0.205374 -0.232788
C59   C     C_R   0.071755 0.887454 0.794862 -0.231146
C60   C     C_R   0.938162 0.863975 0.233271 -0.243959
C61   C     C_R   0.359992 0.367619 0.145904 0.107930
C62   C     C_R   0.623885 0.328168 0.808756 0.113454
C63   C     C_R   0.875696 0.828056 0.191546 0.114497
C64   C     C_R   0.140251 0.867961 0.854566 0.107510
C65   C     C_R   0.682109 0.388162 0.493399 0.100137
C66   C     C_R   0.318237 0.386062 0.505941 0.104965
C67   C     C_R   0.181717 0.885588 0.494219 0.106054
C68   C     C_R   0.818199 0.887296 0.506740 0.099995
C69   C     C_R   0.321565 0.622428 0.414749 0.323188
C70   C     C_R   0.678810 0.622273 0.587638 0.334780
C71   C     C_R   0.822267 0.124352 0.411913 0.344185
C72   C     C_R   0.178062 0.123064 0.585338 0.325705
C73   C     C_R   0.433772 0.629482 0.221366 0.614279
C74   C     C_R   0.575095 0.613012 0.798621 0.607024
C75   C     C_R   0.922897 0.107805 0.197070 0.648149
C76   C     C_R   0.066760 0.128527 0.779963 0.617565
C77   C     C_R   0.664419 0.612608 0.794854 -0.271848
C78   C     C_R   0.344805 0.631093 0.227364 -0.275113
C79   C     C_R   0.155916 0.129823 0.774451 -0.274246
C80   C     C_R   0.833196 0.103687 0.199008 -0.282668
H1    H     H_    0.755116 0.715850 0.535854 0.158898
H2    H     H_    0.247610 0.715894 0.469633 0.161565
H3    H     H_    0.251783 0.216756 0.530708 0.161555
H4    H     H_    0.746093 0.217813 0.464340 0.155346
H5    H     H_    0.280033 0.763856 0.149956 0.131402
H6    H     H_    0.781088 0.632238 0.997014 0.122194
H7    H     H_    0.714989 0.140463 0.009609 0.124694
H8    H     H_    0.220831 0.261880 0.852744 0.131876
H9    H     H_    0.705952 0.221449 0.822900 0.162417
H10   H     H_    0.270088 0.268189 0.091361 0.181321
H11   H     H_    0.231661 0.769827 0.911876 0.181750
H12   H     H_    0.792034 0.722759 0.177025 0.171158
H13   H     H_    0.639429 0.252297 0.935794 0.142438
H14   H     H_    0.323113 0.346548 0.977084 0.146252
H15   H     H_    0.176930 0.848027 0.023627 0.146198
H16   H     H_    0.858267 0.752073 0.062997 0.143053
H17   H     H_    0.592118 0.403794 0.320231 0.106008
H18   H     H_    0.407166 0.403564 0.678973 0.103344
H19   H     H_    0.092766 0.902660 0.321084 0.103633
H20   H     H_    0.908060 0.903318 0.679879 0.104677
H21   H     H_    0.734761 0.412728 0.666875 0.179297
H22   H     H_    0.266196 0.402819 0.329991 0.174114
H23   H     H_    0.233762 0.902445 0.670149 0.174366
H24   H     H_    0.765368 0.910766 0.332762 0.177588
H25   H     H_    0.524992 0.349727 0.781703 0.123242
H26   H     H_    0.460847 0.384101 0.179925 0.114181
H27   H     H_    0.039363 0.884386 0.820444 0.113379
H28   H     H_    0.974754 0.848891 0.218571 0.125225
H29   H     H_    0.716770 0.612002 0.822431 0.155009
H30   H     H_    0.293378 0.639554 0.202038 0.167486
H31   H     H_    0.207659 0.137378 0.800729 0.167045
H32   H     H_    0.780980 0.094555 0.169848 0.152010
H33   H     H_    0.426403 0.639335 0.681475 0.185086
H34   H     H_    0.580695 0.634748 0.321910 0.191640
H35   H     H_    0.919782 0.135962 0.677829 0.188688
H36   H     H_    0.072737 0.140824 0.318657 0.189466
H37   H     H_    0.607084 0.783909 0.382957 0.153979
H38   H     H_    0.394593 0.786675 0.619256 0.151069
H39   H     H_    0.105012 0.288085 0.380619 0.159972
H40   H     H_    0.893851 0.286233 0.616544 0.155003
N1    N     N_R   0.389060 0.424180 0.294540 -0.054940
N2    N     N_R   0.610940 0.424180 0.705460 -0.054464
N3    N     N_R   0.889060 0.924180 0.294540 -0.055207
N4    N     N_R   0.110940 0.924180 0.705460 -0.054764
N5    N     N_R   0.579670 0.423790 0.443360 -0.042476
N6    N     N_R   0.420330 0.423790 0.556640 -0.042716
N7    N     N_R   0.079670 0.923790 0.443360 -0.042707
N8    N     N_R   0.920330 0.923790 0.556640 -0.042452
N9    N     N_R   0.625470 0.423490 0.556600 -0.045129
N10   N     N_R   0.374530 0.423490 0.443400 -0.044820
N11   N     N_R   0.125470 0.923490 0.556600 -0.044801
N12   N     N_R   0.874530 0.923490 0.443400 -0.044927
N13   N     N_R   0.555250 0.423100 0.705420 -0.061540
N14   N     N_R   0.444750 0.423100 0.294580 -0.058111
N15   N     N_R   0.055250 0.923100 0.705420 -0.057893
N16   N     N_R   0.944750 0.923100 0.294580 -0.062629
N17   N     N_R   0.375210 0.577180 0.443400 -0.053900
N18   N     N_R   0.624790 0.577180 0.556600 -0.055711
N19   N     N_R   0.875210 0.077180 0.443400 -0.055668
N20   N     N_R   0.124790 0.077180 0.556600 -0.054116
N21   N     N_R   0.445430 0.577570 0.294580 -0.105132
N22   N     N_R   0.554570 0.577570 0.705420 -0.101238
N23   N     N_R   0.945430 0.077570 0.294580 -0.106673
N24   N     N_R   0.054570 0.077570 0.705420 -0.104345
N25   N     N_R   0.611620 0.576500 0.705460 -0.052461
N26   N     N_R   0.388380 0.576500 0.294540 -0.054208
N27   N     N_R   0.111620 0.076500 0.705460 -0.054137
N28   N     N_R   0.888380 0.076500 0.294540 -0.054302
N29   N     N_R   0.421010 0.576890 0.556640 -0.062981
N30   N     N_R   0.578990 0.576890 0.443360 -0.065666
N31   N     N_R   0.921010 0.076890 0.556640 -0.064636
N32   N     N_R   0.078990 0.076890 0.443360 -0.063979
Ni1   Ni    Ni4+2 0.383200 0.500680 0.370150 0.207379
Ni2   Ni    Ni4+2 0.616800 0.500680 0.629850 0.203070
Ni3   Ni    Ni4+2 0.883200 0.000680 0.370150 0.201460
Ni4   Ni    Ni4+2 0.116800 0.000680 0.629850 0.208242
Ni5   Ni    Ni4+2 0.512440 0.500680 0.370150 0.194260
Ni6   Ni    Ni4+2 0.487560 0.500680 0.629850 0.196926
Ni7   Ni    Ni4+2 0.012440 0.000680 0.370150 0.197395
Ni8   Ni    Ni4+2 0.987560 0.000680 0.629850 0.194318
C81   C     C_3   0.261696 0.413722 0.150337 -1.063640
H41   H     H_    0.232873 0.428003 0.062388 0.263653
H42   H     H_    0.235894 0.365128 0.158603 0.252331
H43   H     H_    0.260061 0.465040 0.190612 0.251585
C82   C     C_3   0.732190 0.372720 0.830027 -1.028150
H44   H     H_    0.761851 0.359493 0.918492 0.274550
H45   H     H_    0.746389 0.330429 0.793308 0.250015
H46   H     H_    0.747258 0.431396 0.824078 0.243159
C83   C     C_3   0.767441 0.876145 0.167640 -1.062738
H47   H     H_    0.739229 0.867363 0.078685 0.265608
H48   H     H_    0.750325 0.832663 0.198759 0.261157
H49   H     H_    0.754008 0.934545 0.177777 0.243207
C84   C     C_3   0.238324 0.914451 0.849801 -1.063465
H50   H     H_    0.266936 0.929405 0.937475 0.263439
H51   H     H_    0.264596 0.865877 0.842497 0.253389
H52   H     H_    0.239638 0.965491 0.808740 0.251168
O1    O     O_3   0.169486 0.391354 0.326180 -0.641906
C85   C     C_3   0.124490 0.346829 0.230948 -0.279581
H53   H     H_    0.073946 0.337685 0.214983 0.167970
H54   H     H_    0.148611 0.291180 0.235601 0.151770
H55   H     H_    0.113749 0.378935 0.160103 0.171991
O2    O     O_3   0.830822 0.385946 0.676180 -0.647335
C86   C     C_3   0.869886 0.335788 0.766789 -0.266242
H56   H     H_    0.921024 0.322879 0.786432 0.151302
H57   H     H_    0.840935 0.282003 0.753316 0.142823
H58   H     H_    0.880113 0.364786 0.839218 0.187674
O3    O     O_3   0.669385 0.885762 0.324689 -0.648321
C87   C     C_3   0.629765 0.836723 0.232969 -0.270086
H59   H     H_    0.578820 0.823582 0.213813 0.152501
H60   H     H_    0.658418 0.783068 0.244689 0.158674
H61   H     H_    0.619169 0.866833 0.160920 0.175518
O4    O     O_3   0.330455 0.890460 0.674100 -0.641819
C88   C     C_3   0.376966 0.846610 0.769535 -0.288940
H62   H     H_    0.427226 0.838756 0.784115 0.152982
H63   H     H_    0.354119 0.790364 0.766244 0.156248
H64   H     H_    0.387943 0.878590 0.840601 0.172486
C89   C     C_3   0.281544 0.358956 0.626683 -1.084169
H65   H     H_    0.320252 0.312256 0.672289 0.257213
H66   H     H_    0.304480 0.413425 0.672678 0.263172
H67   H     H_    0.235791 0.346794 0.623816 0.272334
C90   C     C_3   0.719209 0.362947 0.372944 -1.066839
H68   H     H_    0.680316 0.316653 0.326014 0.256131
H69   H     H_    0.696564 0.417982 0.328361 0.261913
H70   H     H_    0.765047 0.351156 0.375894 0.274110
C91   C     C_3   0.781413 0.860556 0.627324 -1.090595
H71   H     H_    0.820632 0.814469 0.674034 0.260019
H72   H     H_    0.803689 0.915542 0.672154 0.257947
H73   H     H_    0.735675 0.848051 0.624365 0.272577
C92   C     C_3   0.218429 0.858230 0.373576 -1.086130
H74   H     H_    0.179677 0.811618 0.327967 0.257968
H75   H     H_    0.195562 0.912738 0.327549 0.263191
H76   H     H_    0.264189 0.845924 0.376502 0.271634
O5    O     O_3   0.352949 0.730172 0.026008 -0.591302
C93   C     C_3   0.397619 0.792825 0.054264 -0.184632
H77   H     H_    0.408942 0.795841 0.995084 0.155739
H78   H     H_    0.448021 0.785600 0.137480 0.141935
H79   H     H_    0.372980 0.847940 0.049630 0.123564
O6    O     O_3   0.659762 0.714052 0.005898 -0.595160
C94   C     C_3   0.619332 0.775523 0.934848 -0.217873
H80   H     H_    0.567144 0.755706 0.863713 0.163589
H81   H     H_    0.645407 0.806407 0.906054 0.106994
H82   H     H_    0.611481 0.817401 0.980309 0.158705
O7    O     O_3   0.834658 0.180732 0.973379 -0.587929
C95   C     C_3   0.826087 0.126369 0.898382 -0.192978
H83   H     H_    0.850081 0.070303 0.938570 0.140097
H84   H     H_    0.852492 0.148037 0.865127 0.162519
H85   H     H_    0.770358 0.117857 0.828147 0.106668
O8    O     O_3   0.149095 0.226803 0.978225 -0.592313
C96   C     C_3   0.104311 0.289228 0.950760 -0.184780
H86   H     H_    0.093340 0.291693 0.010385 0.156710
H87   H     H_    0.053751 0.282187 0.867739 0.144119
H88   H     H_    0.128654 0.344541 0.955360 0.123739
C97   C     C_3   0.248627 0.616527 0.311377 -1.049751
H89   H     H_    0.243817 0.569808 0.258833 0.252698
H90   H     H_    0.213335 0.602529 0.331671 0.267554
H91   H     H_    0.232167 0.672119 0.267026 0.246830
C98   C     C_3   0.750624 0.615964 0.693329 -1.046464
H92   H     H_    0.755873 0.562744 0.737202 0.250512
H93   H     H_    0.788871 0.612008 0.676892 0.260323
H94   H     H_    0.762821 0.667578 0.744239 0.248595
C99   C     C_3   0.751477 0.122347 0.303688 -1.043277
H95   H     H_    0.742290 0.065745 0.264103 0.248872
H96   H     H_    0.711131 0.129547 0.315157 0.254121
H97   H     H_    0.746011 0.169806 0.251108 0.253350
C100  C     C_3   0.251042 0.117527 0.688699 -1.052018
H98   H     H_    0.256344 0.070060 0.740727 0.252651
H99   H     H_    0.286519 0.104828 0.668368 0.265948
H100  H     H_    0.266889 0.172852 0.733553 0.247296
O9    O     O_3   0.464360 0.631752 0.170142 -0.624554
C101  C     C_3   0.469678 0.556948 0.141403 -0.235582
H101  H     H_    0.418198 0.527850 0.090246 0.148159
H102  H     H_    0.508203 0.522275 0.215206 0.123150
H103  H     H_    0.488292 0.560925 0.091767 0.172341
O10   O     O_3   0.541671 0.609572 0.845264 -0.627133
C102  C     C_3   0.528388 0.532634 0.854343 -0.253089
H104  H     H_    0.576218 0.496840 0.896567 0.143501
H105  H     H_    0.486345 0.508645 0.772950 0.137959
H106  H     H_    0.510207 0.530615 0.904688 0.168994
O11   O     O_3   0.958711 0.106757 0.154373 -0.610828
C103  C     C_3   0.976946 0.030851 0.150977 -0.327879
H107  H     H_    0.931346 0.991656 0.109574 0.135633
H108  H     H_    0.019400 0.010035 0.234194 0.155901
H109  H     H_    0.996607 0.029957 0.102676 0.176588
O12   O     O_3   0.035790 0.130685 0.830594 -0.626035
C104  C     C_3   0.029510 0.055778 0.857810 -0.250304
H110  H     H_    0.080729 0.026101 0.909194 0.152165
H111  H     H_    0.990962 0.021796 0.783298 0.125206
H112  H     H_    0.010369 0.059607 0.906721 0.167817

loop_
_geom_bond_atom_site_label_1
_geom_bond_atom_site_label_2
_ccdc_geom_bond_type
C57   H25   S    
C102  H105  S    
C100  H99   S    
C39   H11   S    
C82   H44   S    
C75   N23   A    
N30   Ni5   S    
N7    Ni7   S    
C83   H48   S    
C83   H47   S    
C43   O7    S    
O7    C95   S    
N17   N29   A    
C95   H83   S    
N12   Ni3   S    
C13   C41   S    
C81   H41   S    
N18   N30   A    
C5    N29   A    
C57   C62   A    
C19   H39   S    
N3    Ni3   S    
C91   H71   S    
C58   N14   A    
C7    H35   S    
C7    C11   A    
C12   C23   S    
O9    C101  S    
O10   C102  S    
C23   H3    S    
C60   C63   A    
C22   H2    S    
N11   Ni4   S    
C8    N32   A    
C9    C69   A    
C46   C66   A    
C96   H88   S    
C86   H57   S    
C76   N24   A    
C37   C51   S    
C11   C71   A    
C9    C22   S    
C84   H52   S    
C50   H6    S    
C38   C52   S    
N6    N10   A    
C101  H102  S    
C98   H93   S    
C55   H23   S    
C11   C24   S    
C92   H76   S    
C47   H19   S    
C4    N4    A    
C87   H60   S    
C99   H95   S    
C90   H68   S    
C14   C77   A    
C41   C49   D    
C89   H66   S    
C69   C97   S    
O2    C86   S    
C6    H34   S    
C92   H75   S    
C13   C78   A    
N16   Ni7   S    
C20   C24   D    
C53   H21   S    
C33   C62   S    
C88   H63   S    
C97   H90   S    
C35   C64   S    
C70   C98   S    
N19   Ni3   S    
N1    N14   A    
N24   Ni8   S    
C36   C63   S    
C53   C65   A    
C97   H89   S    
N20   N32   A    
C60   H28   S    
C17   H37   S    
C14   C42   S    
C44   C52   D    
C101  H103  S    
C91   H72   S    
C46   H18   S    
N32   Ni7   S    
C1    C81   S    
C82   H45   S    
C18   C22   D    
C98   H92   S    
C25   C29   D    
C90   H69   S    
N22   N25   A    
C57   N13   A    
C4    C64   A    
N23   N28   A    
N22   Ni6   S    
N24   N27   A    
C54   N10   A    
N8    N12   A    
C28   C32   D    
C47   C67   A    
O8    C96   S    
C81   H42   S    
C3    N3    A    
C85   H53   S    
C73   O9    S    
C59   H27   S    
C2    N2    A    
C10   C21   S    
C69   N17   A    
C31   C68   S    
C48   H20   S    
C104  H110  S    
N18   Ni2   S    
C27   C31   D    
C17   C27   S    
C49   H5    S    
C36   C40   D    
C18   C28   S    
C71   C99   S    
C103  H108  S    
C86   H58   S    
C45   N5    A    
C94   H80   S    
C78   N26   A    
C93   H77   S    
C3    C83   S    
C71   N19   A    
C101  H101  S    
C56   C68   A    
C79   H31   S    
C34   C61   S    
C33   C37   D    
C33   H13   S    
C87   H59   S    
C99   H96   S    
C16   C79   A    
C10   C70   A    
C72   C100  S    
C89   H67   S    
C19   C23   D    
C86   H56   S    
N2    N13   A    
C5    C9    A    
C96   H86   S    
C94   H81   S    
C41   O5    S    
C36   H16   S    
N6    Ni6   S    
C55   C67   A    
C15   C80   A    
O5    C93   S    
C8    C12   A    
C88   H64   S    
C44   O8    S    
C80   H32   S    
C92   H74   S    
C59   C64   A    
N17   Ni1   S    
C85   H54   S    
C78   H30   S    
C27   O3    S    
C40   H12   S    
C77   H29   S    
N27   Ni4   S    
C104  H111  S    
C2    C82   S    
C56   H24   S    
C74   O10   S    
C84   H51   S    
N1    Ni1   S    
N21   N26   A    
C42   C50   D    
C32   C67   S    
C7    N31   A    
N25   Ni2   S    
C26   O2    S    
N21   Ni5   S    
N28   Ni3   S    
C21   H1    S    
C52   H8    S    
N2    Ni2   S    
C82   H46   S    
C29   C89   S    
C4    C84   S    
C87   H61   S    
C45   C65   A    
C30   C65   S    
C90   H70   S    
C98   H94   S    
C73   N21   A    
C53   N9    A    
C72   N20   A    
C51   H7    S    
O11   C103  S    
C95   H85   S    
C77   N25   A    
C20   H40   S    
C81   H43   S    
C95   H84   S    
N8    Ni8   S    
C15   C75   A    
N29   Ni6   S    
C91   H73   S    
C30   C90   S    
C16   C44   S    
C14   C74   A    
N15   Ni8   S    
C56   N12   A    
C1    N1    A    
C5    H33   S    
C104  H112  S    
C16   C76   A    
O1    C85   S    
C46   N6    A    
C34   H14   S    
C75   O11   S    
C103  H107  S    
C42   O6    S    
C93   H79   S    
C1    C61   A    
C6    C10   A    
C76   O12   S    
C79   N27   A    
C39   C49   S    
C47   N7    A    
C18   H38   S    
C54   C66   A    
C24   H4    S    
C3    C63   A    
C38   H10   S    
C55   N11   A    
C48   C68   A    
N3    N16   A    
C99   H97   S    
C54   H22   S    
N31   Ni8   S    
C60   N16   A    
C103  H109  S    
N4    Ni4   S    
O12   C104  S    
C93   H78   S    
C15   C43   S    
O3    C87   S    
C96   H87   S    
C45   H17   S    
O4    C88   S    
C94   H82   S    
C32   C92   S    
C70   N18   A    
C43   C51   D    
O6    C94   S    
N9    Ni2   S    
N26   Ni1   S    
C20   C26   S    
C48   N8    A    
C58   C61   A    
C40   C50   S    
C35   C39   D    
N19   N31   A    
C83   H49   S    
C37   H9    S    
N10   Ni1   S    
N5    Ni5   S    
N23   Ni7   S    
N20   Ni4   S    
C12   C72   A    
C89   H65   S    
N13   Ni6   S    
C97   H91   S    
N7    N11   A    
C102  H106  S    
C85   H55   S    
C8    H36   S    
C19   C25   S    
C84   H50   S    
C29   C66   S    
C6    N30   A    
N5    N9    A    
C80   N28   A    
N14   Ni5   S    
C74   N22   A    
C88   H62   S    
C100  H100  S    
C28   O4    S    
C13   C73   A    
N4    N15   A    
C58   H26   S    
C34   C38   D    
C100  H98   S    
C25   O1    S    
C2    C62   A    
C31   C91   S    
C59   N15   A    
C102  H104  S    
C35   H15   S    
C26   C30   D    
C17   C21   D    
