data_mof_unit_3628.cif
_audit_creation_date              2012-12-10T19:45:04-0500
_audit_creation_method            fapswitch 2.2
_symmetry_space_group_name_H-M    P1
_symmetry_Int_Tables_number       1
_space_group_crystal_system       triclinic
_cell_length_a                    15.082324
_cell_length_b                    10.882249
_cell_length_c                    13.74745
_cell_angle_alpha                 89.256474
_cell_angle_beta                  90.490174
_cell_angle_gamma                 89.269936
_cell_volume                      2255.90459532

loop_
_atom_site_label
_atom_site_type_symbol
_atom_type_description
_atom_site_fract_x
_atom_site_fract_y
_atom_site_fract_z
_atom_type_partial_charge
C1    C     C_R   0.499824 0.262415 0.500347 0.840844
C2    C     C_R   0.500177 0.737585 0.499653 0.840824
C3    C     C_R   0.046507 0.486050 0.323837 -0.196136
C4    C     C_R   0.953493 0.513896 0.676164 -0.196094
C5    C     C_R   0.242923 0.218430 0.326591 -0.391774
C6    C     C_R   0.757098 0.781569 0.673364 -0.391785
C7    C     C_R   0.303769 0.161724 0.389920 0.557253
C8    C     C_R   0.696242 0.838279 0.610050 0.557240
C9    C     C_R   0.390653 0.135492 0.359447 -0.178283
C10   C     C_R   0.609362 0.864506 0.640539 -0.178281
C11   C     C_R   0.417075 0.168953 0.263380 -0.237274
C12   C     C_R   0.582955 0.831036 0.736609 -0.237268
C13   C     C_R   0.354105 0.227304 0.200973 0.521799
C14   C     C_R   0.645935 0.772681 0.799001 0.521817
C15   C     C_R   0.267949 0.251347 0.232694 0.541454
C16   C     C_R   0.732086 0.748643 0.767264 0.541444
C17   C     C_R   0.450085 0.938001 0.428786 -0.066895
C18   C     C_R   0.549920 0.061998 0.571210 -0.066887
C19   C     C_R   0.499932 0.871571 0.499666 -0.108905
C20   C     C_R   0.500070 0.128428 0.500333 -0.108901
C21   C     C_R   0.549638 0.933375 0.571235 0.119381
C22   C     C_R   0.450367 0.066624 0.428761 0.119366
C23   C     C_R   0.328590 0.500946 0.499762 0.857218
C24   C     C_R   0.671410 0.499051 0.500238 0.857225
C25   C     C_R   0.571785 0.452815 0.794622 0.722380
C26   C     C_R   0.428215 0.547185 0.205378 0.722355
C27   C     C_R   0.428561 0.545237 0.792432 -0.051395
C28   C     C_R   0.571439 0.454763 0.207568 -0.051401
C29   C     C_R   0.426535 0.543660 0.894819 0.028723
C30   C     C_R   0.573465 0.456341 0.105181 0.028730
C31   C     C_R   0.500504 0.499261 0.948252 0.108050
C32   C     C_R   0.499496 0.500740 0.051748 0.108061
C33   C     C_R   0.575380 0.453937 0.898146 -0.124388
C34   C     C_R   0.424620 0.546065 0.101854 -0.124408
C35   C     C_R   0.351429 0.585044 0.944164 -0.169166
C36   C     C_R   0.648571 0.414959 0.055836 -0.169143
C37   C     C_R   0.349069 0.586251 0.046275 0.024281
C38   C     C_R   0.650932 0.413754 0.953725 0.024312
C39   C     C_R   0.815187 0.505531 0.587748 -0.163065
C40   C     C_R   0.184813 0.494443 0.412252 -0.163068
C41   C     C_R   0.768229 0.498262 0.500168 -0.059570
C42   C     C_R   0.231771 0.501723 0.499831 -0.059567
C43   C     C_R   0.813693 0.490650 0.411963 -0.158196
C44   C     C_R   0.186307 0.509327 0.588036 -0.158182
C45   C     C_R   0.906484 0.494235 0.409607 0.037484
C46   C     C_R   0.093517 0.505724 0.590394 0.037494
C47   C     C_R   0.953478 0.500355 0.499317 0.071794
C48   C     C_R   0.046523 0.499606 0.500683 0.071799
C49   C     C_R   0.907347 0.506915 0.587958 0.067701
C50   C     C_R   0.092653 0.493048 0.412042 0.067715
C51   C     C_R   0.953893 0.488681 0.320899 -0.028663
C52   C     C_R   0.046108 0.511256 0.679103 -0.028715
Cu1   Cu    Cu3+1 0.500010 0.499980 0.597420 1.045244
Cu2   Cu    Cu3+1 0.499990 0.500020 0.402580 1.045244
H1    H     H_    0.780070 0.510290 0.656096 0.210303
H2    H     H_    0.219931 0.489686 0.343904 0.210290
H3    H     H_    0.372583 0.582394 0.751545 0.165223
H4    H     H_    0.627417 0.417607 0.248455 0.165221
H5    H     H_    0.293695 0.616436 0.902741 0.152253
H6    H     H_    0.706306 0.383568 0.097259 0.152244
H7    H     H_    0.775840 0.479846 0.345731 0.180050
H8    H     H_    0.224160 0.520144 0.654266 0.180062
H9    H     H_    0.083137 0.481328 0.256447 0.214963
H10   H     H_    0.916863 0.518609 0.743554 0.214991
H11   H     H_    0.175868 0.236680 0.350401 0.224894
H12   H     H_    0.824150 0.763323 0.649543 0.224897
N1    N     N_R   0.499960 0.499900 0.743810 -0.245223
N2    N     N_R   0.500040 0.500100 0.256190 -0.245219
O1    O     O_R   0.500000 0.319630 0.582270 -0.542459
O2    O     O_R   0.500000 0.680370 0.417730 -0.542459
O3    O     O_R   0.499990 0.319660 0.417730 -0.596407
O4    O     O_R   0.500010 0.680340 0.582270 -0.596409
O5    O     O_R   0.370260 0.499960 0.582280 -0.602865
O6    O     O_R   0.629740 0.500040 0.417720 -0.602863
O7    O     O_R   0.370250 0.499990 0.417740 -0.532364
O8    O     O_R   0.629750 0.500010 0.582260 -0.532369
C53   C     C_2   0.395544 0.874359 0.355192 0.925024
O9    O     O_2   0.333686 0.810322 0.380734 -0.513709
O10   O     O_R   0.415660 0.888535 0.256750 -0.732688
H13   H     H_    0.373857 0.842618 0.212897 0.391159
C54   C     C_2   0.604471 0.125641 0.644796 0.925027
O11   O     O_2   0.666316 0.189695 0.619243 -0.513729
O12   O     O_R   0.584379 0.111444 0.743242 -0.732690
H14   H     H_    0.626189 0.157357 0.787089 0.391172
F1    F     F_    0.639227 0.401908 0.744625 -0.645979
F2    F     F_    0.360772 0.598089 0.255375 -0.645979
C55   C     C_2   0.263957 0.623687 0.089897 0.940130
O13   O     O_2   0.257135 0.721693 0.131626 -0.551898
O14   O     O_R   0.189878 0.549550 0.077762 -0.683338
H15   H     H_    0.134514 0.586443 0.107530 0.341600
C56   C     C_2   0.736046 0.376328 0.910104 0.940083
O15   O     O_2   0.742875 0.278325 0.868373 -0.551918
O16   O     O_R   0.810122 0.450470 0.922244 -0.683279
H16   H     H_    0.865488 0.413583 0.892479 0.341612
C57   C     C_2   0.910752 0.487731 0.223379 0.852439
O17   O     O_2   0.847915 0.556323 0.204518 -0.554289
O18   O     O_R   0.945552 0.412273 0.151137 -0.705655
H17   H     H_    0.911825 0.420660 0.087286 0.367911
C58   C     C_2   0.089247 0.512161 0.776626 0.852461
O19   O     O_2   0.152110 0.443601 0.795454 -0.554303
O20   O     O_R   0.054416 0.587529 0.848909 -0.705670
H18   H     H_    0.088140 0.579107 0.912760 0.367958
F3    F     F_    0.208071 0.306520 0.171774 -0.570395
F4    F     F_    0.791974 0.693467 0.828170 -0.570402
F5    F     F_    0.277545 0.130131 0.481017 -0.612316
F6    F     F_    0.722453 0.869880 0.518950 -0.612310
C59   C     C_2   0.508608 0.144191 0.226856 0.997950
O21   O     O_2   0.569697 0.121241 0.283502 -0.576567
O22   O     O_R   0.525419 0.147865 0.126947 -0.664368
H19   H     H_    0.590002 0.131038 0.111384 0.343503
C60   C     C_2   0.491427 0.855793 0.773150 0.997953
O23   O     O_2   0.430332 0.878762 0.716517 -0.576570
O24   O     O_R   0.474629 0.852094 0.873062 -0.664378
H20   H     H_    0.410048 0.868920 0.888637 0.343499
F7    F     F_    0.375535 0.261951 0.109023 -0.586820
F8    F     F_    0.624519 0.738024 0.890954 -0.586812

loop_
_geom_bond_atom_site_label_1
_geom_bond_atom_site_label_2
_ccdc_geom_bond_type
C55   O13   D    
O16   H16   S    
C27   C29   A    
C34   C37   A    
C41   C43   A    
C60   O23   D    
C25   N1    A    
Cu1   O1    S    
C54   O11   D    
C47   C49   A    
C53   O9    D    
C1    O3    A    
C23   C42   S    
C4    C52   A    
O12   H14   S    
C35   C37   A    
C14   F8    S    
C9    C22   S    
Cu2   N2    S    
C45   C51   A    
C18   C21   A    
C46   C52   A    
C18   C54   S    
C35   H5    S    
C45   C47   A    
Cu2   O6    S    
C16   F4    S    
C39   H1    S    
Cu2   O3    S    
C47   C48   A    
C44   C46   A    
C40   H2    S    
C59   O21   D    
C7    F5    S    
C48   C50   A    
C24   C41   S    
C59   O22   S    
C42   C44   A    
C23   O5    A    
C2    O4    A    
C25   F1    S    
C54   O12   S    
C3    C50   A    
C26   C34   A    
O18   H17   S    
C53   O10   S    
C10   C21   S    
C46   C48   A    
C31   C33   A    
O20   H18   S    
C5    H11   S    
C27   H3    S    
C23   O7    A    
C56   O15   D    
C5    C7    A    
C3    C51   A    
C24   O8    A    
C6    C8    A    
C44   H8    S    
Cu1   Cu2   S    
C38   C56   S    
C1    O1    A    
O10   H13   S    
C32   C34   A    
C56   O16   S    
C9    C11   A    
C58   O19   D    
Cu2   O2    S    
C26   F2    S    
C17   C53   S    
C60   O24   S    
C43   C45   A    
C13   F7    S    
C10   C12   A    
C58   O20   S    
C20   C22   A    
C28   H4    S    
C13   C15   A    
C11   C59   S    
C14   C16   A    
Cu1   O8    S    
C43   H7    S    
O24   H20   S    
C7    C9    A    
C4    H10   S    
C57   O18   S    
C1    C20   S    
C28   N2    A    
C2    C19   S    
C37   C55   S    
C31   C32   A    
Cu1   O5    S    
C33   C38   A    
C12   C14   A    
C40   C42   A    
C36   H6    S    
C8    F6    S    
C39   C49   A    
C3    H9    S    
C29   C35   A    
C52   C58   S    
C17   C22   A    
C30   C36   A    
C4    C49   A    
C26   N2    A    
C36   C38   A    
C29   C31   A    
O22   H19   S    
C30   C32   A    
C11   C13   A    
C24   O6    A    
C40   C50   A    
C28   C30   A    
C17   C19   A    
C18   C20   A    
Cu1   N1    S    
C5    C15   A    
C27   N1    A    
C6    C16   A    
Cu2   O7    S    
C6    H12   S    
C39   C41   A    
C8    C10   A    
C25   C33   A    
C57   O17   D    
C55   O14   S    
C15   F3    S    
O14   H15   S    
C2    O2    A    
Cu1   O4    S    
C12   C60   S    
C51   C57   S    
C19   C21   A    
