data_mof_unit_2339.cif
_audit_creation_date              2013-03-05T16:01:46-0500
_audit_creation_method            fapswitch 2.2
_symmetry_space_group_name_H-M    P1
_symmetry_Int_Tables_number       1
_space_group_crystal_system       triclinic
_cell_length_a                    14.921931
_cell_length_b                    14.189251
_cell_length_c                    11.550025
_cell_angle_alpha                 89.998986
_cell_angle_beta                  88.220526
_cell_angle_gamma                 90.00403
_cell_volume                      2444.31927402

loop_
_atom_site_label
_atom_site_type_symbol
_atom_site_description
_atom_site_fract_x
_atom_site_fract_y
_atom_site_fract_z
_atom_type_partial_charge
O1    O     O_R   0.367850 0.580280 0.500030 -0.570324
O2    O     O_R   0.632150 0.419720 0.499970 -0.585608
O3    O     O_R   0.632150 0.580280 0.499970 -0.570330
O4    O     O_R   0.367850 0.419720 0.500030 -0.585597
C1    C     C_R   0.327237 0.500097 0.501322 0.986973
C2    C     C_R   0.672764 0.500103 0.498674 0.986954
O5    O     O_R   0.500010 0.580270 0.334450 -0.576603
O6    O     O_R   0.499990 0.419730 0.665550 -0.596878
O7    O     O_R   0.499990 0.580270 0.665550 -0.576677
O8    O     O_R   0.500010 0.419730 0.334450 -0.596911
C3    C     C_R   0.500454 0.499967 0.282070 0.983751
C4    C     C_R   0.499545 0.499966 0.717930 0.983921
Zn1   Zn    Zn3+2 0.500000 0.607200 0.500000 1.129234
Zn2   Zn    Zn3+2 0.500000 0.392800 0.500000 1.114204
C5    C     C_1   0.500484 0.499904 0.161521 0.034357
C6    C     C_1   0.499512 0.499900 0.838480 0.034418
C7    C     C_1   0.500224 0.499890 0.059345 0.111201
C8    C     C_1   0.499771 0.499889 0.940656 0.111214
C9    C     C_R   0.816467 0.505655 0.393393 0.263970
C10   C     C_R   0.183527 0.505543 0.606592 0.263507
C11   C     C_R   0.768426 0.502378 0.499081 -0.242805
C12   C     C_R   0.231576 0.502357 0.500906 -0.242699
C13   C     C_R   0.810071 0.509915 0.605454 0.283199
C14   C     C_R   0.189941 0.509983 0.394536 0.283232
C15   C     C_R   0.903322 0.522983 0.607009 -0.114086
C16   C     C_R   0.096688 0.523034 0.392980 -0.114020
C17   C     C_R   0.953028 0.522640 0.500199 -0.055470
C18   C     C_R   0.046980 0.522637 0.499789 -0.055333
C19   C     C_R   0.909002 0.521240 0.393577 -0.125761
C20   C     C_R   0.091002 0.521167 0.606414 -0.125813
C21   C     C_R   0.948375 0.539993 0.711006 0.241621
C22   C     C_R   0.051634 0.540077 0.288991 0.241458
C23   C     C_R   0.041910 0.541272 0.709795 0.426925
C24   C     C_R   0.958097 0.541382 0.290210 0.426922
C25   C     C_R   0.563036 0.797984 0.434540 0.371391
C26   C     C_R   0.435413 0.201870 0.562790 0.355332
C27   C     C_R   0.436960 0.797979 0.565445 0.371532
C28   C     C_R   0.564589 0.201883 0.437211 0.355375
N1    N     N_R   0.500000 0.750030 0.500000 -0.214023
N2    N     N_R   0.500000 0.249970 0.500000 -0.212385
C29   C     C_R   0.437398 0.898847 0.570966 -0.190805
C30   C     C_R   0.562770 0.101221 0.429766 -0.185344
C31   C     C_R   0.562622 0.898856 0.429042 -0.190840
C32   C     C_R   0.437236 0.101207 0.570237 -0.185317
C33   C     C_R   0.500010 0.949411 0.500004 -0.002564
C34   C     C_R   0.500006 0.050546 0.500003 0.007046
C35   C     C_R   0.378366 0.950735 0.646180 0.258714
C36   C     C_R   0.621180 0.049956 0.353683 0.232247
C37   C     C_R   0.621672 0.950763 0.353854 0.258763
C38   C     C_R   0.378837 0.049929 0.646332 0.232226
N3    N     N_R   0.772523 0.484405 0.287415 0.244014
O9    O     O_R   0.705918 0.535534 0.253862 -0.372519
O10   O     O_R   0.800684 0.414663 0.222806 -0.205106
N4    N     N_R   0.227448 0.484176 0.712553 0.244054
O11   O     O_R   0.294114 0.535203 0.746150 -0.372623
O12   O     O_R   0.199202 0.414431 0.777106 -0.204981
N5    N     N_R   0.757867 0.495413 0.710479 0.213409
O13   O     O_R   0.768922 0.419311 0.771208 -0.286412
O14   O     O_R   0.696600 0.555977 0.742639 -0.368710
N6    N     N_R   0.242162 0.495591 0.289504 0.213329
O15   O     O_R   0.231203 0.419488 0.228746 -0.286543
O16   O     O_R   0.303390 0.556228 0.257409 -0.368536
N7    N     N_R   0.900953 0.567145 0.815585 0.238553
O17   O     O_R   0.854358 0.644653 0.817596 -0.367073
O18   O     O_R   0.916580 0.524150 0.912397 -0.213562
N8    N     N_R   0.099054 0.567205 0.184399 0.238472
O19   O     O_R   0.145591 0.644758 0.182325 -0.367272
O20   O     O_R   0.083437 0.524159 0.087619 -0.213704
O21   O     O_3   0.084355 0.570604 0.808496 -0.522405
C39   C     C_3   0.104109 0.667740 0.796801 0.072359
H1    H     H_    0.042969 0.709436 0.777655 0.153044
H2    H     H_    0.155588 0.679543 0.726602 0.209567
C40   C     C_3   0.140939 0.704579 0.909213 -0.445388
H3    H     H_    0.199850 0.662113 0.934041 0.298925
H4    H     H_    0.161881 0.779212 0.898278 0.233916
H5    H     H_    0.088095 0.700778 0.978785 0.248393
O22   O     O_3   0.915645 0.570766 0.191540 -0.522332
C41   C     C_3   0.896128 0.667954 0.203202 0.071957
H6    H     H_    0.957508 0.709538 0.221603 0.153422
H7    H     H_    0.845087 0.679992 0.273903 0.209053
C42   C     C_3   0.858662 0.704684 0.091093 -0.445098
H8    H     H_    0.799462 0.662320 0.067002 0.298779
H9    H     H_    0.837972 0.779391 0.102048 0.233937
H10   H     H_    0.911079 0.700636 0.020987 0.248804
N9    N     N_R   0.631915 0.745040 0.375974 0.238493
O23   O     O_R   0.711357 0.741008 0.419065 -0.367895
O24   O     O_R   0.619371 0.712609 0.272467 -0.307918
N10   N     N_R   0.362232 0.253745 0.613803 0.238524
O25   O     O_R   0.371035 0.296975 0.712013 -0.281140
O26   O     O_R   0.283814 0.249749 0.567810 -0.306643
N11   N     N_R   0.367994 0.745047 0.623869 0.238354
O27   O     O_R   0.288575 0.741145 0.580696 -0.368045
O28   O     O_R   0.380453 0.712449 0.727316 -0.307946
N12   N     N_R   0.637773 0.253771 0.386205 0.238518
O29   O     O_R   0.628973 0.297012 0.288000 -0.281204
O30   O     O_R   0.716191 0.249776 0.432197 -0.306671
N13   N     N_R   0.322277 0.904564 0.731633 0.247577
O31   O     O_R   0.352851 0.889698 0.834300 -0.282330
O32   O     O_R   0.236481 0.898251 0.716256 -0.304284
N14   N     N_R   0.674195 0.097024 0.265697 0.257080
O33   O     O_R   0.761103 0.098649 0.271650 -0.222002
O34   O     O_R   0.637208 0.121849 0.169847 -0.256762
N15   N     N_R   0.677847 0.904613 0.268486 0.247574
O35   O     O_R   0.647420 0.889875 0.165710 -0.282349
O36   O     O_R   0.763616 0.898273 0.284053 -0.304436
N16   N     N_R   0.325826 0.096985 0.734322 0.257059
O37   O     O_R   0.238919 0.098615 0.728360 -0.221991
O38   O     O_R   0.362812 0.121793 0.830181 -0.256781

loop_
_geom_bond_atom_site_label_1
_geom_bond_atom_site_label_2
_geom_bond_distance
_ccdc_geom_bond_type
C15   C21   1.415324 A    
N8    O20   1.301172 A    
N7    O18   1.301178 A    
C16   C22   1.415351 A    
C17   C19   1.413787 A    
C40   H3    1.110771 S    
O3    C2    1.288911 A    
N13   O31   1.300920 A    
C10   C20   1.398428 A    
C33   C34   1.435033 A    
C26   N10   1.428840 S    
O5    C3    1.290015 A    
O1    C1    1.288911 A    
C9    C11   1.397067 A    
C14   C16   1.404462 A    
C28   C30   1.431212 A    
O21   C39   1.415015 S    
C24   O22   1.385203 S    
N9    O23   1.301103 A    
C41   H7    1.112421 S    
N5    O14   1.300499 A    
N16   O37   1.300993 A    
N6    O16   1.300500 A    
C30   C34   1.415972 A    
O7    Zn1   1.949903 S    
N13   O32   1.301028 A    
C3    C5    1.392334 S    
C1    C12   1.427963 S    
C4    C6    1.392337 S    
C21   C23   1.395483 A    
C39   H1    1.115299 S    
C25   C31   1.432730 A    
O3    Zn1   2.008604 S    
C23   O21   1.385207 S    
N8    O19   1.300992 A    
C27   C29   1.432680 A    
C40   H4    1.110197 S    
O2    C2    1.291417 A    
C42   H9    1.110230 S    
C32   C34   1.415987 A    
C42   H8    1.111000 S    
C35   C38   1.407497 A    
N9    O24   1.299978 A    
C36   N14   1.433378 S    
N4    O12   1.301277 A    
C27   N11   1.426624 S    
N3    O9    1.299349 A    
C21   N7    1.433579 S    
C26   N2    1.370069 A    
C10   N4    1.438431 S    
O8    Zn2   1.949904 S    
N11   O27   1.301092 A    
C41   H6    1.115461 S    
C31   C37   1.423157 A    
O22   C41   1.415024 S    
C2    C11   1.427978 S    
C19   C24   1.410454 A    
N6    O15   1.300924 A    
N3    O10   1.301280 A    
C22   C24   1.395500 A    
C25   N1    1.369350 A    
N11   O28   1.299948 A    
O6    C4    1.289182 A    
C28   N12   1.428844 S    
C39   C40   1.518324 S    
N14   O34   1.300866 A    
C7    C8    1.371091 S    
C29   C35   1.423122 A    
N15   O36   1.301042 A    
C30   C36   1.419001 A    
N12   O30   1.301249 A    
C31   C33   1.418382 A    
C36   C37   1.407496 A    
C10   C12   1.397063 A    
C11   C13   1.398031 A    
C40   H5    1.109518 S    
C12   C14   1.398042 A    
C26   C32   1.431220 A    
O1    Zn1   2.008552 S    
C9    C19   1.398453 A    
N15   O35   1.300943 A    
C42   H10   1.109676 S    
C22   N8    1.433554 S    
C32   C38   1.419014 A    
C13   N5    1.435938 S    
N4    O11   1.299349 A    
O6    Zn2   1.949916 S    
C20   C23   1.410480 A    
N10   O26   1.301248 A    
O4    C1    1.291411 A    
C37   N15   1.432629 S    
C5    C7    1.180259 T    
C15   C17   1.419585 A    
C16   C18   1.419601 A    
C35   N13   1.432635 S    
C18   C20   1.413798 A    
C27   N1    1.369344 A    
C28   N2    1.370071 A    
C25   N9    1.426621 S    
C41   C42   1.518493 S    
N5    O13   1.300933 A    
N16   O38   1.300867 A    
N14   O33   1.300993 A    
C13   C15   1.404441 A    
O4    Zn2   2.008605 S    
N12   O29   1.299812 A    
O2    Zn2   2.008551 S    
O7    C4    1.290014 A    
Zn1   N1    2.026651 S    
O8    C3    1.289180 A    
Zn2   N2    2.026652 S    
N7    O17   1.300999 A    
C9    N3    1.438416 S    
O5    Zn1   1.949918 S    
N10   O25   1.299813 A    
C6    C8    1.180259 T    
C17   C18   1.401812 A    
C38   N16   1.433368 S    
C29   C33   1.418359 A    
C39   H2    1.112122 S    
C14   N6    1.435926 S    
