data_mof_unit_3090.cif
_audit_creation_date              2012-12-10T17:37:49-0500
_audit_creation_method            fapswitch 2.2
_symmetry_space_group_name_H-M    P1
_symmetry_Int_Tables_number       1
_space_group_crystal_system       triclinic
_cell_length_a                    12.329277
_cell_length_b                    13.076173
_cell_length_c                    17.377679
_cell_angle_alpha                 104.829364
_cell_angle_beta                  75.361305
_cell_angle_gamma                 116.580531
_cell_volume                      2390.91071098

loop_
_atom_site_label
_atom_site_type_symbol
_atom_type_description
_atom_site_fract_x
_atom_site_fract_y
_atom_site_fract_z
_atom_type_partial_charge
C1    C     C_R   0.144495 0.714517 0.509185 0.838540
C2    C     C_R   0.902509 0.543844 0.796469 -0.258077
C3    C     C_R   0.918489 0.498749 0.158128 -0.218654
C4    C     C_R   0.920874 0.507992 0.238933 0.579888
C5    C     C_R   0.097081 0.457574 0.201695 0.425753
C6    C     C_R   0.094339 0.449232 0.120623 0.607107
C7    C     C_R   0.006562 0.472017 0.098825 -0.157740
C8    C     C_2   0.992306 0.547152 0.987736 0.632265
C9    C     C_2   0.006998 0.466636 0.013726 -0.122085
C10   C     C_R   0.010679 0.487913 0.261929 -0.398376
C11   C     C_R   0.720510 0.995003 0.361721 -0.181777
C12   C     C_R   0.989158 0.504689 0.652106 0.853738
C13   C     C_R   0.774676 0.163998 0.465489 -0.023296
C14   C     C_R   0.187099 0.920852 0.570341 0.524186
C15   C     C_R   0.269345 0.036163 0.586137 0.620902
C16   C     C_R   0.393464 0.069407 0.554170 -0.394023
C17   C     C_R   0.437764 0.987810 0.504445 -0.016909
C18   C     C_R   0.351177 0.876580 0.477367 -0.040189
C19   C     C_R   0.564629 0.017530 0.474743 0.079621
C20   C     C_R   0.599228 0.949810 0.402700 0.079001
C21   C     C_R   0.511256 0.841544 0.371342 0.108300
C22   C     C_R   0.388705 0.807097 0.409544 -0.120034
C23   C     C_R   0.855877 0.285975 0.487052 0.780534
C24   C     C_R   0.658981 0.114147 0.512672 0.095979
C25   C     C_R   0.803377 0.104415 0.389989 -0.229632
C26   C     C_R   0.227233 0.839169 0.516838 -0.305997
C27   C     C_R   0.645281 0.678520 0.629034 -0.259179
C28   C     C_R   0.258914 0.355420 0.386352 0.286594
C29   C     C_R   0.370539 0.346062 0.354732 -0.306956
C30   C     C_R   0.470598 0.408857 0.393411 0.573078
C31   C     C_R   0.459925 0.479505 0.468248 -0.141039
C32   C     C_R   0.349730 0.499775 0.494516 0.176241
C33   C     C_R   0.556443 0.534193 0.516087 0.006295
C34   C     C_R   0.010900 0.495323 0.347773 0.881955
C35   C     C_R   0.549694 0.620239 0.583166 0.136063
C36   C     C_R   0.447001 0.646253 0.604587 -0.199045
C37   C     C_R   0.348302 0.585674 0.562447 -0.028573
C38   C     C_R   0.658018 0.504176 0.502043 0.132952
C39   C     C_R   0.745678 0.649246 0.609328 0.109172
C40   C     C_R   0.990100 0.514038 0.737861 -0.255584
C41   C     C_R   0.081479 0.498275 0.762324 0.558990
C42   C     C_R   0.084650 0.512175 0.843694 0.521709
C43   C     C_R   0.994892 0.538977 0.901857 -0.175010
C44   C     C_R   0.905254 0.556575 0.877996 -0.170763
Cu1   Cu    Cu3+1 0.900140 0.524980 0.518800 1.008235
Cu2   Cu    Cu3+1 0.099860 0.475020 0.481200 0.967677
H1    H     H_    0.888431 0.144017 0.351145 0.154234
H2    H     H_    0.750046 0.951200 0.304231 0.156026
H3    H     H_    0.453881 0.160121 0.566956 0.197090
H4    H     H_    0.320026 0.729246 0.382542 0.175049
H5    H     H_    0.820263 0.694844 0.644023 0.176377
H6    H     H_    0.441212 0.712140 0.656065 0.159700
H7    H     H_    0.642215 0.745989 0.679883 0.161831
H8    H     H_    0.664859 0.432239 0.457649 0.206881
H9    H     H_    0.379871 0.287479 0.299165 0.193783
H10   H     H_    0.273022 0.609929 0.585333 0.199581
H11   H     H_    0.023763 0.396383 0.971018 0.192823
H12   H     H_    0.836114 0.578147 0.922468 0.213366
H13   H     H_    0.846942 0.511952 0.141978 0.238521
H14   H     H_    0.831876 0.557460 0.779468 0.204811
N1    N     N_R   0.749710 0.562810 0.547300 -0.220165
N2    N     N_R   0.249640 0.437820 0.453210 -0.212222
O1    O     O_R   0.025490 0.682370 0.523640 -0.517469
O2    O     O_R   0.194150 0.640180 0.491890 -0.632327
O3    O     O_R   0.905900 0.523560 0.631310 -0.596463
O4    O     O_R   0.074570 0.481370 0.599560 -0.540254
O5    O     O_R   0.805850 0.359820 0.508110 -0.596805
O6    O     O_R   0.974510 0.317630 0.476360 -0.592325
O7    O     O_R   0.925430 0.518630 0.400440 -0.515532
O8    O     O_R   0.094100 0.476440 0.368690 -0.569765
F1    F     F_    0.168647 0.470054 0.708155 -0.604171
F2    F     F_    0.179176 0.421503 0.063345 -0.577783
C45   C     C_3   0.549928 0.763984 0.298110 -0.458455
C46   C     C_3   0.452199 0.641798 0.276409 -0.654539
H15   H     H_    0.415278 0.595652 0.329020 0.245359
H16   H     H_    0.376655 0.645781 0.255190 0.269451
H17   H     H_    0.494114 0.591532 0.226693 0.267886
H18   H     H_    0.581591 0.807776 0.244579 0.221303
H19   H     H_    0.628411 0.753147 0.309906 0.234559
C47   C     C_3   0.643583 0.154820 0.603868 -0.448360
C48   C     C_3   0.738076 0.146962 0.642130 -0.755091
H20   H     H_    0.734901 0.057876 0.625598 0.263349
H21   H     H_    0.832406 0.209845 0.622770 0.249019
H22   H     H_    0.716741 0.167379 0.708807 0.249845
H23   H     H_    0.650970 0.245230 0.618121 0.228640
H24   H     H_    0.552950 0.099341 0.634364 0.231637
F3    F     F_    0.068892 0.889201 0.608266 -0.624513
F4    F     F_    0.229448 0.115709 0.635019 -0.585908
F5    F     F_    0.834665 0.536603 0.293964 -0.583272
C49   C     C_3   0.153788 0.266678 0.343499 -0.302092
C50   C     C_3   0.107994 0.148770 0.369372 -0.830530
H25   H     H_    0.185238 0.123558 0.362599 0.257099
H26   H     H_    0.062470 0.151732 0.433302 0.286174
H27   H     H_    0.041721 0.080706 0.330757 0.246690
H28   H     H_    0.077742 0.290977 0.350666 0.246648
H29   H     H_    0.186132 0.256957 0.277282 0.225362
F6    F     F_    0.578146 0.403660 0.353519 -0.635287
F7    F     F_    0.184309 0.435982 0.220594 -0.640365
F8    F     F_    0.973220 0.636978 0.040068 -0.646239
F9    F     F_    0.177264 0.502023 0.865519 -0.594998

loop_
_geom_bond_atom_site_label_1
_geom_bond_atom_site_label_2
_ccdc_geom_bond_type
C39   H5    S    
C45   C46   S    
C44   H12   S    
C35   C36   A    
C18   C26   A    
C8    C43   S    
C48   H20   S    
C49   H28   S    
Cu1   Cu2   S    
C6    F2    S    
C30   F6    S    
C47   H23   S    
C46   H16   S    
Cu2   N2    S    
C28   C29   A    
C8    F8    S    
C14   F3    S    
Cu2   O4    S    
C3    C7    A    
C30   C31   A    
C2    H14   S    
C11   C25   A    
C15   C16   A    
C21   C45   S    
C13   C23   S    
C41   C42   A    
C23   O5    A    
C47   H24   S    
C17   C19   A    
C37   H10   S    
C24   C47   S    
C19   C20   A    
C27   C39   A    
C8    C9    D    
C46   H17   S    
Cu1   O5    S    
C45   H18   S    
C31   C33   A    
C25   H1    S    
C36   H6    S    
C41   F1    S    
C38   N1    A    
C21   C22   A    
C13   C25   A    
C11   H2    S    
C1    O1    A    
C48   H21   S    
C39   N1    A    
C11   C20   A    
C46   H15   S    
Cu1   O7    S    
C16   H3    S    
C2    C44   A    
C50   H25   S    
C16   C17   A    
C29   H9    S    
C27   C35   A    
C12   O4    A    
Cu1   O1    S    
C13   C24   A    
Cu2   O2    S    
C23   O6    A    
C12   C40   S    
C43   C44   A    
Cu2   O6    S    
C29   C30   A    
C42   F9    S    
C50   H26   S    
C31   C32   A    
C38   H8    S    
C20   C21   A    
C17   C18   A    
C45   H19   S    
C10   C34   S    
C32   C37   A    
C14   C26   A    
C34   O7    A    
C40   C41   A    
Cu1   O3    S    
C1    C26   S    
C42   C43   A    
C4    C10   A    
C3    C4    A    
C1    O2    A    
C48   H22   S    
C4    F5    S    
C7    C9    S    
C34   O8    A    
C36   C37   A    
C18   C22   A    
C47   C48   S    
C27   H7    S    
C49   H29   S    
C6    C7    A    
C12   O3    A    
C33   C38   A    
C22   H4    S    
C19   C24   A    
C32   N2    A    
C5    C10   A    
C50   H27   S    
C49   C50   S    
C5    C6    A    
Cu1   N1    S    
C33   C35   A    
C9    H11   S    
Cu2   O8    S    
C2    C40   A    
C5    F7    S    
C14   C15   A    
C28   C49   S    
C3    H13   S    
C15   F4    S    
C28   N2    A    
