data_mof_unit_1663.cif
_audit_creation_date              2012-12-11T16:32:32-0500
_audit_creation_method            fapswitch 2.2
_symmetry_space_group_name_H-M    P1
_symmetry_Int_Tables_number       1
_space_group_crystal_system       triclinic
_cell_length_a                    6.930475
_cell_length_b                    14.345707
_cell_length_c                    15.998526
_cell_angle_alpha                 89.94964
_cell_angle_beta                  90.225454
_cell_angle_gamma                 90.599857
_cell_volume                      1590.51442615

loop_
_atom_site_label
_atom_site_type_symbol
_atom_type_description
_atom_site_fract_x
_atom_site_fract_y
_atom_site_fract_z
_atom_type_partial_charge
O1    O     O_R   0.361630 0.167340 0.164570 -0.534745
O2    O     O_R   0.638370 0.832660 0.835430 -0.534745
O3    O     O_R   0.690860 0.157560 0.338690 -0.539550
O4    O     O_R   0.309140 0.842440 0.661310 -0.539550
O5    O     O_R   0.861260 0.336420 0.339380 -0.543736
O6    O     O_R   0.138740 0.663580 0.660620 -0.543736
C1    C     C_R   0.521738 0.135135 0.368207 0.699328
C2    C     C_R   0.478262 0.864865 0.631793 0.699328
O7    O     O_R   0.691330 0.156310 0.165190 -0.533143
O8    O     O_R   0.308670 0.843690 0.834810 -0.533143
O9    O     O_R   0.861730 0.335160 0.164640 -0.537401
O10   O     O_R   0.138270 0.664840 0.835360 -0.537402
C3    C     C_R   0.519085 0.127973 0.141597 0.707816
C4    C     C_R   0.480915 0.872027 0.858403 0.707816
O11   O     O_R   0.361150 0.168600 0.339320 -0.524853
O12   O     O_R   0.638850 0.831400 0.660680 -0.524853
O13   O     O_3   0.527950 0.310560 0.252000 -0.374064
O14   O     O_3   0.472050 0.689440 0.748000 -0.374064
V1    V     V_3+5 0.802770 0.240990 0.251980 1.453606
V2    V     V_3+5 0.197230 0.759010 0.748020 1.453606
O15   O     O_R   0.191450 0.346190 0.165260 -0.542333
O16   O     O_R   0.808550 0.653810 0.834740 -0.542333
C5    C     C_R   0.022998 0.367953 0.136547 0.698354
C6    C     C_R   0.977001 0.632047 0.863453 0.698355
O17   O     O_R   0.190980 0.347440 0.338770 -0.545365
O18   O     O_R   0.809020 0.652560 0.661230 -0.545365
C7    C     C_R   0.022582 0.369659 0.367719 0.661942
C8    C     C_R   0.977418 0.630341 0.632281 0.661943
V3    V     V_3+5 0.302780 0.262760 0.251980 1.438609
V4    V     V_3+5 0.697220 0.737240 0.748020 1.438609
O19   O     O_3   0.027730 0.193200 0.251960 -0.347940
O20   O     O_3   0.972270 0.806800 0.748040 -0.347941
C9    C     C_3   0.821948 0.471059 0.478663 -0.110769
C10   C     C_3   0.178052 0.528941 0.521337 -0.110769
C11   C     C_3   0.915138 0.459221 0.566176 -0.148366
C12   C     C_3   0.084862 0.540779 0.433823 -0.148366
H1    H     H_    0.844977 0.425976 0.621059 0.099187
H2    H     H_    0.155023 0.574024 0.378941 0.099187
H3    H     H_    0.674526 0.447107 0.460907 0.109327
H4    H     H_    0.325474 0.552893 0.539093 0.109327
C13   C     C_3   0.988284 0.560732 0.562042 -0.003859
C14   C     C_3   0.011716 0.439268 0.437958 -0.003860
C15   C     C_3   0.895302 0.573369 0.475297 -0.142482
C16   C     C_3   0.104698 0.426631 0.524703 -0.142482
H5    H     H_    0.808458 0.634109 0.455322 0.103441
H6    H     H_    0.191542 0.365891 0.544678 0.103441
H7    H     H_    0.032067 0.314705 0.752840 0.128159
H8    H     H_    0.967933 0.685295 0.247160 0.128159
C17   C     C_R   0.962948 0.692581 0.035183 -0.152106
C18   C     C_R   0.037052 0.307419 0.964817 -0.152106
C19   C     C_R   0.957973 0.723838 0.117606 -0.088908
C20   C     C_R   0.042027 0.276162 0.882393 -0.088908
C21   C     C_R   0.971525 0.660645 0.183246 -0.135571
C22   C     C_R   0.028474 0.339354 0.816754 -0.135572
C23   C     C_R   0.989877 0.565703 0.166937 -0.153546
C24   C     C_R   0.010123 0.434296 0.833063 -0.153545
C25   C     C_R   0.995008 0.531956 0.083862 0.069726
C26   C     C_R   0.004992 0.468044 0.916138 0.069726
C27   C     C_R   0.981355 0.596572 0.016742 0.054151
C28   C     C_R   0.018645 0.403428 0.983258 0.054151
C29   C     C_R   0.013558 0.435541 0.066958 -0.181993
C30   C     C_R   0.986442 0.564459 0.933042 -0.181993
H9    H     H_    0.951955 0.744432 0.986259 0.110198
H10   H     H_    0.048045 0.255568 0.013740 0.110198
H11   H     H_    0.943752 0.797510 0.130581 0.147415
H12   H     H_    0.056248 0.202490 0.869419 0.147415
H13   H     H_    0.000145 0.519217 0.220048 0.091610
H14   H     H_    0.999854 0.480783 0.779952 0.091610
C31   C     C_3   0.320358 0.023406 0.475830 -0.124235
C32   C     C_3   0.679642 0.976594 0.524170 -0.124235
C33   C     C_3   0.404885 0.923234 0.472652 -0.187572
C34   C     C_3   0.595115 0.076766 0.527348 -0.187573
H15   H     H_    0.327647 0.860181 0.449334 0.115209
H16   H     H_    0.672353 0.139819 0.550666 0.115209
H17   H     H_    0.171553 0.042728 0.457105 0.134299
H18   H     H_    0.828447 0.957272 0.542895 0.134299
C35   C     C_3   0.489793 0.936661 0.561578 -0.058892
C36   C     C_3   0.510207 0.063339 0.438422 -0.058892
C37   C     C_3   0.406826 0.035616 0.564314 0.002572
C38   C     C_3   0.593174 0.964384 0.435686 0.002572
H19   H     H_    0.382870 0.795709 0.231616 0.117427
H20   H     H_    0.617129 0.204291 0.768384 0.117427
C39   C     C_R   0.517460 0.195144 0.974058 -0.150371
C40   C     C_R   0.482540 0.804856 0.025942 -0.150371
C41   C     C_R   0.541347 0.232013 0.894600 -0.123872
C42   C     C_R   0.458653 0.767987 0.105399 -0.123872
C43   C     C_R   0.579725 0.173471 0.828179 -0.115447
C44   C     C_R   0.420274 0.826529 0.171821 -0.115446
C45   C     C_R   0.584962 0.076833 0.839590 -0.036127
C46   C     C_R   0.415038 0.923167 0.160410 -0.036127
C47   C     C_R   0.532232 0.036261 0.917954 0.019394
C48   C     C_R   0.467768 0.963739 0.082045 0.019394
C49   C     C_R   0.516234 0.097511 0.987824 0.064655
C50   C     C_R   0.483766 0.902489 0.012176 0.064655
C51   C     C_R   0.501087 0.938420 0.929942 -0.177023
C52   C     C_R   0.498913 0.061580 0.070058 -0.177023
H21   H     H_    0.497446 0.244433 0.024334 0.117908
H22   H     H_    0.502553 0.755567 0.975666 0.117908
H23   H     H_    0.540994 0.306804 0.885384 0.135642
H24   H     H_    0.459006 0.693196 0.114616 0.135642
C53   C     C_1   0.301397 0.075886 0.634707 0.264175
N1    N     N_1   0.217883 0.107601 0.690146 -0.369003
C54   C     C_1   0.698602 0.924114 0.365292 0.264174
N2    N     N_1   0.782117 0.892399 0.309854 -0.369003
C55   C     C_1   0.690469 0.027433 0.776744 0.256900
N3    N     N_1   0.782163 0.991223 0.726386 -0.317779
C56   C     C_1   0.309531 0.972567 0.223256 0.256900
N4    N     N_1   0.217837 0.008777 0.273614 -0.317779

loop_
_geom_bond_atom_site_label_1
_geom_bond_atom_site_label_2
_ccdc_geom_bond_type
C26   C30   A    
C53   N1    T    
C17   H9    S    
O13   V3    S    
C12   C14   S    
O4    C2    A    
V1    O19   S    
O9    V1    S    
C9    H3    S    
C10   H4    S    
C9    C14   S    
C11   H1    S    
C40   C42   A    
C46   C56   S    
C34   C37   S    
O3    C1    A    
C36   C38   S    
C25   C27   A    
O12   V4    S    
H20   C43   S    
C39   C49   A    
C8    C13   S    
C48   C52   A    
C18   H10   S    
C19   H11   S    
C31   C33   S    
O7    C3    A    
C34   C36   S    
C9    C11   S    
O5    C7    A    
O7    V1    S    
O6    C8    A    
C16   H6    S    
C17   C19   A    
C18   C20   A    
C56   N4    T    
O3    V1    S    
O14   V4    S    
C45   C47   A    
C42   H24   S    
O14   V2    S    
C35   C37   S    
C2    O12   A    
C32   C35   S    
C13   C15   S    
C31   C36   S    
C10   C13   S    
C14   C16   S    
C11   C13   S    
O1    V3    S    
C33   C38   S    
C20   C22   A    
O11   V3    S    
C21   C23   A    
O15   C5    A    
O17   V3    S    
H8    C21   S    
C22   C24   A    
C38   C54   S    
C32   C38   S    
C9    C15   S    
C10   C16   S    
C34   H16   S    
O8    C4    A    
O8    V2    S    
C33   H15   S    
C1    O11   A    
C3    C52   S    
C24   H14   S    
O15   V3    S    
C28   C29   A    
C19   C21   A    
C41   H23   S    
C47   C49   A    
C46   C48   A    
O10   V2    S    
C48   C50   A    
C40   C50   A    
C11   C16   S    
C15   H5    S    
C1    C36   S    
C39   C41   A    
C44   C46   A    
O18   V4    S    
C49   C52   A    
H7    C22   S    
C32   H18   S    
C2    C35   S    
O16   C6    A    
C31   C37   S    
O1    C3    A    
C12   H2    S    
C4    C51   S    
C33   C35   S    
C20   H12   S    
V2    O20   S    
C27   C30   A    
C6    C30   S    
O16   V4    S    
C23   H13   S    
C25   C29   A    
O5    V1    S    
O17   C7    A    
O6    V2    S    
C55   N3    T    
O10   C6    A    
O18   C8    A    
C17   C27   A    
O2    V4    S    
C40   H22   S    
C23   C25   A    
C18   C28   A    
V3    O19   S    
V4    O20   S    
C7    C14   S    
O9    C5    A    
O13   V1    S    
C10   C12   S    
C24   C26   A    
C31   H17   S    
C42   C44   A    
C50   C51   A    
O2    C4    A    
H19   C44   S    
C47   C51   A    
O4    V2    S    
C41   C43   A    
C5    C29   S    
C39   H21   S    
C45   C55   S    
C54   N2    T    
C43   C45   A    
C37   C53   S    
C12   C15   S    
C32   C34   S    
C26   C28   A    
