data_mof_unit_4964.cif
_audit_creation_date              2012-12-10T18:02:53-0500
_audit_creation_method            fapswitch 2.2
_symmetry_space_group_name_H-M    P1
_symmetry_Int_Tables_number       1
_space_group_crystal_system       triclinic
_cell_length_a                    10.949106
_cell_length_b                    9.564145
_cell_length_c                    27.763439
_cell_angle_alpha                 89.736347
_cell_angle_beta                  92.357656
_cell_angle_gamma                 88.93148
_cell_volume                      2904.34691512

loop_
_atom_site_label
_atom_site_type_symbol
_atom_type_description
_atom_site_fract_x
_atom_site_fract_y
_atom_site_fract_z
_atom_type_partial_charge
C1    C     C_R   0.262617 0.501355 0.502765 0.809069
C2    C     C_R   0.737407 0.498644 0.497289 0.808821
C3    C     C_R   0.498271 0.513717 0.101589 -0.051439
C4    C     C_R   0.503782 0.511035 0.898477 -0.051568
C5    C     C_R   0.388151 0.534226 0.125164 -0.060244
C6    C     C_R   0.613244 0.530667 0.874763 -0.059861
C7    C     C_R   0.280193 0.563259 0.097970 -0.209286
C8    C     C_R   0.720334 0.559938 0.901760 -0.209301
C9    C     C_R   0.607524 0.487707 0.129022 -0.007950
C10   C     C_R   0.395327 0.484760 0.871225 -0.007435
C11   C     C_R   0.499019 0.501094 0.354334 -0.037693
C12   C     C_R   0.501650 0.499354 0.645663 -0.037516
C13   C     C_R   0.389833 0.509924 0.972612 0.057012
C14   C     C_R   0.612315 0.510329 0.027475 0.057017
C15   C     C_R   0.613890 0.530972 0.976780 0.003290
C16   C     C_R   0.387595 0.531986 0.023158 0.003356
C17   C     C_R   0.502584 0.517475 0.949403 0.013998
C18   C     C_R   0.499311 0.518878 0.050628 0.014077
C19   C     C_R   0.284206 0.474926 0.944712 -0.171535
C20   C     C_R   0.719017 0.475753 0.055617 -0.171326
C21   C     C_R   0.286768 0.463588 0.894858 -0.166268
C22   C     C_R   0.716768 0.465666 0.105543 -0.166201
C23   C     C_R   0.499746 0.500292 0.407427 0.812937
C24   C     C_R   0.500383 0.499732 0.592571 0.812820
C25   C     C_R   0.278985 0.566537 0.047525 0.231523
C26   C     C_R   0.721450 0.564493 0.952178 0.231406
C27   C     C_R   0.066750 0.377121 0.512624 -0.069347
C28   C     C_R   0.933329 0.622912 0.487588 -0.069172
C29   C     C_R   0.940554 0.371580 0.503957 -0.068543
C30   C     C_R   0.059497 0.628448 0.496309 -0.068455
C31   C     C_R   0.871757 0.496449 0.494877 -0.141434
C32   C     C_R   0.128298 0.503559 0.505293 -0.141660
C33   C     C_R   0.426253 0.076433 0.467881 0.036326
C34   C     C_R   0.573855 0.923568 0.532077 0.037137
C35   C     C_R   0.572516 0.072470 0.532540 0.041216
C36   C     C_R   0.427316 0.927523 0.467517 0.041515
C37   C     C_R   0.389493 0.529860 0.175768 0.555284
C38   C     C_R   0.611987 0.525394 0.824185 0.554696
C39   C     C_R   0.604459 0.482757 0.179472 0.536952
C40   C     C_R   0.398435 0.479037 0.820799 0.536600
C41   C     C_R   0.497910 0.375822 0.278375 -0.099378
C42   C     C_R   0.512883 0.625435 0.721406 -0.101591
C43   C     C_R   0.498985 0.374676 0.328639 -0.189576
C44   C     C_R   0.510652 0.625659 0.671178 -0.188742
C45   C     C_R   0.498122 0.628425 0.328775 -0.185284
C46   C     C_R   0.494274 0.372979 0.671394 -0.188382
C47   C     C_R   0.496454 0.629214 0.278542 -0.102640
C48   C     C_R   0.495977 0.373153 0.721673 -0.097009
C49   C     C_R   0.496419 0.503046 0.253257 0.354402
C50   C     C_R   0.505471 0.499339 0.746785 0.350536
Cu1   Cu    Cu3+1 0.500000 0.640660 0.500000 0.991538
Cu2   Cu    Cu3+1 0.500000 0.359340 0.500000 0.991567
H1    H     H_    0.498897 0.727452 0.347502 0.166665
H2    H     H_    0.486755 0.274111 0.652753 0.165750
H3    H     H_    0.495884 0.727810 0.259197 0.139108
H4    H     H_    0.489953 0.275350 0.741162 0.141859
H5    H     H_    0.196395 0.587765 0.115874 0.187935
H6    H     H_    0.803379 0.583752 0.883693 0.188020
H7    H     H_    0.516030 0.724716 0.652423 0.165646
H8    H     H_    0.499979 0.274968 0.347297 0.164309
H9    H     H_    0.519583 0.723361 0.740678 0.141233
H10   H     H_    0.498167 0.277999 0.258897 0.139527
H11   H     H_    0.203070 0.438091 0.874916 0.190278
H12   H     H_    0.801229 0.440349 0.125658 0.190303
H13   H     H_    0.199392 0.450149 0.960999 0.177677
H14   H     H_    0.804608 0.450259 0.039507 0.177719
N1    N     N_R   0.496614 0.504409 0.201681 -0.471278
N2    N     N_R   0.505564 0.500091 0.798405 -0.470382
N3    N     N_R   0.500000 0.852070 0.500000 -0.207362
N4    N     N_R   0.500000 0.147930 0.500000 -0.207561
O1    O     O_R   0.319640 0.618740 0.500000 -0.577437
O2    O     O_R   0.680360 0.381260 0.500000 -0.577702
O3    O     O_R   0.680360 0.618740 0.500000 -0.574564
O4    O     O_R   0.319640 0.381260 0.500000 -0.574763
O5    O     O_R   0.500020 0.618770 0.430260 -0.585564
O6    O     O_R   0.499980 0.381230 0.569740 -0.585170
O7    O     O_R   0.499980 0.618770 0.569740 -0.587291
O8    O     O_R   0.500020 0.381230 0.430260 -0.586842
O9    O     O_2   0.284759 0.550587 0.198930 -0.523037
O10   O     O_2   0.716179 0.545022 0.800921 -0.524183
O11   O     O_2   0.295055 0.454372 0.794289 -0.527005
O12   O     O_2   0.708425 0.457774 0.206180 -0.525624
C51   C     C_1   0.344309 0.152589 0.434685 0.306615
N5    N     N_1   0.277991 0.212482 0.408009 -0.274121
C52   C     C_1   0.656343 0.847446 0.565073 0.305052
N6    N     N_1   0.723186 0.787606 0.591561 -0.275172
C53   C     C_1   0.648054 0.144340 0.568010 0.307311
N7    N     N_1   0.709194 0.200550 0.596594 -0.278520
C54   C     C_1   0.351104 0.855621 0.432282 0.305561
N8    N     N_1   0.289324 0.799397 0.403917 -0.278878
N9    N     N_2   0.171429 0.618450 0.022274 -0.454410
H15   H     H_    0.091506 0.603887 0.039941 0.255070
C55   C     C_3   0.180776 0.759399 0.003761 -0.672924
H16   H     H_    0.097772 0.786570 0.981128 0.227780
H17   H     H_    0.261201 0.768607 0.980925 0.245668
H18   H     H_    0.188880 0.834673 0.034049 0.228714
N10   N     N_2   0.827415 0.616689 0.977072 -0.454431
H19   H     H_    0.907810 0.601263 0.959523 0.255100
C56   C     C_3   0.813794 0.758233 0.994565 -0.672864
H20   H     H_    0.895808 0.785573 0.017122 0.227724
H21   H     H_    0.732851 0.768577 0.017208 0.245550
H22   H     H_    0.803831 0.832665 0.963734 0.228769
C57   C     C_1   0.130319 0.254174 0.532990 0.304615
N11   N     N_1   0.180916 0.156989 0.549592 -0.247900
C58   C     C_1   0.869850 0.745935 0.467235 0.304970
N12   N     N_1   0.819341 0.843196 0.450648 -0.247896
C59   C     C_1   0.886691 0.234487 0.500182 0.318252
N13   N     N_1   0.846056 0.124135 0.496530 -0.261469
C60   C     C_1   0.113321 0.765517 0.500299 0.318457
N14   N     N_1   0.153946 0.875831 0.504129 -0.261145

loop_
_geom_bond_atom_site_label_1
_geom_bond_atom_site_label_2
_ccdc_geom_bond_type
C36   C54   S    
C53   N7    T    
C55   H16   S    
C5    C37   A    
C27   C29   A    
C8    C26   A    
C14   C18   A    
N10   H19   S    
C47   C49   A    
C52   N6    T    
C37   O9    S    
C1    O1    A    
Cu1   O1    S    
Cu2   O2    S    
C1    O4    A    
C20   H14   S    
C19   C21   A    
Cu1   O5    S    
Cu2   O4    S    
Cu2   O8    S    
C9    C22   A    
C44   H7    S    
C9    C39   A    
C33   C36   A    
C3    C18   A    
C10   C40   A    
C34   C35   A    
C12   C44   A    
C27   C57   S    
C8    H6    S    
C35   C53   S    
C56   H20   S    
C35   N4    A    
C59   N13   T    
C6    C38   A    
C11   C43   A    
C48   C50   A    
C45   H1    S    
C55   H17   S    
C41   C43   A    
C42   C44   A    
C41   H10   S    
C2    O2    A    
C41   C49   A    
N10   C56   S    
C45   C47   A    
C10   C21   A    
C46   C48   A    
C25   N9    S    
C13   C19   A    
C30   C60   S    
Cu1   Cu2   S    
C14   C20   A    
C12   C46   A    
C23   O5    A    
N9    H15   S    
C5    C7    A    
C24   O6    A    
C15   C26   A    
C6    C8    A    
Cu2   O6    S    
C1    C32   S    
C2    C31   S    
C34   C52   S    
Cu1   O7    S    
C3    C9    A    
N9    C55   S    
C51   N5    T    
C34   N3    A    
C28   C58   S    
C46   H2    S    
C33   C51   S    
C42   H9    S    
C2    O3    A    
C43   H8    S    
C42   C50   A    
C4    C17   A    
C33   N4    A    
C4    C6    A    
C56   H21   S    
C20   C22   A    
C55   H18   S    
C11   C45   A    
C4    C10   A    
C36   N3    A    
C47   H3    S    
C16   C25   A    
C48   H4    S    
C49   N1    S    
C27   C32   A    
C39   N1    A    
C40   O11   S    
C28   C31   A    
Cu1   O3    S    
C39   O12   S    
C38   N2    A    
C3    C5    A    
C15   C17   A    
C58   N12   T    
C12   C24   S    
C7    C25   A    
C13   C17   A    
C28   C30   A    
C29   C31   A    
C60   N14   T    
C30   C32   A    
C38   O10   S    
C37   N1    A    
C11   C23   S    
C19   H13   S    
C23   O8    A    
C21   H11   S    
Cu2   N4    S    
C26   N10   S    
C22   H12   S    
C24   O7    A    
C56   H22   S    
C16   C18   A    
C40   N2    A    
C13   C16   A    
C57   N11   T    
C14   C15   A    
C29   C59   S    
Cu1   N3    S    
C54   N8    T    
C50   N2    S    
C7    H5    S    
