data_mof_unit_4200.cif
_audit_creation_date              2013-03-05T16:34:33-0500
_audit_creation_method            fapswitch 2.2
_symmetry_space_group_name_H-M    P1
_symmetry_Int_Tables_number       1
_space_group_crystal_system       triclinic
_cell_length_a                    12.990664
_cell_length_b                    9.086105
_cell_length_c                    7.833254
_cell_angle_alpha                 90.024389
_cell_angle_beta                  95.728372
_cell_angle_gamma                 90.01832
_cell_volume                      919.97718702

loop_
_atom_site_label
_atom_site_type_symbol
_atom_site_description
_atom_site_fract_x
_atom_site_fract_y
_atom_site_fract_z
_atom_type_partial_charge
O1    O     O_R   0.500000 0.288400 0.642760 -0.588901
O2    O     O_R   0.500000 0.711600 0.357240 -0.572086
O3    O     O_R   0.500000 0.288400 0.357240 -0.561833
O4    O     O_R   0.500000 0.711600 0.642760 -0.564646
N1    N     N_1   0.499980 0.500000 0.076820 -0.020115
N2    N     N_1   0.500020 0.500000 0.923180 -0.026342
C1    C     C_R   0.500122 0.220230 0.500000 0.843607
C2    C     C_R   0.500078 0.779768 0.500035 0.857962
O5    O     O_R   0.349000 0.500000 0.619590 -0.568643
O6    O     O_R   0.651000 0.500000 0.380410 -0.549463
O7    O     O_R   0.348990 0.500000 0.334020 -0.564435
O8    O     O_R   0.651010 0.500000 0.665980 -0.600916
C3    C     C_R   0.299680 0.498789 0.468355 0.849560
C4    C     C_R   0.699702 0.498585 0.531237 0.804077
Cu1   Cu    Cu3+1 0.500010 0.500000 0.669080 1.052701
Cu2   Cu    Cu3+1 0.499990 0.500000 0.330920 1.079036
C5    C     C_R   0.812333 0.489404 0.547944 -0.203999
C6    C     C_R   0.185746 0.496825 0.448788 -0.090624
C7    C     C_R   0.022359 0.527216 0.269902 -0.053606
C8    C     C_R   0.975291 0.394634 0.687879 -0.049712
C9    C     C_R   0.128220 0.485923 0.285835 -0.123008
C10   C     C_R   0.865596 0.391701 0.667604 -0.040709
C11   C     C_R   0.131954 0.510028 0.594017 0.026136
C12   C     C_R   0.866491 0.563016 0.426363 0.184464
C13   C     C_R   0.026035 0.482810 0.574097 -0.035153
C14   C     C_R   0.971305 0.531144 0.421651 0.094281
C15   C     C_1   0.500197 0.065431 0.500006 -0.116044
C16   C     C_1   0.500179 0.934567 0.500060 -0.117867
I1    I     I_    0.800428 0.749693 0.287265 -0.196036
I2    I     I_    0.180537 0.676970 0.775941 -0.342501
C17   C     C_2   0.806895 0.280648 0.757695 0.523966
H1    H     H_    0.748574 0.314289 0.839397 0.114814
O9    O     O_2   0.821992 0.149478 0.737309 -0.492792
C18   C     C_2   0.173443 0.415482 0.140456 0.487413
H2    H     H_    0.156357 0.456959 0.013055 0.040576
O10   O     O_2   0.226242 0.304512 0.161942 -0.507647
C19   C     C_2   0.964330 0.536733 0.097436 0.431929
H3    H     H_    0.999612 0.587597 0.992675 0.079651
O11   O     O_2   0.878035 0.483450 0.069566 -0.525378
C20   C     C_2   0.037756 0.292312 0.805471 0.421764
H4    H     H_    0.117848 0.270472 0.785729 0.092149
O12   O     O_2   0.002176 0.232628 0.926212 -0.471630

loop_
_geom_bond_atom_site_label_1
_geom_bond_atom_site_label_2
_geom_bond_distance
_ccdc_geom_bond_type
C17   O9    1.220915 D    
C19   H3    1.082748 S    
O1    Cu1   1.933555 S    
C5    C10   1.420230 A    
C6    C9    1.416701 A    
O2    Cu2   1.933554 S    
O7    Cu2   1.964163 S    
C18   O10   1.221867 D    
C17   H1    1.083427 S    
O8    Cu1   1.964163 S    
O4    C2    1.278429 A    
C10   C17   1.485006 S    
O4    Cu1   1.933728 S    
C20   O12   1.220573 D    
O5    Cu1   1.961331 S    
C19   O11   1.220438 D    
C13   C14   1.398400 A    
O6    Cu2   1.961331 S    
O7    C3    1.285418 A    
C4    C5    1.458352 S    
C3    C6    1.472798 S    
C8    C20   1.491066 S    
C20   H4    1.085383 S    
C7    C9    1.419028 A    
O8    C4    1.283573 A    
O3    C1    1.278451 A    
C11   C13   1.391284 A    
N1    N2    1.203554 T    
C2    C16   1.406516 S    
C5    C12   1.408305 A    
C8    C13   1.410099 A    
C8    C10   1.418232 A    
Cu1   Cu2   2.648868 S    
C11   I2    2.132589 S    
C1    C15   1.406517 S    
C18   H2    1.069286 S    
O6    C4    1.283397 A    
C15   C16   1.189048 T    
C7    C14   1.418267 A    
O5    C3    1.289382 A    
C12   I1    2.148621 S    
N1    Cu2   1.990416 S    
C9    C18   1.478106 S    
C7    C19   1.482464 S    
N2    Cu1   1.990416 S    
O1    C1    1.278266 A    
O2    C2    1.278270 A    
O3    Cu2   1.933729 S    
C6    C11   1.398395 A    
C12   C14   1.396227 A    
