data_mof_unit_2814.cif
_audit_creation_date              2012-12-11T14:07:43-0500
_audit_creation_method            fapswitch 2.2
_symmetry_space_group_name_H-M    P1
_symmetry_Int_Tables_number       1
_space_group_crystal_system       triclinic
_cell_length_a                    19.728522
_cell_length_b                    16.9949
_cell_length_c                    15.349323
_cell_angle_alpha                 89.977435
_cell_angle_beta                  53.215654
_cell_angle_gamma                 89.862745
_cell_volume                      4121.69982819

loop_
_atom_site_label
_atom_site_type_symbol
_atom_type_description
_atom_site_fract_x
_atom_site_fract_y
_atom_site_fract_z
_atom_type_partial_charge
C1    C     C_R   0.339666 0.174690 0.050884 -0.114269
C2    C     C_R   0.650805 0.816010 0.073449 0.159521
C3    C     C_R   0.210663 0.646693 0.981086 0.155620
C4    C     C_R   0.150805 0.316010 0.073449 0.159522
C5    C     C_R   0.693168 0.863075 0.678174 -0.008894
C6    C     C_R   0.609948 0.184506 0.696357 -0.005259
C7    C     C_R   0.193168 0.363075 0.678174 -0.008894
C8    C     C_R   0.109948 0.684506 0.696357 -0.005260
C9    C     C_3   0.250535 0.216419 0.459355 -0.395190
C10   C     C_3   0.195682 0.872912 0.523937 -0.401941
C11   C     C_3   0.750535 0.716423 0.459351 -0.395190
C12   C     C_R   0.375316 0.802238 0.995075 -0.125472
C13   C     C_3   0.695682 0.372912 0.523937 -0.401941
C14   C     C_3   0.196190 0.264312 0.563307 -0.393417
C15   C     C_3   0.140513 0.823459 0.628140 -0.405675
C16   C     C_3   0.696189 0.764319 0.563301 -0.393418
C17   C     C_3   0.640513 0.323459 0.628140 -0.405676
C18   C     C_3   0.370118 0.218778 0.477137 -0.406924
C19   C     C_3   0.304840 0.763250 0.436469 -0.393016
C20   C     C_3   0.870113 0.718773 0.477141 -0.406923
C21   C     C_3   0.804840 0.263250 0.436469 -0.393016
C22   C     C_3   0.859819 0.824884 0.371430 -0.406688
C23   C     C_R   0.839666 0.674690 0.050884 -0.114269
C24   C     C_3   0.685482 0.267326 0.418127 -0.401789
C25   C     C_3   0.359815 0.324885 0.371428 -0.406689
C26   C     C_3   0.185482 0.767326 0.418127 -0.401790
C27   C     C_3   0.345113 0.236000 0.400091 0.403990
C28   C     C_3   0.248569 0.817901 0.423062 0.399224
C29   C     C_3   0.845113 0.735999 0.400092 0.403990
C30   C     C_3   0.748569 0.317901 0.423062 0.399224
C31   C     C_3   0.752129 0.819140 0.576715 0.399054
C32   C     C_3   0.656030 0.234522 0.599158 0.403760
C33   C     C_3   0.252129 0.319141 0.576714 0.399054
C34   C     C_R   0.875316 0.302238 0.995075 -0.125472
C35   C     C_3   0.156030 0.734522 0.599158 0.403759
C36   C     C_3   0.815781 0.768812 0.581122 -0.402073
C37   C     C_3   0.750723 0.215193 0.540137 -0.395650
C38   C     C_3   0.315787 0.268820 0.581116 -0.402068
C39   C     C_3   0.250723 0.715193 0.540138 -0.395648
C40   C     C_R   0.349490 0.828703 0.219105 -0.135891
C41   C     C_R   0.399134 0.199634 0.208620 -0.149892
C42   C     C_R   0.849490 0.328703 0.219105 -0.135890
C43   C     C_R   0.899133 0.699634 0.208620 -0.149893
C44   C     C_3   0.804412 0.874236 0.475959 -0.401438
C45   C     C_R   0.633539 0.894740 0.105271 -0.166912
C46   C     C_3   0.631505 0.217083 0.521744 -0.407386
C47   C     C_3   0.304404 0.374236 0.475957 -0.401439
C48   C     C_3   0.131505 0.717083 0.521744 -0.407386
C49   C     C_2   0.284544 0.685008 0.960000 -0.206347
C50   C     C_2   0.191232 0.259472 0.099788 -0.211246
C51   C     C_2   0.784543 0.185008 0.960000 -0.206346
C52   C     C_2   0.691232 0.759472 0.099789 -0.211244
C53   C     C_2   0.811734 0.252702 0.904498 -0.210972
C54   C     C_2   0.710997 0.687259 0.055112 -0.203347
C55   C     C_2   0.311734 0.752702 0.904498 -0.210972
C56   C     C_R   0.669420 0.082467 0.050479 -0.157650
C57   C     C_2   0.210997 0.187259 0.055112 -0.203346
C58   C     C_R   0.366047 0.888724 0.895974 -0.169284
C59   C     C_R   0.328995 0.086721 0.953093 -0.158716
C60   C     C_R   0.866047 0.388724 0.895974 -0.169284
C61   C     C_R   0.828995 0.586721 0.953093 -0.158715
C62   C     C_R   0.407917 0.107613 0.303692 -0.147578
C63   C     C_R   0.357741 0.921917 0.314935 -0.138416
C64   C     C_R   0.907917 0.607613 0.303692 -0.147578
C65   C     C_R   0.857741 0.421917 0.314935 -0.138416
C66   C     C_R   0.286882 0.147937 0.026943 0.148842
C67   C     C_R   0.133539 0.394740 0.105271 -0.166912
C68   C     C_R   0.347989 0.812289 0.932225 0.156077
C69   C     C_R   0.786882 0.647937 0.026943 0.148842
C70   C     C_R   0.847989 0.312289 0.932225 0.156077
C71   C     C_R   0.307178 0.862079 0.321993 -0.008900
C72   C     C_R   0.391386 0.185902 0.302835 -0.004590
C73   C     C_R   0.807178 0.362079 0.321993 -0.008900
C74   C     C_R   0.891386 0.685902 0.302835 -0.004590
C75   C     C_R   0.660281 0.178022 0.954325 -0.122090
C76   C     C_R   0.623440 0.799882 0.011489 -0.132196
C77   C     C_R   0.160281 0.678022 0.954325 -0.122090
C78   C     C_R   0.169421 0.582467 0.050479 -0.157649
C79   C     C_R   0.123441 0.299882 0.011489 -0.132196
C80   C     C_R   0.651035 0.829307 0.780907 -0.136737
C81   C     C_R   0.602004 0.198903 0.790578 -0.147545
C82   C     C_R   0.151035 0.329308 0.780906 -0.136736
C83   C     C_R   0.102004 0.698904 0.790578 -0.147545
C84   C     C_R   0.592505 0.106248 0.696063 -0.147955
C85   C     C_R   0.642429 0.923095 0.685154 -0.137613
C86   C     C_R   0.092504 0.606248 0.696063 -0.147955
C87   C     C_R   0.142429 0.423095 0.685154 -0.137615
C88   C     C_R   0.710663 0.146693 0.981086 0.155620
H1    H     H_    0.649715 0.799375 0.560556 0.154728
H2    H     H_    0.350877 0.798451 0.439654 0.154763
H3    H     H_    0.859495 0.655961 0.501941 0.144781
H4    H     H_    0.850877 0.298451 0.439654 0.154763
H5    H     H_    0.782558 0.728377 0.651982 0.144903
H6    H     H_    0.769721 0.228363 0.593874 0.155170
H7    H     H_    0.282571 0.228388 0.651979 0.144901
H8    H     H_    0.269721 0.728364 0.593874 0.155169
H9    H     H_    0.927737 0.839661 0.328833 0.155683
H10   H     H_    0.719134 0.226962 0.347060 0.144451
H11   H     H_    0.427732 0.339665 0.328832 0.155685
H12   H     H_    0.572499 0.338053 0.670536 0.155849
H13   H     H_    0.219134 0.726962 0.347060 0.144451
H14   H     H_    0.842804 0.840622 0.316462 0.144017
H15   H     H_    0.643903 0.305993 0.410099 0.155530
H16   H     H_    0.342799 0.340620 0.316460 0.144016
H17   H     H_    0.143904 0.805993 0.410099 0.155531
H18   H     H_    0.762663 0.911787 0.467336 0.143678
H19   H     H_    0.563123 0.229627 0.563705 0.153731
H20   H     H_    0.262650 0.411780 0.467335 0.143679
H21   H     H_    0.063123 0.729626 0.563705 0.153731
H22   H     H_    0.844854 0.913937 0.484562 0.154799
H23   H     H_    0.149708 0.299363 0.560570 0.154729
H24   H     H_    0.642893 0.154280 0.496598 0.144741
H25   H     H_    0.344844 0.413945 0.484556 0.154797
H26   H     H_    0.142893 0.654280 0.496599 0.144741
H27   H     H_    0.438392 0.231644 0.435003 0.153645
H28   H     H_    0.342151 0.722537 0.365702 0.155258
H29   H     H_    0.938387 0.731638 0.435012 0.153646
H30   H     H_    0.842151 0.222537 0.365702 0.155258
H31   H     H_    0.331954 0.777048 0.196325 0.088106
H32   H     H_    0.397315 0.255920 0.177422 0.083274
H33   H     H_    0.831954 0.277048 0.196325 0.088106
H34   H     H_    0.072499 0.838053 0.670536 0.155849
H35   H     H_    0.897314 0.755920 0.177423 0.083274
H36   H     H_    0.857063 0.807629 0.589243 0.155609
H37   H     H_    0.762912 0.151408 0.519351 0.154618
H38   H     H_    0.357072 0.307642 0.589228 0.155609
H39   H     H_    0.262912 0.651408 0.519351 0.154617
H40   H     H_    0.304424 0.665651 0.008822 0.121545
H41   H     H_    0.217938 0.282788 0.138832 0.121954
H42   H     H_    0.804424 0.165651 0.008822 0.121545
H43   H     H_    0.717938 0.782788 0.138832 0.121953
H44   H     H_    0.794196 0.270927 0.852773 0.123434
H45   H     H_    0.159381 0.223488 0.633842 0.155594
H46   H     H_    0.682444 0.662916 0.018986 0.121875
H47   H     H_    0.294196 0.770927 0.852773 0.123434
H48   H     H_    0.182444 0.162916 0.018986 0.121874
H49   H     H_    0.362556 0.914563 0.834330 0.089718
H50   H     H_    0.307608 0.052536 0.914420 0.096068
H51   H     H_    0.862556 0.414563 0.834330 0.089718
H52   H     H_    0.807608 0.552536 0.914420 0.096068
H53   H     H_    0.414274 0.077236 0.360241 0.082467
H54   H     H_    0.348265 0.957385 0.379595 0.087823
H55   H     H_    0.914275 0.577236 0.360240 0.082467
H56   H     H_    0.157187 0.839430 0.683340 0.143970
H57   H     H_    0.848265 0.457385 0.379595 0.087823
H58   H     H_    0.670793 0.229283 0.906283 0.085901
H59   H     H_    0.616697 0.743377 0.985395 0.079995
H60   H     H_    0.170793 0.729283 0.906283 0.085901
H61   H     H_    0.116697 0.243377 0.985394 0.079995
H62   H     H_    0.585652 0.076376 0.639698 0.082501
H63   H     H_    0.652000 0.958292 0.620294 0.087699
H64   H     H_    0.085651 0.576376 0.639698 0.082500
H65   H     H_    0.152000 0.458293 0.620295 0.087701
H66   H     H_    0.637708 0.921906 0.165612 0.087881
H67   H     H_    0.659372 0.723496 0.633836 0.155595
H68   H     H_    0.690579 0.048457 0.089567 0.094707
H69   H     H_    0.137708 0.421906 0.165612 0.087881
H70   H     H_    0.190579 0.548457 0.089567 0.094707
H71   H     H_    0.238901 0.152614 0.479838 0.154735
H72   H     H_    0.237066 0.910630 0.532806 0.143808
H73   H     H_    0.738897 0.652618 0.479837 0.154737
H74   H     H_    0.737066 0.410629 0.532806 0.143808
H75   H     H_    0.330132 0.223466 0.101877 0.085529
H76   H     H_    0.384201 0.747097 0.022040 0.078708
H77   H     H_    0.830132 0.723466 0.101877 0.085529
H78   H     H_    0.657187 0.339430 0.683339 0.143970
H79   H     H_    0.884201 0.247097 0.022040 0.078708
H80   H     H_    0.231220 0.229516 0.405903 0.155596
H81   H     H_    0.155013 0.912469 0.515290 0.154950
H82   H     H_    0.731223 0.729520 0.405896 0.155595
H83   H     H_    0.655013 0.412469 0.515290 0.154950
H84   H     H_    0.669161 0.778102 0.804099 0.090768
H85   H     H_    0.605188 0.254995 0.820945 0.083751
H86   H     H_    0.169161 0.278101 0.804098 0.090767
H87   H     H_    0.105188 0.754995 0.820945 0.083751
H88   H     H_    0.359501 0.155966 0.501939 0.144782
N1    N     N_R   0.408680 0.130160 0.995800 -0.044293
N2    N     N_R   0.403730 0.078230 0.935950 -0.039463
N3    N     N_R   0.903730 0.421770 0.935950 -0.038394
N4    N     N_R   0.903730 0.578230 0.935950 -0.039463
N5    N     N_R   0.426630 0.075970 0.212960 -0.030749
N6    N     N_R   0.426630 0.924030 0.212960 -0.035424
N7    N     N_R   0.926630 0.575970 0.212960 -0.030749
N8    N     N_R   0.926630 0.424030 0.212960 -0.035424
N9    N     N_R   0.591320 0.134600 0.004200 -0.045293
N10   N     N_R   0.591320 0.865400 0.004200 -0.043621
N11   N     N_R   0.091320 0.634600 0.004200 -0.045293
N12   N     N_R   0.408680 0.869840 0.995800 -0.041698
N13   N     N_R   0.091320 0.365400 0.004200 -0.043621
N14   N     N_R   0.578320 0.867660 0.846880 -0.036919
N15   N     N_R   0.578320 0.132340 0.846880 -0.032848
N16   N     N_R   0.078320 0.367660 0.846880 -0.036919
N17   N     N_R   0.078320 0.632340 0.846880 -0.032848
N18   N     N_R   0.573370 0.074390 0.787040 -0.030742
N19   N     N_R   0.573370 0.925610 0.787040 -0.035648
N20   N     N_R   0.073370 0.574390 0.787040 -0.030742
N21   N     N_R   0.073370 0.425610 0.787040 -0.035648
N22   N     N_R   0.596270 0.927870 0.064040 -0.037262
N23   N     N_R   0.908680 0.630160 0.995800 -0.044293
N24   N     N_R   0.596270 0.072130 0.064040 -0.038605
N25   N     N_R   0.096270 0.427870 0.064040 -0.037262
N26   N     N_R   0.096270 0.572130 0.064040 -0.038606
N27   N     N_R   0.908680 0.369840 0.995800 -0.041698
N28   N     N_R   0.421680 0.867580 0.153120 -0.036816
N29   N     N_R   0.421680 0.132420 0.153120 -0.033475
N30   N     N_R   0.921680 0.367580 0.153120 -0.036816
N31   N     N_R   0.921680 0.632420 0.153120 -0.033475
N32   N     N_R   0.403730 0.921770 0.935950 -0.038394
Ni1   Ni    Ni4+2 0.500000 0.131190 0.000000 0.207626
Ni2   Ni    Ni4+2 0.500000 0.868810 0.000000 0.203975
Ni3   Ni    Ni4+2 0.000000 0.631190 0.000000 0.207626
Ni4   Ni    Ni4+2 0.000000 0.368810 0.000000 0.203975
Ni5   Ni    Ni4+2 0.488650 1.000000 0.862740 0.206587
Ni6   Ni    Ni4+2 0.988650 0.500000 0.862740 0.206587
Ni7   Ni    Ni4+2 0.511350 1.000000 0.137260 0.207619
Ni8   Ni    Ni4+2 0.011350 0.500000 0.137260 0.207619

loop_
_geom_bond_atom_site_label_1
_geom_bond_atom_site_label_2
_ccdc_geom_bond_type
C44   H22   S    
C6    C32   S    
N32   Ni5   S    
C22   C29   S    
C83   H87   S    
C8    C83   A    
N7    N31   A    
C23   C69   A    
N5    N29   A    
N4    N23   A    
C84   H62   S    
C57   C66   S    
C56   H68   S    
C14   C33   S    
C55   C68   S    
C3    C49   S    
C65   C73   A    
C13   H74   S    
C16   C31   S    
C12   C68   A    
N11   N26   A    
C9    H71   S    
C24   H10   S    
C40   C71   A    
C46   H24   S    
C10   C15   S    
C26   H13   S    
N17   Ni3   S    
C53   C70   S    
C15   H34   S    
C61   C69   A    
C12   N12   A    
C25   H16   S    
C23   N23   A    
C11   H73   S    
N24   Ni7   S    
N8    N30   A    
N1    Ni1   S    
N21   Ni6   S    
N16   Ni4   S    
C81   N15   A    
C10   H81   S    
C5    C31   S    
C86   N20   A    
C23   H77   S    
C64   N7    A    
N12   Ni2   S    
C36   H5    S    
C25   H11   S    
C7    C87   A    
C82   H86   S    
C76   H59   S    
C84   N18   A    
C56   C88   A    
C38   H7    S    
C87   H65   S    
C57   H48   S    
C60   C70   A    
C25   C47   S    
C8    C86   A    
C26   C48   S    
C79   H61   S    
C5    C85   A    
C43   C74   A    
C48   H21   S    
C16   H1    S    
C75   H58   S    
C63   N6    A    
N31   Ni3   S    
C7    C33   S    
C75   N9    A    
C1    N1    A    
N18   Ni5   S    
N22   Ni7   S    
C26   H17   S    
C15   C35   S    
C20   H29   S    
C38   H38   S    
C51   H42   S    
C52   C54   D    
C37   H37   S    
C20   C29   S    
C9    H80   S    
C2    C45   A    
C14   H23   S    
C20   H3    S    
C22   C44   S    
C78   H70   S    
C31   C44   S    
C18   H27   S    
C43   N31   A    
C41   N29   A    
C40   N28   A    
C13   C30   S    
C6    C84   A    
C4    C79   A    
N5    Ni7   S    
C30   C73   S    
C85   N19   A    
C76   N10   A    
C29   C74   S    
C59   H50   S    
N13   N25   A    
C45   N22   A    
N16   N21   A    
C11   H82   S    
C4    C50   S    
C51   C53   D    
C8    C35   S    
C81   H85   S    
C83   N17   A    
C35   C39   S    
C9    C14   S    
C85   H63   S    
N25   Ni8   S    
C21   H30   S    
C67   N25   A    
C50   H41   S    
C86   H64   S    
C12   H76   S    
N20   Ni6   S    
C11   C16   S    
N29   Ni1   S    
C34   N27   A    
N17   N20   A    
C46   H19   S    
C40   H31   S    
C16   H67   S    
C1    C66   A    
C62   C72   A    
C67   H69   S    
C53   H44   S    
C32   C37   S    
C5    C80   A    
C19   C28   S    
C77   H60   S    
C11   C29   S    
C35   C48   S    
C63   C71   A    
C19   C39   S    
N14   N19   A    
N15   Ni1   S    
C41   C72   A    
C58   H49   S    
C58   C68   A    
C14   H45   S    
N11   Ni3   S    
C47   H20   S    
N10   Ni2   S    
C43   H35   S    
N6    Ni7   S    
C77   N11   A    
N9    Ni1   S    
N27   Ni4   S    
C52   H43   S    
C28   C71   S    
C87   N21   A    
C62   H53   S    
C65   H57   S    
C34   H79   S    
C3    C77   A    
C10   H72   S    
C60   N3    A    
N6    N28   A    
C2    C76   A    
C9    C27   S    
C48   H26   S    
C80   N14   A    
C10   C28   S    
N7    Ni8   S    
C47   H25   S    
C49   H40   S    
C34   C70   A    
N12   N32   A    
C42   C73   A    
C64   C74   A    
N2    Ni5   S    
C36   H36   S    
C50   C57   D    
C32   C46   S    
C59   N2    A    
C18   C27   S    
C78   N26   A    
N3    N27   A    
N13   Ni4   S    
C51   C88   S    
C4    C67   A    
C61   H52   S    
C64   H55   S    
C44   H18   S    
C25   C27   S    
C21   C30   S    
C26   C28   S    
C33   C38   S    
C22   H14   S    
C2    C52   S    
C13   C17   S    
C17   H78   S    
C24   H15   S    
C24   C46   S    
N4    Ni6   S    
N14   Ni2   S    
N15   N18   A    
C58   N32   A    
C59   C66   A    
C19   H2    S    
C49   C55   D    
C62   N5    A    
C39   H39   S    
C54   C69   S    
C19   H28   S    
C55   H47   S    
N9    N24   A    
N3    Ni6   S    
C33   C47   S    
C63   H54   S    
C37   H6    S    
C42   N30   A    
N23   Ni3   S    
C41   H32   S    
C18   C38   S    
C17   H12   S    
C24   C30   S    
C39   H8    S    
N19   Ni5   S    
N8    Ni8   S    
C27   C72   S    
C60   H51   S    
C15   H56   S    
C20   C36   S    
N30   Ni4   S    
C75   C88   A    
C13   H83   S    
C7    C82   A    
C21   C37   S    
C1    H75   S    
C61   N4    A    
N1    N2    A    
C79   N13   A    
N28   Ni2   S    
C6    C81   A    
C17   C32   S    
C80   H84   S    
C31   C36   S    
N10   N22   A    
C22   H9    S    
C45   H66   S    
N26   Ni8   S    
C3    C78   A    
C65   N8    A    
C82   N16   A    
C42   H33   S    
C18   H88   S    
C56   N24   A    
C21   H4    S    
C54   H46   S    
