data_mof_unit_2624.cif
_audit_creation_date              2012-10-26T20:31:59-0400
_audit_creation_method            fapswitch 2.2
_symmetry_space_group_name_H-M    P1
_symmetry_Int_Tables_number       1
_space_group_crystal_system       triclinic
_cell_length_a                    10.643784
_cell_length_b                    10.815569
_cell_length_c                    9.549468
_cell_angle_alpha                 90.026783
_cell_angle_beta                  89.291843
_cell_angle_gamma                 90.155236
_cell_volume                      1099.2330945

loop_
_atom_site_label
_atom_site_type_symbol
_atom_type_description
_atom_site_fract_x
_atom_site_fract_y
_atom_site_fract_z
_atom_type_partial_charge
C1    C     C_R   0.497745 0.262347 0.499984 0.552579
C2    C     C_R   0.490881 0.936466 0.625823 0.020120
C3    C     C_3   0.584758 0.930550 0.740620 -0.276208
C4    C     C_R   0.259534 0.499890 0.500922 0.578027
C5    C     C_3   0.584118 0.070906 0.740858 -0.262944
C6    C     C_R   0.560810 0.591249 0.072834 0.158624
C7    C     C_R   0.430232 0.417097 0.075336 -0.004462
C8    C     C_R   0.430192 0.417108 0.926467 -0.011701
C9    C     C_R   0.561060 0.591085 0.925467 0.151464
C10   C     C_3   0.698025 0.620398 0.918109 -0.265091
C11   C     C_3   0.697542 0.620790 0.076918 -0.288243
C12   C     C_3   0.962051 0.499302 0.365027 -0.166950
C13   C     C_R   0.498027 0.737663 0.500000 0.564595
C14   C     C_R   0.740464 0.499902 0.499186 0.612617
C15   C     C_3   0.038435 0.499371 0.636729 -0.143367
C16   C     C_3   0.957409 0.400332 0.564723 0.194341
C17   C     C_3   0.876912 0.500089 0.497376 0.059778
C18   C     C_3   0.958163 0.599935 0.565712 0.254044
C19   C     C_3   0.042835 0.599161 0.435440 0.232610
C20   C     C_3   0.995530 0.769580 0.704565 -0.123001
C21   C     C_3   0.043484 0.397091 0.433956 -0.160251
C22   C     C_3   0.123158 0.499135 0.503239 -0.000141
C23   C     C_R   0.490542 0.063690 0.625823 0.012618
C24   C     C_R   0.485626 0.129211 0.500207 0.013447
C25   C     C_R   0.463532 0.064306 0.375255 -0.159856
C26   C     C_R   0.463774 0.935382 0.375267 -0.146207
C27   C     C_R   0.486087 0.870764 0.500233 0.020163
Cu1   Cu    Cu3+1 0.499990 0.499980 0.640670 0.968788
Cu2   Cu    Cu3+1 0.500010 0.500020 0.359330 0.963899
H1    H     H_    0.675989 0.890534 0.705411 0.162539
H2    H     H_    0.071124 0.496752 0.746623 0.112226
H3    H     H_    0.931331 0.500443 0.254608 0.116900
H4    H     H_    0.080968 0.312507 0.382691 0.121720
H5    H     H_    0.451875 0.112483 0.276869 0.127751
H6    H     H_    0.452268 0.887031 0.276875 0.141648
H7    H     H_    0.544302 0.889710 0.838069 0.134884
H8    H     H_    0.980781 0.248273 0.663665 0.317894
H9    H     H_    0.080263 0.791635 0.639724 0.160409
H10   H     H_    0.021942 0.715833 0.798874 0.115051
H11   H     H_    0.954899 0.858401 0.741212 0.132917
H12   H     H_    0.542989 0.111042 0.838275 0.135312
H13   H     H_    0.018273 0.750944 0.336404 0.328053
H14   H     H_    0.675027 0.112449 0.706213 0.178847
H15   H     H_    0.375670 0.348445 0.131838 0.109301
H16   H     H_    0.375607 0.348477 0.871390 0.111034
H17   H     H_    0.755162 0.544059 0.872674 0.181629
H18   H     H_    0.716944 0.712941 0.872065 0.142771
H19   H     H_    0.753669 0.544292 0.121307 0.150692
H20   H     H_    0.715866 0.713547 0.122623 0.125862
N1    N     N_R   0.500800 0.500930 0.147930 -0.229409
N2    N     N_R   0.500800 0.500890 0.852020 -0.232978
O1    O     O_R   0.500000 0.319640 0.618810 -0.504097
O2    O     O_3   0.903971 0.706126 0.627132 -0.582573
O3    O     O_3   0.092222 0.704000 0.368961 -0.694349
O4    O     O_R   0.500010 0.319680 0.381230 -0.518985
O5    O     O_R   0.316850 0.499950 0.618770 -0.522989
O6    O     O_R   0.316860 0.499990 0.381190 -0.477459
O7    O     O_R   0.499990 0.680320 0.618770 -0.499060
O8    O     O_R   0.500000 0.680360 0.381190 -0.501637
O9    O     O_R   0.683140 0.500010 0.618810 -0.468311
O10   O     O_R   0.683150 0.500050 0.381230 -0.523512
O11   O     O_3   0.907237 0.295729 0.630935 -0.701373

loop_
_geom_bond_atom_site_label_1
_geom_bond_atom_site_label_2
_ccdc_geom_bond_type
C4    O6    A    
C12   C17   S    
C15   C18   S    
C23   C24   A    
C15   H2    S    
C2    C27   A    
C11   H20   S    
Cu1   O7    S    
C3    H1    S    
C14   O9    A    
C9    C10   S    
C13   C27   S    
C9    N2    A    
C25   H5    S    
C16   C17   S    
C6    C9    A    
C2    C3    S    
C1    O4    A    
C7    C8    A    
C7    H15   S    
C4    O5    A    
Cu1   O1    S    
C14   C17   S    
C11   H19   S    
C16   C21   S    
C16   O11   S    
C3    H7    S    
Cu1   O5    S    
C13   O8    A    
C12   C19   S    
Cu1   Cu2   S    
Cu1   N2    S    
Cu2   O6    S    
H8    O11   S    
C20   H9    S    
Cu2   N1    S    
Cu1   O9    S    
C26   C27   A    
C20   H11   S    
C1    O1    A    
Cu2   O10   S    
C21   H4    S    
C10   C11   S    
C6    C11   S    
C10   H17   S    
C15   C16   S    
C6    N1    A    
Cu2   O8    S    
C26   H6    S    
C10   H18   S    
C19   C22   S    
C4    C22   S    
C24   C25   A    
C19   O3    S    
C1    C24   S    
C17   C18   S    
C18   C19   S    
C8    N2    A    
C2    C23   A    
C20   H10   S    
C5    H12   S    
C8    H16   S    
C5    H14   S    
C13   O7    A    
Cu2   O4    S    
C18   O2    S    
C25   C26   A    
C21   C22   S    
C14   O10   A    
C12   C21   S    
C15   C22   S    
C12   H3    S    
H13   O3    S    
C7    N1    A    
C20   O2    S    
C3    C5    S    
C5    C23   S    
