data_mof_unit_608.cif
_audit_creation_date              2013-03-05T15:50:43-0500
_audit_creation_method            fapswitch 2.2
_symmetry_space_group_name_H-M    P1
_symmetry_Int_Tables_number       1
_space_group_crystal_system       triclinic
_cell_length_a                    10.820173
_cell_length_b                    12.105878
_cell_length_c                    12.945985
_cell_angle_alpha                 93.573371
_cell_angle_beta                  91.934352
_cell_angle_gamma                 86.240896
_cell_volume                      1688.07697387

loop_
_atom_site_label
_atom_site_type_symbol
_atom_site_description
_atom_site_fract_x
_atom_site_fract_y
_atom_site_fract_z
_atom_type_partial_charge
O1    O     O_R   0.506240 0.421700 0.658830 -0.560093
O2    O     O_R   0.491240 0.609310 0.646410 -0.600944
C1    C     C_R   0.488673 0.521658 0.699558 1.015542
O3    O     O_R   0.692710 0.406190 0.506230 -0.557680
O4    O     O_R   0.677700 0.593810 0.493810 -0.575655
C2    C     C_R   0.742116 0.499814 0.496273 1.108068
Zn1   Zn    Zn3+2 0.510020 0.374730 0.508290 1.168010
Zn2   Zn    Zn3+2 0.489980 0.625270 0.491710 1.133097
O5    O     O_R   0.508760 0.390690 0.353590 -0.601448
O6    O     O_R   0.493760 0.578300 0.341170 -0.571196
O7    O     O_R   0.322300 0.406190 0.506190 -0.561849
O8    O     O_R   0.307290 0.593810 0.493770 -0.576650
C3    C     C_R   0.502514 0.477891 0.299302 1.073242
C4    C     C_R   0.258338 0.499295 0.496083 1.041706
C5    C     C_3   0.937405 0.378011 0.463254 0.611951
C6    C     C_3   0.078801 0.382224 0.450410 0.973913
C7    C     C_3   0.918096 0.580633 0.404462 0.218306
C8    C     C_3   0.933458 0.543834 0.602429 -0.018460
C9    C     C_3   0.878989 0.500596 0.492905 -0.613253
H1    H     H_    0.915668 0.634010 0.611094 0.274496
C10   C     C_3   0.122240 0.499380 0.491055 -0.568152
C11   C     C_3   0.063522 0.592388 0.418739 0.643436
C12   C     C_3   0.075700 0.519780 0.604873 -0.037733
H2    H     H_    0.098612 0.440557 0.641943 0.234230
C13   C     C_R   0.501829 0.464951 0.186602 -0.338010
C14   C     C_R   0.469320 0.533752 0.810039 -0.229455
C15   C     C_R   0.446024 0.649433 0.968147 0.388158
C16   C     C_R   0.452462 0.638436 0.860835 -0.197560
C17   C     C_R   0.468444 0.438721 0.865647 0.777157
C18   C     C_R   0.480170 0.447578 0.972219 -0.296375
C19   C     C_R   0.461934 0.552740 0.024724 -0.239192
C20   C     C_R   0.456935 0.556970 0.131683 0.706033
C21   C     C_R   0.543575 0.364666 0.132202 0.097421
C22   C     C_R   0.517965 0.353744 0.025960 0.731492
H3    H     H_    0.444893 0.711719 0.817399 0.258843
N1    N     N_R   0.523380 0.207800 0.519350 -0.211657
N2    N     N_R   0.476620 0.792180 0.480650 -0.209022
C23   C     C_R   0.400678 0.949268 0.387045 0.699547
C24   C     C_R   0.409618 0.834877 0.400151 -0.033267
C25   C     C_R   0.532432 0.860845 0.553354 0.433654
C26   C     C_R   0.530560 0.976386 0.540485 -0.178507
C27   C     C_R   0.466270 0.022156 0.455691 -0.203965
C28   C     C_R   0.468016 0.139071 0.444335 0.408714
C29   C     C_R   0.584094 0.161137 0.603307 0.395032
C30   C     C_R   0.591865 0.046433 0.611259 -0.121845
H4    H     H_    0.646806 0.012732 0.674601 0.245741
H5    H     H_    0.360486 0.779943 0.346676 0.250827
F1    F     F_    0.887584 0.340581 0.368726 -0.506119
N3    N     N_R   0.138852 0.604357 0.670352 0.263331
O9    O     O_R   0.116743 0.709941 0.659302 -0.201422
O10   O     O_R   0.201103 0.573938 0.752563 -0.360300
N4    N     N_R   0.855054 0.694497 0.412314 0.272179
O11   O     O_R   0.803758 0.737285 0.330170 -0.229648
O12   O     O_R   0.862807 0.760123 0.495358 -0.255839
F2    F     F_    0.083656 0.693651 0.469798 -0.549083
F3    F     F_    0.403574 0.649065 0.181749 -0.576262
N5    N     N_R   0.620341 0.278902 0.180331 0.280996
O13   O     O_R   0.634860 0.179752 0.135632 -0.146392
O14   O     O_R   0.697250 0.305033 0.255488 -0.220474
N6    N     N_R   0.437757 0.759120 0.017517 0.285226
O15   O     O_R   0.360286 0.834680 0.980726 -0.213960
O16   O     O_R   0.523981 0.789387 0.083874 -0.221267
F4    F     F_    0.544801 0.255048 0.973166 -0.479465
F5    F     F_    0.454487 0.337673 0.816570 -0.545881
N7    N     N_R   0.416913 0.184184 0.351845 0.249669
O17   O     O_R   0.454837 0.143055 0.262554 -0.239478
O18   O     O_R   0.315428 0.246982 0.355029 -0.195212
N8    N     N_R   0.910736 0.294022 0.536554 0.266674
O19   O     O_R   0.851780 0.207943 0.502564 -0.220811
O20   O     O_R   0.963493 0.291766 0.628151 -0.271981
N9    N     N_R   0.639184 0.225937 0.687338 0.261793
O21   O     O_R   0.643436 0.189451 0.779957 -0.198821
O22   O     O_R   0.711677 0.302939 0.669581 -0.266374
F6    F     F_    0.323559 0.986662 0.310302 -0.507389
N10   N     N_R   0.584821 0.816963 0.646360 0.215319
O23   O     O_R   0.688908 0.757308 0.644238 -0.283977
O24   O     O_R   0.542655 0.855399 0.735306 -0.344713
F7    F     F_    0.140149 0.297087 0.502951 -0.566812
F8    F     F_    0.106481 0.361382 0.347354 -0.492019
N11   N     N_R   0.880583 0.530188 0.300778 0.262122
O25   O     O_R   0.958489 0.483885 0.234312 -0.171485
O26   O     O_R   0.763406 0.528997 0.275262 -0.338968
N12   N     N_R   0.124214 0.597677 0.318737 0.256391
O27   O     O_R   0.212480 0.526354 0.287810 -0.327984
O28   O     O_R   0.094376 0.681232 0.262282 -0.195283
N13   N     N_R   0.874955 0.502825 0.692949 0.271784
O29   O     O_R   0.942323 0.463353 0.769141 -0.209101
O30   O     O_R   0.760740 0.535634 0.711754 -0.335610

loop_
_geom_bond_atom_site_label_1
_geom_bond_atom_site_label_2
_geom_bond_distance
_ccdc_geom_bond_type
C6    C10   1.577017 S    
Zn1   N1    2.030156 S    
C30   H4    1.081333 S    
N4    O11   1.303221 A    
C5    C9    1.603583 S    
C2    C9    1.483777 S    
C8    N13   1.477925 S    
C4    C10   1.471778 S    
C23   C27   1.419093 A    
N2    C25   1.368022 A    
C15   N6    1.436044 S    
O4    C2    1.296409 A    
Zn2   O6    1.996835 S    
O7    C4    1.294794 A    
N13   O30   1.299298 A    
N5    O14   1.296443 A    
C5    C6    1.549004 S    
C29   N9    1.437112 S    
N6    O16   1.301584 A    
C8    C9    1.588481 S    
C26   C27   1.403449 A    
O5    C3    1.301086 A    
C19   C20   1.385187 A    
C16   H3    1.076799 S    
N8    O19   1.302886 A    
N7    O18   1.294258 A    
C12   H2    1.108928 S    
C6    F7    1.390238 S    
Zn2   O8    2.038821 S    
C13   C20   1.409557 A    
C17   F5    1.357848 S    
C10   C11   1.595403 S    
C3    C13   1.457477 S    
C5    F1    1.382710 S    
O3    Zn1   2.038820 S    
C7    N4    1.496536 S    
N4    O12   1.300066 A    
C23   C24   1.402292 A    
C18   C22   1.400010 A    
C15   C19   1.417124 A    
C8    C12   1.547154 S    
N11   O26   1.300135 A    
N9    O22   1.292997 A    
N13   O29   1.302754 A    
N3    O10   1.299986 A    
C7    N11   1.494307 S    
N6    O15   1.301179 A    
O1    C1    1.294409 A    
Zn1   O7    2.041455 S    
N10   O23   1.297569 A    
C17   C18   1.379358 A    
N12   O27   1.300982 A    
C28   N7    1.426514 S    
C21   C22   1.393711 A    
N10   O24   1.300558 A    
O3    C2    1.299727 A    
C25   C26   1.417650 A    
N12   O28   1.301903 A    
O8    C4    1.294377 A    
N3    O9    1.300714 A    
C10   C12   1.572949 S    
N1    C29   1.382647 A    
Zn2   N2    2.029915 S    
C29   C30   1.395632 A    
C24   H5    1.080866 S    
C23   F6    1.356043 S    
Zn1   O5    2.023498 S    
C21   N5    1.445244 S    
O1    Zn1   1.996835 S    
C1    C14   1.449516 S    
O2    Zn2   2.023499 S    
N11   O25   1.300803 A    
O6    C3    1.298669 A    
O4    Zn2   2.041454 S    
C11   F2    1.382555 S    
C14   C16   1.394864 A    
C7    C11   1.592749 S    
C25   N10   1.430887 S    
C6    F8    1.381467 S    
C11   N12   1.478059 S    
O2    C1    1.302420 A    
N9    O21   1.301754 A    
N2    C24   1.358605 A    
N5    O13   1.301959 A    
C18   C19   1.410660 A    
C5    N8    1.481483 S    
C22   F4    1.358344 S    
C7    C9    1.628991 S    
C8    H1    1.095440 S    
C12   N3    1.475894 S    
C14   C17   1.395342 A    
N8    O20   1.299630 A    
N7    O17   1.298467 A    
C27   C28   1.433477 A    
C15   C16   1.391003 A    
C26   C30   1.390837 A    
N1    C28   1.385495 A    
C20   F3    1.359131 S    
C13   C21   1.420177 A    
