data_mof_unit_3642.cif
_audit_creation_date              2012-12-10T19:00:46-0500
_audit_creation_method            fapswitch 2.2
_symmetry_space_group_name_H-M    P1
_symmetry_Int_Tables_number       1
_space_group_crystal_system       triclinic
_cell_length_a                    15.058405
_cell_length_b                    10.811245
_cell_length_c                    9.528935
_cell_angle_alpha                 89.667409
_cell_angle_beta                  89.967135
_cell_angle_gamma                 90.214768
_cell_volume                      1551.2743164

loop_
_atom_site_label
_atom_site_type_symbol
_atom_type_description
_atom_site_fract_x
_atom_site_fract_y
_atom_site_fract_z
_atom_type_partial_charge
C1    C     C_R   0.497910 0.262357 0.500428 0.813794
C2    C     C_R   0.905360 0.570390 0.609903 0.063700
C3    C     C_R   0.954872 0.395159 0.282716 -0.182706
C4    C     C_R   0.047255 0.395989 0.284091 -0.173051
C5    C     C_R   0.093262 0.455584 0.392279 0.118538
C6    C     C_R   0.046482 0.515613 0.500473 0.030679
C7    C     C_R   0.092801 0.578361 0.608034 0.021518
C8    C     C_R   0.044135 0.635353 0.715619 -0.183947
C9    C     C_R   0.951667 0.631184 0.717924 0.134891
C10   C     C_R   0.185457 0.454443 0.394470 -0.253702
C11   C     C_R   0.232148 0.514817 0.500948 -0.106642
C12   C     C_R   0.328829 0.505932 0.500265 0.841644
C13   C     C_R   0.186445 0.581916 0.605513 0.111079
C14   C     C_R   0.500532 0.062324 0.624847 0.127678
C15   C     C_R   0.487185 0.129590 0.501788 -0.139928
C16   C     C_R   0.457056 0.067394 0.381921 -0.234160
C17   C     C_R   0.454038 0.938160 0.379620 0.152461
C18   C     C_R   0.483778 0.870794 0.498982 -0.153109
C19   C     C_R   0.499277 0.935368 0.623189 0.137983
C20   C     C_3   0.573636 0.926169 0.726437 -0.453363
C21   C     C_3   0.575130 0.066687 0.727873 -0.446704
C22   C     C_R   0.545462 0.589044 0.073133 0.297925
C23   C     C_R   0.495550 0.737668 0.499285 0.833487
C24   C     C_R   0.448369 0.419686 0.075072 -0.056278
C25   C     C_R   0.448401 0.419633 0.926040 -0.046877
C26   C     C_R   0.545559 0.588919 0.925629 0.274809
C27   C     C_3   0.643100 0.612572 0.920300 -0.509491
C28   C     C_3   0.642774 0.613977 0.079322 -0.467800
C29   C     C_R   0.671248 0.500997 0.499872 0.807886
C30   C     C_R   0.812632 0.565032 0.608227 -0.217617
C31   C     C_R   0.767804 0.504961 0.499561 -0.077299
C32   C     C_R   0.814985 0.450094 0.390216 -0.231549
C33   C     C_R   0.907452 0.452679 0.390391 0.126608
C34   C     C_R   0.953103 0.513049 0.500359 0.046915
Cu1   Cu    Cu3+1 0.500000 0.499980 0.640670 0.969179
Cu2   Cu    Cu3+1 0.500000 0.500020 0.359330 0.969248
H1    H     H_    0.774319 0.609406 0.689223 0.171595
H2    H     H_    0.551602 0.884867 0.827813 0.219209
H3    H     H_    0.634595 0.884873 0.680630 0.194115
H4    H     H_    0.554185 0.106180 0.830095 0.208907
H5    H     H_    0.636847 0.107281 0.682545 0.199218
H6    H     H_    0.407994 0.353063 0.131569 0.136455
H7    H     H_    0.408076 0.352958 0.870491 0.146242
H8    H     H_    0.680779 0.533111 0.877394 0.226162
H9    H     H_    0.659383 0.703909 0.872730 0.209246
H10   H     H_    0.681088 0.536271 0.125818 0.218776
H11   H     H_    0.779680 0.403553 0.306408 0.145451
H12   H     H_    0.657820 0.706557 0.123738 0.216365
H13   H     H_    0.920484 0.348710 0.198031 0.152976
H14   H     H_    0.082792 0.349960 0.200486 0.152814
H15   H     H_    0.221237 0.404902 0.313581 0.158224
H16   H     H_    0.076814 0.681985 0.801149 0.205958
H17   H     H_    0.438369 0.118727 0.288599 0.177221
N1    N     N_R   0.500570 0.500930 0.147930 -0.190043
N2    N     N_R   0.500570 0.500890 0.852020 -0.188243
O1    O     O_R   0.500000 0.319640 0.618810 -0.584011
O2    O     O_R   0.500010 0.319680 0.381230 -0.592314
O3    O     O_R   0.370250 0.499950 0.618800 -0.561048
O4    O     O_R   0.370260 0.499990 0.381220 -0.576375
O5    O     O_R   0.499990 0.680320 0.618770 -0.569237
O6    O     O_R   0.500000 0.680360 0.381190 -0.556251
O7    O     O_R   0.629740 0.500010 0.618780 -0.590970
O8    O     O_R   0.629750 0.500050 0.381200 -0.589032
I1    I     I_    0.404601 0.858746 0.190923 -0.348609
I2    I     I_    0.258023 0.699712 0.748415 -0.322864
I3    I     I_    0.888432 0.718655 0.890660 -0.415736

loop_
_geom_bond_atom_site_label_1
_geom_bond_atom_site_label_2
_ccdc_geom_bond_type
Cu1   O1    S    
C11   C12   S    
C29   O8    A    
C24   C25   A    
C6    C7    A    
C1    C15   S    
C1    O2    A    
Cu2   O8    S    
C24   H6    S    
C8    H16   S    
C19   C20   S    
C14   C15   A    
C7    C13   A    
C2    C30   A    
Cu2   O4    S    
C12   O3    A    
C32   C33   A    
C27   H9    S    
C17   C18   A    
C3    H13   S    
C5    C10   A    
C22   N1    A    
C22   C28   S    
C4    C5    A    
C26   N2    A    
C23   O5    A    
C11   C13   A    
C28   H10   S    
C26   C27   S    
C5    C6    A    
C21   H4    S    
Cu1   O3    S    
C21   H5    S    
C10   H15   S    
C14   C19   A    
C14   C21   S    
C25   H7    S    
C1    O1    A    
C33   C34   A    
Cu1   O7    S    
C12   O4    A    
C17   I1    S    
C30   C31   A    
C32   H11   S    
Cu2   N1    S    
C10   C11   A    
C3    C33   A    
C24   N1    A    
C15   C16   A    
C25   N2    A    
C23   O6    A    
C20   H2    S    
C20   C21   S    
Cu2   O2    S    
C6    C34   A    
C29   C31   S    
C7    C8    A    
C22   C26   A    
C27   C28   S    
C20   H3    S    
C18   C19   A    
C30   H1    S    
C9    I3    S    
C8    C9    A    
C13   I2    S    
C2    C34   A    
C29   O7    A    
C2    C9    A    
Cu1   N2    S    
C27   H8    S    
C31   C32   A    
C28   H12   S    
C3    C4    A    
C18   C23   S    
C16   C17   A    
C4    H14   S    
Cu1   O5    S    
C16   H17   S    
Cu1   Cu2   S    
Cu2   O6    S    
