data_mof_unit_2705.cif
_audit_creation_date              2012-12-11T16:08:54-0500
_audit_creation_method            fapswitch 2.2
_symmetry_space_group_name_H-M    P1
_symmetry_Int_Tables_number       1
_space_group_crystal_system       triclinic
_cell_length_a                    13.013047
_cell_length_b                    13.31611
_cell_length_c                    27.626881
_cell_angle_alpha                 94.47905
_cell_angle_beta                  90.470673
_cell_angle_gamma                 118.524378
_cell_volume                      4187.65667313

loop_
_atom_site_label
_atom_site_type_symbol
_atom_type_description
_atom_site_fract_x
_atom_site_fract_y
_atom_site_fract_z
_atom_type_partial_charge
C1    C     C_R   0.628924 0.894781 0.427997 0.546766
C2    C     C_R   0.131256 0.724080 0.311461 -0.010747
C3    C     C_3   0.844964 0.249158 0.888966 -0.010406
C4    C     C_3   0.788671 0.213048 0.937509 -0.257509
C5    C     C_3   0.773132 0.095478 0.947271 -0.463251
C6    C     C_3   0.147363 0.097570 0.729992 0.031058
C7    C     C_3   0.041123 0.100649 0.752142 -0.242448
C8    C     C_3   0.078490 0.208931 0.786444 -0.504927
C9    C     C_3   0.841205 0.755253 0.671970 0.035714
C10   C     C_3   0.857572 0.674715 0.704349 -0.268728
C11   C     C_3   0.888548 0.592488 0.674615 -0.476009
C12   C     C_3   0.388135 0.632732 0.809136 0.014021
C13   C     C_R   0.103100 0.700783 0.210072 0.003621
C14   C     C_3   0.331468 0.615293 0.858234 -0.258368
C15   C     C_3   0.248534 0.488605 0.863204 -0.478569
C16   C     C_3   0.391559 0.657107 0.673855 -0.011542
C17   C     C_3   0.339371 0.668938 0.626176 -0.243668
C18   C     C_3   0.318496 0.572048 0.587390 -0.448565
C19   C     C_3   0.388381 0.212487 0.290204 0.023605
C20   C     C_3   0.397334 0.292074 0.335242 -0.275061
C21   C     C_3   0.294871 0.317486 0.335782 -0.458862
C22   C     C_R   0.601853 0.224359 0.441397 0.547099
C23   C     C_R   0.148261 0.637750 0.233674 0.129303
C24   C     C_R   0.156974 0.645818 0.284645 0.100573
C25   C     C_R   0.064857 0.676937 0.160624 0.089327
C26   C     C_R   0.047892 0.759480 0.136699 -0.009693
C27   C     C_R   0.153379 0.922236 0.365104 0.245655
C28   C     C_R   0.115282 0.899977 0.315541 0.008833
C29   C     C_R   0.112525 0.804417 0.288054 -0.005656
C30   C     C_R   0.590876 0.279970 0.225057 -0.098426
C31   C     C_R   0.095309 0.978601 0.291731 -0.106677
C32   C     C_R   0.086012 0.970621 0.241086 0.065569
C33   C     C_R   0.080139 0.874049 0.213712 0.026263
C34   C     C_R   0.262722 0.874291 0.428082 0.565737
C35   C     C_R   0.096731 0.792073 0.237265 -0.004154
C36   C     C_R   0.059441 0.858319 0.163412 -0.134298
C37   C     C_R   0.179194 0.843166 0.386298 -0.004812
C38   C     C_R   0.751867 0.938426 0.357854 -0.135786
C39   C     C_R   0.753171 0.929712 0.307512 0.016035
C40   C     C_R   0.743719 0.915574 0.205973 -0.042540
C41   C     C_R   0.578759 0.268414 0.274951 0.287048
C42   C     C_R   0.819462 0.018627 0.232823 -0.075168
C43   C     C_R   0.827792 0.025253 0.283336 0.271616
C44   C     C_R   0.747599 0.906452 0.155758 -0.169384
C45   C     C_R   0.679758 0.800932 0.128717 -0.019560
C46   C     C_R   0.627226 0.899017 0.564845 0.534329
C47   C     C_R   0.581949 0.749909 0.355423 -0.116227
C48   C     C_R   0.592291 0.733371 0.305172 0.029332
C49   C     C_R   0.672008 0.826921 0.280799 0.024171
C50   C     C_R   0.520537 0.628143 0.278293 -0.108714
C51   C     C_R   0.521802 0.618282 0.227510 -0.071121
C52   C     C_R   0.669596 0.344424 0.308449 0.028047
C53   C     C_R   0.592706 0.714371 0.202627 0.046639
C54   C     C_R   0.669585 0.818678 0.229757 0.004417
C55   C     C_R   0.591485 0.708005 0.151410 0.251890
C56   C     C_R   0.657536 0.856296 0.381108 -0.024136
C57   C     C_R   0.736668 0.288100 0.651732 -0.138928
C58   C     C_R   0.603194 0.227144 0.578159 0.545216
C59   C     C_R   0.750211 0.311204 0.702131 0.008367
C60   C     C_R   0.765567 0.340565 0.804317 0.022854
C61   C     C_R   0.851353 0.326646 0.778611 -0.129180
C62   C     C_R   0.842170 0.309238 0.727994 -0.152683
C63   C     C_R   0.689738 0.371531 0.208666 -0.009383
C64   C     C_R   0.772227 0.356213 0.855581 0.255484
C65   C     C_R   0.688620 0.378427 0.879425 0.004832
C66   C     C_R   0.570150 0.323542 0.650935 -0.118613
C67   C     C_R   0.578755 0.342062 0.701374 0.034273
C68   C     C_R   0.667852 0.332924 0.727201 0.048912
C69   C     C_R   0.496384 0.362662 0.726789 0.064600
C70   C     C_R   0.272103 0.879714 0.563480 0.530674
C71   C     C_R   0.499096 0.367555 0.777166 -0.109135
C72   C     C_R   0.586492 0.357782 0.802755 -0.023949
C73   C     C_R   0.673330 0.343567 0.778124 0.015691
C74   C     C_1   0.698174 0.385345 0.157466 -0.020178
C75   C     C_R   0.591768 0.369459 0.852893 -0.177361
C76   C     C_R   0.642348 0.287668 0.626570 -0.021241
C77   C     C_1   0.222225 0.862722 0.610329 -0.012476
C78   C     C_R   0.186310 0.759927 0.725994 -0.127759
C79   C     C_R   0.176655 0.754440 0.775903 -0.089193
C80   C     C_R   0.135989 0.914064 0.781143 -0.115595
C81   C     C_R   0.144819 0.920244 0.730170 0.300323
C82   C     C_1   0.639249 0.283070 0.398140 -0.017579
C83   C     C_R   0.171709 0.842662 0.702959 0.050035
C84   C     C_R   0.153289 0.832415 0.803699 -0.007451
C85   C     C_1   0.660331 0.319413 0.358682 -0.043668
C86   C     C_1   0.132001 0.818550 0.854299 -0.054200
C87   C     C_1   0.193552 0.852239 0.651879 -0.012471
C88   C     C_1   0.104688 0.799566 0.895442 -0.012002
C89   C     C_1   0.643544 0.863897 0.610610 -0.014520
C90   C     C_R   0.749448 0.825105 0.724240 0.221394
C91   C     C_R   0.753509 0.820446 0.774484 -0.163860
C92   C     C_R   0.549147 0.774333 0.777472 0.298106
C93   C     C_R   0.544568 0.780949 0.726886 0.264343
C94   C     C_R   0.766363 0.439548 0.292272 -0.175740
C95   C     C_R   0.647033 0.812088 0.700801 -0.011789
C96   C     C_1   0.705697 0.403842 0.115253 0.032555
C97   C     C_R   0.655332 0.797871 0.801295 -0.049316
C98   C     C_1   0.665539 0.794627 0.853031 -0.027181
C99   C     C_1   0.648332 0.838570 0.651123 -0.001431
C100  C     C_1   0.683344 0.789186 0.895356 -0.024951
C101  C     C_R   0.012294 0.740846 0.084508 0.569682
C102  C     C_R   0.717483 0.442382 0.067593 0.545407
C103  C     C_R   0.720433 0.781800 0.081109 0.531486
C104  C     C_R   0.057019 0.766401 0.941597 0.553314
C105  C     C_R   0.710489 0.434200 0.929091 0.552276
C106  C     C_R   0.776139 0.453290 0.242407 -0.124376
C107  C     C_R   0.143515 0.736029 0.361650 -0.163807
C108  C     C_R   0.716443 0.776289 0.943091 0.531404
C109  C     C_3   0.088393 0.011846 0.419942 0.004148
C110  C     C_3   0.118204 0.127006 0.447710 -0.254426
C111  C     C_3   0.022052 0.115891 0.481594 -0.466993
C112  C     C_3   0.860106 0.196171 0.322480 -0.000856
C113  C     C_3   0.944192 0.318058 0.311765 -0.241408
C114  C     C_3   0.950534 0.329255 0.257113 -0.357909
C115  C     C_3   0.435594 0.629970 0.095851 0.036934
C116  C     C_3   0.343156 0.517601 0.068805 -0.237824
C117  C     C_3   0.260209 0.537318 0.036316 -0.460286
Cr1   Cr    Cr6+3 0.416430 0.829200 0.492370 1.014813
Cr2   Cr    Cr6+3 0.674630 0.087020 0.504170 1.005921
Cr3   Cr    Cr6+3 0.408920 0.083740 0.503490 1.048364
Cr4   Cr    Cr6+3 0.914010 0.832750 0.013970 1.024045
Cr5   Cr    Cr6+3 0.922310 0.578600 0.003000 1.057362
Cr6   Cr    Cr6+3 0.656280 0.574630 0.003870 1.017866
H1    H     H_    0.834846 0.501651 0.317884 0.118043
H2    H     H_    0.794622 0.263069 0.632696 0.135715
H3    H     H_    0.925463 0.328791 0.797508 0.137358
H4    H     H_    0.907330 0.294910 0.709078 0.115413
H5    H     H_    0.525153 0.383144 0.870928 0.142966
H6    H     H_    0.434100 0.381586 0.796410 0.119518
H7    H     H_    0.500169 0.325887 0.630610 0.180059
H8    H     H_    0.203545 0.697978 0.705476 0.132536
H9    H     H_    0.521885 0.218717 0.199358 0.132111
H10   H     H_    0.185058 0.687717 0.792619 0.133163
H11   H     H_    0.112358 0.969393 0.803451 0.099398
H12   H     H_    0.097958 0.052508 0.312022 0.179555
H13   H     H_    0.834225 0.835005 0.792698 0.131827
H14   H     H_    0.146497 0.669845 0.380844 0.175044
H15   H     H_    0.044346 0.919256 0.145088 0.179904
H16   H     H_    0.075812 0.949036 0.446768 0.126469
H17   H     H_    0.005323 0.981088 0.397588 0.130466
H18   H     H_    0.201990 0.159550 0.469503 0.179503
H19   H     H_    0.129409 0.190185 0.421465 0.168131
H20   H     H_    0.938170 0.085910 0.460371 0.167999
H21   H     H_    0.046574 0.200821 0.501275 0.145069
H22   H     H_    0.010185 0.054242 0.508672 0.155644
H23   H     H_    0.811504 0.979293 0.138207 0.159331
H24   H     H_    0.849148 0.196491 0.362309 0.133719
H25   H     H_    0.772265 0.169185 0.304509 0.138617
H26   H     H_    0.915971 0.377452 0.329707 0.123005
H27   H     H_    0.032032 0.341666 0.327775 0.213300
H28   H     H_    0.861760 0.285228 0.238729 0.151700
H29   H     H_    0.991563 0.420803 0.250511 0.182243
H30   H     H_    0.004285 0.292334 0.240928 0.222963
H31   H     H_    0.483227 0.690648 0.068467 0.128609
H32   H     H_    0.391731 0.668950 0.118790 0.164983
H33   H     H_    0.387280 0.478680 0.045949 0.176003
H34   H     H_    0.815870 0.016367 0.378406 0.157878
H35   H     H_    0.291726 0.456474 0.095468 0.213608
H36   H     H_    0.216152 0.577621 0.058259 0.208175
H37   H     H_    0.192349 0.453870 0.018236 0.153744
H38   H     H_    0.309287 0.593881 0.007864 0.136337
H39   H     H_    0.931070 0.250669 0.890030 0.142839
H40   H     H_    0.790731 0.183563 0.858684 0.124198
H41   H     H_    0.844792 0.277539 0.967468 0.187410
H42   H     H_    0.701447 0.209082 0.936910 0.155234
H43   H     H_    0.715029 0.029358 0.918250 0.159257
H44   H     H_    0.732657 0.071790 0.982699 0.155926
H45   H     H_    0.874101 0.093628 0.214444 0.153952
H46   H     H_    0.859277 0.097147 0.948690 0.162793
H47   H     H_    0.178726 0.160507 0.702606 0.201653
H48   H     H_    0.222000 0.126111 0.757248 0.130172
H49   H     H_    0.981019 0.097774 0.722581 0.199146
H50   H     H_    0.991429 0.024960 0.772605 0.182605
H51   H     H_    0.142680 0.216297 0.815130 0.148803
H52   H     H_    0.000699 0.204252 0.804424 0.133998
H53   H     H_    0.118183 0.286129 0.765913 0.168775
H54   H     H_    0.911995 0.786270 0.645838 0.178514
H55   H     H_    0.757297 0.707097 0.649684 0.111363
H56   H     H_    0.465938 0.535591 0.207813 0.187499
H57   H     H_    0.928262 0.725566 0.732676 0.187181
H58   H     H_    0.775517 0.624047 0.722998 0.157617
H59   H     H_    0.814634 0.534470 0.648595 0.157974
H60   H     H_    0.907288 0.541079 0.699443 0.164334
H61   H     H_    0.967812 0.640336 0.654054 0.142003
H62   H     H_    0.443005 0.588741 0.807545 0.128526
H63   H     H_    0.318468 0.591436 0.779556 0.152931
H64   H     H_    0.401109 0.649290 0.887895 0.167880
H65   H     H_    0.281650 0.663581 0.862320 0.182312
H66   H     H_    0.175279 0.454429 0.835179 0.154836
H67   H     H_    0.462923 0.553740 0.296474 0.141495
H68   H     H_    0.211424 0.478752 0.899666 0.160649
H69   H     H_    0.296179 0.438205 0.859088 0.141245
H70   H     H_    0.320017 0.590749 0.693234 0.158948
H71   H     H_    0.455408 0.625727 0.664749 0.154700
H72   H     H_    0.254695 0.667502 0.632083 0.143692
H73   H     H_    0.399589 0.752275 0.612742 0.220594
H74   H     H_    0.402749 0.574640 0.578427 0.154437
H75   H     H_    0.278067 0.582034 0.553819 0.160303
H76   H     H_    0.258499 0.487561 0.600424 0.167188
H77   H     H_    0.305231 0.132651 0.290411 0.199066
H78   H     H_    0.851641 0.526558 0.230163 0.143222
H79   H     H_    0.384576 0.251006 0.256232 0.144502
H80   H     H_    0.398660 0.251360 0.368689 0.219049
H81   H     H_    0.479405 0.374961 0.335337 0.149310
H82   H     H_    0.287960 0.352434 0.301430 0.202103
H83   H     H_    0.308618 0.381561 0.366814 0.163038
H84   H     H_    0.211751 0.238684 0.340193 0.185345
H85   H     H_    0.512069 0.683394 0.373700 0.145359
I1    I     I_    0.111036 0.120277 0.208864 -0.479555
I2    I     I_    0.364424 0.386388 0.692575 -0.634436
I3    I     I_    0.995680 0.502250 0.128950 -0.382356
I4    I     I_    0.240310 0.560932 0.196095 -0.386191
I5    I     I_    0.237282 0.562332 0.321713 -0.502862
O1    O     O_R   0.296680 0.802170 0.437540 -0.510641
O2    O     O_R   0.637200 0.461990 0.052510 -0.493840
O3    O     O_R   0.664790 0.681920 0.057970 -0.465354
O4    O     O_R   0.525380 0.838530 0.443500 -0.480770
O5    O     O_R   0.815840 0.852920 0.961840 -0.513506
O6    O     O_R   0.012100 0.822630 0.963670 -0.491563
O7    O     O_R   0.037010 0.668460 0.953040 -0.491995
O8    O     O_R   0.813390 0.478970 0.949660 -0.449935
O9    O     O_R   0.632250 0.456930 0.945520 -0.537755
O10   O     O_R   0.660200 0.677230 0.958780 -0.502015
O11   O     O_3   0.830870 0.661990 0.006950 -0.276341
O12   O     O_R   0.662610 0.183990 0.557860 -0.504250
O13   O     O_R   0.702130 0.995190 0.446810 -0.537994
O14   O     O_R   0.661770 0.181390 0.458760 -0.500992
O15   O     O_R   0.499820 0.198480 0.455280 -0.502013
O16   O     O_R   0.311660 0.976250 0.449080 -0.453850
O17   O     O_R   0.297580 0.804960 0.544440 -0.538082
O18   O     O_R   0.526220 0.841130 0.542590 -0.513906
O19   O     O_R   0.703030 0.997990 0.553710 -0.505206
O20   O     O_3   0.180984 0.026977 0.389913 -0.568080
O21   O     O_3   0.910606 0.125496 0.308703 -0.576239
O22   O     O_3   0.511757 0.607396 0.124574 -0.548660
O23   O     O_R   0.500730 0.201280 0.562180 -0.514275
O24   O     O_3   0.866111 0.361581 0.881923 -0.560025
O25   O     O_3   0.114333 0.989316 0.704751 -0.541704
O26   O     O_3   0.850306 0.853587 0.699550 -0.545276
O27   O     O_3   0.452007 0.751817 0.803987 -0.540024
O28   O     O_3   0.441309 0.762698 0.703675 -0.550717
O29   O     O_3   0.478121 0.181306 0.291314 -0.559593
O30   O     O_R   0.312500 0.978850 0.548170 -0.488916
O31   O     O_3   0.499990 0.999990 0.500010 -0.243644
O32   O     O_R   0.820790 0.857990 0.068830 -0.527859
O33   O     O_R   0.016700 0.827330 0.062850 -0.499618
O34   O     O_R   0.041970 0.673520 0.060040 -0.483927
O35   O     O_R   0.817980 0.483660 0.048840 -0.492737

loop_
_geom_bond_atom_site_label_1
_geom_bond_atom_site_label_2
_ccdc_geom_bond_type
C1    O13   A    
C83   C87   S    
C15   H69   S    
C14   H64   S    
Cr6   O2    S    
C117  H36   S    
C34   C37   S    
C46   O18   A    
C2    C107  A    
C19   C20   S    
C114  H29   S    
C80   C84   A    
C7    H49   S    
C115  O22   S    
C97   C98   S    
C90   C91   A    
C8    H52   S    
C58   C76   S    
C7    C8    S    
C46   C89   S    
C53   C54   A    
C81   O25   S    
C116  H35   S    
C6    O25   S    
C19   H77   S    
C103  O32   A    
Cr5   O7    S    
C90   O26   S    
C89   C99   T    
C109  H17   S    
C22   C82   S    
C57   C76   A    
C28   C29   A    
C1    C56   S    
C84   C86   S    
C37   C107  A    
C58   O23   A    
C96   C102  S    
C111  H22   S    
C26   C101  S    
C57   H2    S    
C62   H4    S    
C59   C68   A    
C8    H51   S    
C57   C59   A    
C22   O15   A    
C23   I4    S    
C49   C54   A    
C60   C73   A    
C33   C36   A    
C80   H11   S    
C116  C117  S    
C13   C23   A    
C25   I3    S    
C75   H5    S    
Cr3   O31   S    
C21   H82   S    
C110  H19   S    
C110  C111  S    
C104  O7    A    
C16   H70   S    
C45   C103  S    
C19   O29   S    
C81   C83   A    
C78   C83   A    
C94   C106  A    
C91   H13   S    
C47   C48   A    
Cr1   O31   S    
C16   C17   S    
Cr5   O8    S    
C18   H75   S    
C44   H23   S    
C23   C24   A    
C4    H41   S    
C30   C41   A    
C52   C94   A    
C61   H3    S    
C47   H85   S    
C9    C10   S    
Cr3   O15   S    
C114  H30   S    
C3    H39   S    
C111  H20   S    
C108  O5    A    
C16   O28   S    
C40   C42   A    
C66   C67   A    
C15   H66   S    
C12   H63   S    
C93   C95   A    
Cr5   O11   S    
C30   C63   A    
C117  H37   S    
C66   H7    S    
Cr4   O6    S    
C13   C25   A    
C11   H59   S    
C114  H28   S    
Cr1   O4    S    
C72   C75   A    
C51   H56   S    
C101  O33   A    
C65   C105  S    
C112  C113  S    
C88   C104  S    
C42   H45   S    
C92   C97   A    
C50   C51   A    
C6    H48   S    
C53   C55   A    
C79   H10   S    
Cr6   O9    S    
C100  C108  S    
C69   C71   A    
C86   C88   T    
Cr2   O14   S    
C67   C68   A    
C113  H26   S    
C90   C95   A    
C11   H60   S    
C20   H81   S    
C31   H12   S    
C34   O1    A    
C55   O22   S    
Cr4   O5    S    
C78   C79   A    
C4    C5    S    
C39   C43   A    
C22   O14   A    
C117  H38   S    
C68   C73   A    
Cr6   O10   S    
C19   H79   S    
C112  H25   S    
C60   C61   A    
C67   C69   A    
Cr3   O30   S    
C21   H83   S    
C107  H14   S    
C110  H18   S    
C78   H8    S    
C70   O17   A    
C104  O6    A    
C9    O26   S    
C79   C84   A    
C74   C96   T    
C70   O30   A    
C71   H6    S    
C14   H65   S    
C24   I5    S    
C31   C32   A    
C40   C44   A    
Cr1   O18   S    
C66   C76   A    
C18   H74   S    
C17   C18   S    
C102  O35   A    
Cr1   O1    S    
C5    H43   S    
C91   C97   A    
C63   C106  A    
C48   C50   A    
Cr5   O34   S    
C45   C55   A    
C64   O24   S    
C58   O12   A    
Cr2   O19   S    
C3    O24   S    
C111  H21   S    
C26   C36   A    
C48   C49   A    
C39   C49   A    
C52   C85   S    
C40   C54   A    
C2    C29   A    
C115  H31   S    
C2    C24   A    
C80   C81   A    
C17   H72   S    
C34   O16   A    
C42   C43   A    
C3    C4    S    
C101  O34   A    
C27   C28   A    
C9    H54   S    
C44   C45   A    
Cr2   O12   S    
C30   H9    S    
Cr5   O35   S    
C113  C114  S    
C6    H47   S    
C108  O10   A    
C15   H68   S    
C92   O27   S    
C59   C62   A    
C41   C52   A    
C115  H32   S    
C46   O19   A    
C113  H27   S    
C28   C31   A    
C11   H61   S    
C20   H80   S    
C12   C14   S    
C72   C73   A    
C43   O21   S    
Cr3   O16   S    
C8    H53   S    
C13   C35   A    
C6    C7    S    
Cr2   O31   S    
C3    H40   S    
C82   C85   T    
Cr6   O11   S    
C29   C35   A    
C98   C100  T    
C65   C75   A    
C112  H24   S    
C60   C64   A    
C41   O29   S    
C109  H16   S    
C10   H57   S    
C32   C33   A    
C38   H34   S    
C25   C26   A    
C71   C72   A    
C93   O28   S    
C109  C110  S    
C64   C65   A    
C106  H78   S    
C32   I1    S    
C63   C74   S    
C21   H84   S    
C115  C116  S    
C38   C39   A    
Cr1   O17   S    
C112  O21   S    
C12   H62   S    
C7    H50   S    
Cr4   O32   S    
C92   C93   A    
C33   C35   A    
Cr4   O11   S    
C95   C99   S    
C5    H44   S    
C61   C62   A    
C50   H67   S    
C116  H33   S    
C16   H71   S    
C10   C11   S    
C27   O20   S    
C105  O8    A    
C27   C37   A    
C102  O2    A    
C12   O27   S    
C38   C56   A    
C20   C21   S    
C77   C87   T    
C18   H76   S    
C10   H58   S    
C5    H46   S    
C14   C15   S    
C47   C56   A    
C17   H73   S    
C1    O4    A    
C69   I2    S    
C51   C53   A    
C4    H42   S    
Cr6   O3    S    
C36   H15   S    
C103  O3    A    
Cr3   O23   S    
C9    H55   S    
C105  O9    A    
Cr2   O13   S    
C109  O20   S    
Cr4   O33   S    
C70   C77   S    
C94   H1    S    
