data_mof_unit_2534.cif
_audit_creation_date              2013-03-05T15:41:17-0500
_audit_creation_method            fapswitch 2.2
_symmetry_space_group_name_H-M    P1
_symmetry_Int_Tables_number       1
_space_group_crystal_system       triclinic
_cell_length_a                    16.877317
_cell_length_b                    16.916728
_cell_length_c                    16.842825
_cell_angle_alpha                 65.58891
_cell_angle_beta                  65.96616
_cell_angle_gamma                 65.957544
_cell_volume                      3830.42814949

loop_
_atom_site_label
_atom_site_type_symbol
_atom_site_description
_atom_site_fract_x
_atom_site_fract_y
_atom_site_fract_z
_atom_type_partial_charge
O1    O     O_R   0.982940 0.138950 0.510160 -0.623500
O2    O     O_R   0.017060 0.861050 0.489840 -0.624868
O3    O     O_R   0.138950 0.510160 0.982940 -0.613171
O4    O     O_R   0.861050 0.489840 0.017060 -0.610517
O5    O     O_R   0.510160 0.982940 0.138950 -0.615649
O6    O     O_R   0.489840 0.017060 0.861050 -0.633660
O7    O     O_R   0.489840 0.861050 0.017060 -0.614937
O8    O     O_R   0.510160 0.138950 0.982940 -0.630101
O9    O     O_R   0.017060 0.489840 0.861050 -0.624574
O10   O     O_R   0.982940 0.510160 0.138950 -0.622769
O11   O     O_R   0.861050 0.017060 0.489840 -0.607241
O12   O     O_R   0.138950 0.982940 0.510160 -0.610253
C1    C     C_R   0.324628 0.960769 0.453809 0.036820
C2    C     C_R   0.669508 0.065091 0.537688 0.035394
C3    C     C_R   0.941936 0.459558 0.329254 0.037184
C4    C     C_R   0.055677 0.541344 0.670828 0.038574
C5    C     C_R   0.455447 0.327392 0.950207 0.032213
C6    C     C_R   0.544365 0.672312 0.050556 0.038191
C7    C     C_R   0.540967 0.052302 0.674103 0.029587
C8    C     C_R   0.432947 0.010036 0.309210 0.030504
C9    C     C_R   0.687268 0.567525 0.994761 0.032559
C10   C     C_R   0.312523 0.432113 0.006044 0.030480
C11   C     C_R   0.039486 0.678411 0.543085 0.028365
C12   C     C_R   0.958168 0.322534 0.457083 0.027254
O13   O     O_R   0.867700 0.025880 0.612340 -0.612352
O14   O     O_R   0.132300 0.974120 0.387660 -0.610642
O15   O     O_R   0.025880 0.612340 0.867700 -0.606216
O16   O     O_R   0.974120 0.387660 0.132300 -0.603779
O17   O     O_R   0.612340 0.867700 0.025880 -0.601258
O18   O     O_R   0.387660 0.132300 0.974120 -0.614664
O19   O     O_R   0.387660 0.974120 0.132300 -0.619227
O20   O     O_R   0.612340 0.025880 0.867700 -0.611944
O21   O     O_R   0.132300 0.387660 0.974120 -0.618535
O22   O     O_R   0.867700 0.612340 0.025880 -0.618484
O23   O     O_R   0.974120 0.132300 0.387660 -0.615038
O24   O     O_R   0.025880 0.867700 0.612340 -0.614671
H1    H     H_    0.283874 0.940125 0.282252 0.211341
H2    H     H_    0.718316 0.059552 0.718320 0.211171
H3    H     H_    0.935035 0.283612 0.284236 0.212945
H4    H     H_    0.064790 0.716315 0.715494 0.209623
H5    H     H_    0.279960 0.281774 0.943670 0.210628
H6    H     H_    0.720010 0.718241 0.056428 0.210133
C13   C     C_R   0.966754 0.178784 0.436177 0.881428
C14   C     C_R   0.032965 0.821311 0.563851 0.884960
C15   C     C_R   0.175256 0.430002 0.982329 0.877052
C16   C     C_R   0.824675 0.569932 0.017878 0.877445
C17   C     C_R   0.430288 0.981997 0.175188 0.885736
C18   C     C_R   0.563426 0.034454 0.820939 0.880307
C19   C     C_R   0.562263 0.820611 0.037327 0.890993
C20   C     C_R   0.437667 0.179372 0.962831 0.850965
C21   C     C_R   0.036852 0.562522 0.820376 0.867913
C22   C     C_R   0.962650 0.437693 0.179571 0.868908
C23   C     C_R   0.820485 0.037563 0.562016 0.873240
C24   C     C_R   0.179349 0.964280 0.437329 0.874608
C25   C     C_R   0.402335 0.991810 0.404037 0.072682
C26   C     C_R   0.582028 0.053433 0.582585 0.072867
C27   C     C_R   0.958561 0.413458 0.414988 0.065230
C28   C     C_R   0.038566 0.587733 0.585235 0.065038
C29   C     C_R   0.407476 0.404272 0.981887 0.073383
C30   C     C_R   0.592314 0.595255 0.019131 0.076488
C31   C     C_R   0.276498 0.953405 0.405098 -0.121241
C32   C     C_R   0.721188 0.059539 0.590808 -0.121245
C33   C     C_R   0.941848 0.408424 0.279145 -0.118925
C34   C     C_R   0.056737 0.592037 0.720833 -0.117836
C35   C     C_R   0.405234 0.276838 0.949619 -0.116630
C36   C     C_R   0.594635 0.723052 0.050788 -0.126133
C37   C     C_R   0.592408 0.054550 0.722567 -0.115066
C38   C     C_R   0.392906 0.983214 0.267920 -0.110083
C39   C     C_R   0.731163 0.607551 0.018388 -0.110228
C40   C     C_R   0.268702 0.392285 0.982073 -0.112278
C41   C     C_R   0.049548 0.724072 0.592614 -0.109879
C42   C     C_R   0.949231 0.276306 0.407427 -0.111846
Zn1   Zn    Zn3+2 0.004880 0.004880 0.583590 1.119103
Zn2   Zn    Zn3+2 0.995120 0.995120 0.416410 1.120134
Zn3   Zn    Zn3+2 0.004880 0.583590 0.004880 1.126953
Zn4   Zn    Zn3+2 0.995120 0.416410 0.995120 1.131433
Zn5   Zn    Zn3+2 0.583590 0.004880 0.004880 1.119347
Zn6   Zn    Zn3+2 0.416410 0.995120 0.995120 1.106471
C43   C     C_R   0.450767 0.046378 0.713955 -0.143178
C44   C     C_R   0.501725 0.054450 0.259328 -0.144505
C45   C     C_R   0.028184 0.719708 0.454069 -0.098166
C46   C     C_R   0.969177 0.281435 0.546102 -0.097903
C47   C     C_R   0.734655 0.501855 0.947515 -0.141696
C48   C     C_R   0.265092 0.497714 0.053375 -0.145179
C49   C     C_R   0.296818 0.940359 0.549361 -0.116947
C50   C     C_R   0.700383 0.083730 0.441880 -0.120172
C51   C     C_R   0.550655 0.304500 0.919715 -0.126327
C52   C     C_R   0.449144 0.695189 0.081095 -0.123956
C53   C     C_R   0.925320 0.554613 0.297609 -0.136909
C54   C     C_R   0.072183 0.446378 0.702201 -0.139477
C55   C     C_R   0.316527 0.954885 0.316161 -0.269364
C56   C     C_R   0.679489 0.061141 0.679535 -0.263320
C57   C     C_R   0.938154 0.320697 0.321761 -0.270447
C58   C     C_R   0.060879 0.679537 0.678155 -0.275904
C59   C     C_R   0.315398 0.315544 0.954820 -0.272209
C60   C     C_R   0.684502 0.684369 0.045517 -0.270377
C61   C     C_R   0.650406 0.080828 0.393500 -0.065581
C62   C     C_R   0.337739 0.960256 0.594032 -0.064296
C63   C     C_R   0.056036 0.401063 0.658875 -0.043634
C64   C     C_R   0.941390 0.600402 0.340618 -0.043087
C65   C     C_R   0.401910 0.644853 0.077622 -0.061708
C66   C     C_R   0.597872 0.354619 0.923504 -0.050844
C67   C     C_R   0.552588 0.062814 0.302306 -0.069181
C68   C     C_R   0.413873 0.014826 0.676559 -0.079229
C69   C     C_R   0.309646 0.546935 0.061947 -0.069933
C70   C     C_R   0.690136 0.452387 0.939322 -0.065882
C71   C     C_R   0.004784 0.317835 0.580243 -0.063904
C72   C     C_R   0.992336 0.683595 0.419781 -0.065240
C73   C     C_R   0.679312 0.102719 0.297408 0.237141
C74   C     C_R   0.303420 0.948664 0.688817 0.237982
C75   C     C_R   0.068841 0.306547 0.692528 0.268222
C76   C     C_R   0.929484 0.695018 0.306199 0.264145
C77   C     C_R   0.306584 0.666093 0.111112 0.246525
C78   C     C_R   0.693194 0.333264 0.890158 0.263495
C79   C     C_R   0.629763 0.095081 0.251786 0.224932
C80   C     C_R   0.339198 0.979350 0.729403 0.248456
C81   C     C_R   0.260909 0.617257 0.103273 0.235887
C82   C     C_R   0.738895 0.381983 0.898110 0.245503
C83   C     C_R   0.040233 0.265305 0.655477 0.250961
C84   C     C_R   0.957853 0.736090 0.343835 0.252933
H7    H     H_    0.405927 0.068482 0.772412 0.223023
H8    H     H_    0.514499 0.085813 0.186929 0.199965
H9    H     H_    0.050896 0.777534 0.406622 0.221136
H10   H     H_    0.946877 0.223319 0.593394 0.221691
H11   H     H_    0.806139 0.491237 0.913666 0.198191
H12   H     H_    0.193529 0.508546 0.086867 0.200002
H13   H     H_    0.243484 0.908346 0.589548 0.207867
H14   H     H_    0.761349 0.104277 0.404051 0.207815
H15   H     H_    0.587952 0.249782 0.889546 0.203678
H16   H     H_    0.411866 0.750135 0.110949 0.203266
H17   H     H_    0.897753 0.593377 0.240706 0.203133
H18   H     H_    0.099669 0.407080 0.759156 0.202395
C85   C     C_R   0.524057 0.040694 0.397675 -0.000353
C86   C     C_R   0.454449 0.016487 0.585299 -0.003565
C87   C     C_R   0.003407 0.408818 0.539130 -0.000697
C88   C     C_R   0.993181 0.592796 0.461060 0.000644
C89   C     C_R   0.404724 0.524344 0.030003 -0.000754
C90   C     C_R   0.595062 0.474931 0.971368 0.002514
C91   C     C_R   0.570676 0.053463 0.442550 -0.010378
C92   C     C_R   0.413140 0.994712 0.542586 -0.011184
C93   C     C_R   0.450798 0.572562 0.038772 -0.009454
C94   C     C_R   0.548986 0.426764 0.962551 -0.005877
C95   C     C_R   0.025922 0.451256 0.580343 0.008926
C96   C     C_R   0.970740 0.550367 0.419720 0.009283
C97   C     C_R   0.446914 0.008386 0.448213 0.035985
C98   C     C_R   0.535539 0.041745 0.536475 0.035793
C99   C     C_R   0.976419 0.457945 0.458496 0.029108
C100  C     C_R   0.020132 0.543613 0.541766 0.029303
C101  C     C_R   0.453800 0.451633 0.991716 0.036739
C102  C     C_R   0.545984 0.547709 0.009576 0.037922
N1    N     N_R   0.308190 0.961995 0.826461 0.230379
O25   O     O_R   0.319052 0.878947 0.879609 -0.330810
O26   O     O_R   0.262205 0.028501 0.861907 -0.284476
N2    N     N_R   0.659243 0.119106 0.154110 0.223903
O27   O     O_R   0.670600 0.198800 0.105876 -0.346043
O28   O     O_R   0.682278 0.058874 0.113517 -0.318098
N3    N     N_R   0.949088 0.831600 0.306128 0.220704
O29   O     O_R   0.978362 0.867264 0.218684 -0.205430
O30   O     O_R   0.907044 0.884034 0.358546 -0.381638
N4    N     N_R   0.050465 0.169559 0.692587 0.217543
O31   O     O_R   0.023254 0.133064 0.780116 -0.201061
O32   O     O_R   0.091832 0.117823 0.639486 -0.391682
N5    N     N_R   0.835180 0.361081 0.861193 0.219495
O33   O     O_R   0.871595 0.367992 0.775097 -0.399666
O34   O     O_R   0.886456 0.329141 0.914320 -0.297659
N6    N     N_R   0.164633 0.638137 0.140130 0.221480
O35   O     O_R   0.128108 0.630500 0.226368 -0.396202
O36   O     O_R   0.113482 0.670578 0.086804 -0.302351
N7    N     N_R   0.231757 0.906870 0.744223 0.229033
O37   O     O_R   0.160011 0.946561 0.798342 -0.214289
O38   O     O_R   0.243508 0.824035 0.749695 -0.381121
N8    N     N_R   0.759396 0.131972 0.245427 0.230904
O39   O     O_R   0.825411 0.088186 0.190784 -0.220843
O40   O     O_R   0.762610 0.207386 0.245757 -0.382991
N9    N     N_R   0.744658 0.261450 0.848812 0.222589
O41   O     O_R   0.736081 0.268386 0.772659 -0.408733
O42   O     O_R   0.807214 0.194112 0.881636 -0.230122
N10   N     N_R   0.255119 0.737686 0.152773 0.222691
O43   O     O_R   0.264450 0.730830 0.228537 -0.404732
O44   O     O_R   0.191845 0.804633 0.120762 -0.238286
N11   N     N_R   0.886359 0.750475 0.235235 0.219681
O45   O     O_R   0.813346 0.816956 0.249360 -0.325642
O46   O     O_R   0.925158 0.741673 0.153774 -0.294477
N12   N     N_R   0.115266 0.251120 0.760610 0.223360
O47   O     O_R   0.194630 0.194300 0.739481 -0.356917
O48   O     O_R   0.076357 0.252748 0.844526 -0.278440

loop_
_geom_bond_atom_site_label_1
_geom_bond_atom_site_label_2
_geom_bond_distance
_ccdc_geom_bond_type
C7    C26   1.404604 A    
C11   C28   1.402719 A    
C2    C26   1.412486 A    
C91   C98   1.402136 A    
C4    C54   1.411125 A    
C13   C42   1.449967 S    
C62   C74   1.415344 A    
C74   C80   1.409363 A    
N7    O38   1.301216 A    
N7    O37   1.300864 A    
C72   C84   1.417706 A    
N5    O33   1.298702 A    
O9    C21   1.242862 A    
C52   H16   1.079247 S    
C39   C60   1.371676 A    
O10   C22   1.243450 A    
C52   C65   1.412903 A    
N9    O42   1.301099 A    
C41   C58   1.374695 A    
O4    C16   1.242424 A    
N11   O45   1.301155 A    
C90   C102  1.416233 A    
C43   H7    1.071796 S    
N3    O29   1.301132 A    
O6    C18   1.239124 A    
C45   H9    1.073476 S    
H6    C60   1.085276 S    
C94   C101  1.405848 A    
C63   C95   1.412962 A    
N5    O34   1.300636 A    
O13   C23   1.294539 A    
C72   C88   1.396584 A    
C96   C99   1.401800 A    
C86   C92   1.405750 A    
C28   C100  1.419959 A    
O6    Zn6   2.043344 S    
C2    C32   1.438575 A    
H2    C56   1.084759 S    
C38   C55   1.371108 A    
C65   C77   1.411724 A    
N12   O47   1.300032 A    
C14   C41   1.447601 S    
C75   C83   1.410354 A    
C84   N3    1.438532 S    
O10   Zn3   2.038244 S    
C71   C83   1.416641 A    
C50   C61   1.415817 A    
C12   C46   1.423355 A    
C22   C33   1.468597 S    
H3    C57   1.085150 S    
C16   C39   1.439088 S    
C71   C87   1.397134 A    
C49   C62   1.406533 A    
O20   Zn5   2.061274 S    
C68   C80   1.414849 A    
C65   C93   1.415621 A    
O1    C13   1.230714 A    
C62   C92   1.413780 A    
C9    C47   1.412570 A    
O15   C21   1.299107 A    
C83   N4    1.437773 S    
C32   C56   1.374968 A    
C69   C81   1.413149 A    
N1    O25   1.301142 A    
C49   H13   1.076846 S    
C7    C37   1.432247 A    
O22   C16   1.282265 A    
O9    Zn4   2.038244 S    
O3    Zn3   2.051252 S    
N2    O28   1.301281 A    
O11   C23   1.242545 A    
C73   N8    1.435704 S    
O22   Zn3   2.068713 S    
C54   H18   1.077703 S    
C87   C95   1.410918 A    
C77   N10   1.436126 S    
O18   C20   1.293962 A    
C45   C72   1.396490 A    
N3    O30   1.301496 A    
O19   C17   1.279907 A    
O12   Zn1   2.050107 S    
C70   C82   1.413131 A    
N6    O36   1.300483 A    
C3    C27   1.411726 A    
C89   C101  1.416087 A    
N6    O35   1.298793 A    
H5    C59   1.085317 S    
C47   H11   1.077337 S    
C8    C25   1.401245 A    
O15   Zn3   2.060377 S    
O14   C24   1.294757 A    
C46   H10   1.073645 S    
N8    O40   1.301168 A    
C93   C102  1.405856 A    
N10   O43   1.301197 A    
C29   C101  1.416337 A    
C48   H12   1.077345 S    
C95   C100  1.400356 A    
C86   C98   1.414622 A    
C82   N5    1.429287 S    
C19   C36   1.459652 S    
C8    C44   1.418562 A    
C44   C67   1.403815 A    
C50   H14   1.076970 S    
C11   C41   1.440929 A    
O7    C19   1.242602 A    
C9    C30   1.402688 A    
C90   C94   1.414613 A    
N11   O46   1.300407 A    
O2    C14   1.229122 A    
C10   C29   1.402791 A    
C76   C84   1.412854 A    
H1    C55   1.085637 S    
C12   C27   1.404158 A    
C44   H8    1.076669 S    
C53   C64   1.411863 A    
O3    C15   1.242458 A    
C6    C52   1.407639 A    
C9    C39   1.427320 A    
C10   C48   1.412594 A    
C67   C79   1.418140 A    
O21   C15   1.282349 A    
C66   C78   1.411475 A    
C75   N12   1.432665 S    
C3    C53   1.412213 A    
C51   C66   1.412330 A    
O5    C17   1.236628 A    
C23   C32   1.470129 S    
O21   Zn4   2.068715 S    
N9    O41   1.301088 A    
C78   C82   1.409070 A    
C81   N6    1.429102 S    
O23   Zn2   2.070321 S    
C63   C75   1.411941 A    
C48   C69   1.406267 A    
C1    C31   1.434660 A    
C4    C28   1.413100 A    
C46   C71   1.395217 A    
O17   C19   1.294185 A    
C7    C43   1.419314 A    
C2    C50   1.415377 A    
N2    O27   1.301040 A    
C88   C100  1.416809 A    
C68   C86   1.398184 A    
C5    C29   1.412585 A    
O7    Zn6   2.050941 S    
C77   C81   1.409309 A    
C42   C57   1.374926 A    
C30   C102  1.416403 A    
C6    C30   1.412843 A    
C78   N9    1.435984 S    
C70   C90   1.406248 A    
C85   C91   1.412397 A    
C87   C99   1.416009 A    
C27   C99   1.419428 A    
C79   N2    1.436874 S    
C64   C96   1.414455 A    
O8    Zn5   2.050940 S    
C43   C68   1.391948 A    
O24   C14   1.292613 A    
C85   C97   1.418077 A    
O5    Zn5   2.043343 S    
O16   Zn4   2.060377 S    
O8    C20   1.242418 A    
C54   C63   1.410326 A    
O23   C13   1.292401 A    
N8    O39   1.301077 A    
C12   C42   1.439903 A    
O19   Zn6   2.061275 S    
C36   C60   1.366062 A    
C89   C93   1.414838 A    
C11   C45   1.425098 A    
C15   C40   1.439172 S    
C5    C51   1.407428 A    
C8    C38   1.428160 A    
C21   C34   1.469407 S    
H4    C58   1.085203 S    
C61   C91   1.411900 A    
O11   Zn2   2.050107 S    
O2    Zn2   2.044713 S    
C92   C97   1.403731 A    
N10   O44   1.300975 A    
C64   C76   1.415688 A    
C76   N11   1.436609 S    
C24   C31   1.458974 S    
C6    C36   1.433694 A    
C66   C94   1.415521 A    
C33   C57   1.371126 A    
C5    C35   1.433195 A    
C53   H17   1.077102 S    
C47   C70   1.405745 A    
O1    Zn1   2.044713 S    
N4    O31   1.301021 A    
C51   H15   1.079222 S    
C61   C73   1.415338 A    
C67   C85   1.404275 A    
C34   C58   1.369866 A    
C88   C96   1.411679 A    
O16   C22   1.298350 A    
C17   C38   1.432217 S    
O20   C18   1.288590 A    
C37   C56   1.377238 A    
O14   Zn2   2.068762 S    
N12   O48   1.300393 A    
C40   C59   1.371639 A    
O13   Zn1   2.068762 S    
N1    O26   1.300321 A    
C18   C37   1.452511 S    
C26   C98   1.416869 A    
C20   C35   1.458851 S    
O4    Zn4   2.051252 S    
C25   C97   1.413736 A    
O24   Zn1   2.070322 S    
C73   C79   1.414220 A    
C69   C89   1.406232 A    
O18   Zn6   2.071168 S    
C74   N7    1.437220 S    
C35   C59   1.365847 A    
O17   Zn5   2.071166 S    
C1    C49   1.409622 A    
C3    C33   1.437370 A    
C4    C34   1.437656 A    
C10   C40   1.427598 A    
C80   N1    1.436684 S    
O12   C24   1.238017 A    
C31   C55   1.363598 A    
N4    O32   1.301460 A    
C1    C25   1.414304 A    
