data_mof_unit_3920.cif
_audit_creation_date              2012-12-10T20:26:27-0500
_audit_creation_method            fapswitch 2.2
_symmetry_space_group_name_H-M    P1
_symmetry_Int_Tables_number       1
_space_group_crystal_system       triclinic
_cell_length_a                    10.758472
_cell_length_b                    10.759328
_cell_length_c                    9.998788
_cell_angle_alpha                 89.469591
_cell_angle_beta                  90.410231
_cell_angle_gamma                 92.441901
_cell_volume                      1156.27194577

loop_
_atom_site_label
_atom_site_type_symbol
_atom_type_description
_atom_site_fract_x
_atom_site_fract_y
_atom_site_fract_z
_atom_type_partial_charge
C1    C     C_R   0.508584 0.261101 0.499756 0.868744
C2    C     C_R   0.605785 0.527665 0.072032 0.216424
C3    C     C_R   0.607318 0.517178 0.929350 0.149528
C4    C     C_R   0.263201 0.500740 0.499673 0.889962
C5    C     C_R   0.391067 0.489300 0.928925 0.038580
C6    C     C_3   0.289071 0.390793 0.916208 0.507475
C7    C     C_3   0.300129 0.373174 0.072679 0.511548
C8    C     C_R   0.499298 0.739373 0.499266 0.875854
C9    C     C_R   0.737294 0.508700 0.501146 0.768930
C10   C     C_2   0.937182 0.544825 0.397519 -0.349409
C11   C     C_2   0.868061 0.543927 0.507930 0.380427
C12   C     C_R   0.519520 0.128978 0.497063 -0.211411
C13   C     C_2   0.070960 0.560914 0.404497 -0.149883
C14   C     C_2   0.131358 0.499865 0.499246 -0.216606
C15   C     C_R   0.502803 0.062839 0.615668 -0.074988
C16   C     C_3   0.796724 0.012022 0.652683 -0.853834
C17   C     C_3   0.743767 0.693857 0.150678 -0.830013
C18   C     C_3   0.756234 0.374604 0.860741 -0.724797
C19   C     C_3   0.070031 0.385196 0.886010 -0.300200
C20   C     C_3   0.244484 0.217773 0.749116 -0.739692
C21   C     C_3   0.120501 0.308109 0.223960 -0.766918
C22   C     C_3   0.307579 0.152136 0.091019 -0.247052
C23   C     C_R   0.527730 0.064448 0.374970 0.540373
C24   C     C_3   0.901239 0.704190 0.651663 -0.289956
C25   C     C_3   0.679932 0.135407 0.234890 -0.298113
C26   C     C_3   0.512513 0.856527 0.977957 -0.825110
C27   C     C_R   0.511670 0.936054 0.375511 -0.347098
C28   C     C_R   0.496183 0.871377 0.496812 -0.174783
C29   C     C_R   0.485010 0.936147 0.615395 0.037409
C30   C     C_3   0.550857 0.919610 0.745972 0.058599
C31   C     C_3   0.583034 0.059581 0.739284 -0.002315
C32   C     C_R   0.391858 0.482712 0.069521 -0.041043
H1    H     H_    0.897517 0.523251 0.301152 0.160161
H2    H     H_    0.821836 0.941065 0.728020 0.236983
H3    H     H_    0.793025 0.513689 0.111085 0.196793
H4    H     H_    0.768037 0.733744 0.050947 0.210009
H5    H     H_    0.824130 0.712520 0.218589 0.237002
H6    H     H_    0.662876 0.740656 0.192154 0.265385
H7    H     H_    0.793761 0.564293 0.891832 0.223619
H8    H     H_    0.801544 0.347348 0.956017 0.181498
H9    H     H_    0.820146 0.362151 0.776325 0.244582
H10   H     H_    0.672924 0.311880 0.844789 0.238954
H11   H     H_    0.077137 0.296514 0.941624 0.139888
H12   H     H_    0.119889 0.610477 0.324183 0.161641
H13   H     H_    0.027161 0.363715 0.787740 0.193358
H14   H     H_    0.007047 0.445467 0.940706 0.186386
H15   H     H_    0.408058 0.246107 0.865530 0.200236
H16   H     H_    0.295524 0.151537 0.689037 0.221473
H17   H     H_    0.196417 0.278829 0.677724 0.248622
H18   H     H_    0.176389 0.162311 0.809826 0.197027
H19   H     H_    0.145308 0.481836 0.123566 0.206272
H20   H     H_    0.040982 0.348543 0.274457 0.222583
H21   H     H_    0.179296 0.264712 0.301578 0.265755
H22   H     H_    0.079555 0.236961 0.155814 0.201242
H23   H     H_    0.083430 0.444585 0.575549 0.180127
H24   H     H_    0.222845 0.156218 0.028397 0.116288
H25   H     H_    0.283364 0.101690 0.185154 0.187362
H26   H     H_    0.375629 0.096104 0.038181 0.186005
H27   H     H_    0.800481 0.723140 0.655412 0.147588
H28   H     H_    0.948213 0.762969 0.573235 0.168915
H29   H     H_    0.943022 0.730827 0.749565 0.184292
H30   H     H_    0.698064 0.185910 0.139279 0.189437
H31   H     H_    0.720097 0.042087 0.226834 0.139768
H32   H     H_    0.727475 0.189909 0.316051 0.149512
H33   H     H_    0.385089 0.942705 0.854035 0.222006
H34   H     H_    0.518420 0.887705 0.281628 0.182774
H35   H     H_    0.436491 0.829134 0.048216 0.241427
H36   H     H_    0.566865 0.937879 0.018859 0.252616
H37   H     H_    0.572903 0.776763 0.967348 0.252071
H38   H     H_    0.628058 0.854655 0.741854 0.160969
H39   H     H_    0.546267 0.111576 0.824083 0.127692
H40   H     H_    0.722031 0.185249 0.669570 0.231836
H41   H     H_    0.884301 0.063172 0.623189 0.232037
H42   H     H_    0.754788 0.967976 0.562069 0.242148
N1    N     N_R   0.499170 0.499140 0.142800 -0.089597
N2    N     N_R   0.499170 0.499180 0.857150 -0.129767
N3    N     N_2   0.712693 0.097517 0.711362 -0.291442
N4    N     N_2   0.717243 0.561221 0.141269 -0.261041
N5    N     N_2   0.721973 0.503065 0.864728 -0.242143
N6    N     N_2   0.330734 0.290205 0.832565 -0.265275
N7    N     N_2   0.192183 0.404200 0.152009 -0.280588
N8    N     N_2   0.460515 0.886693 0.849177 -0.282691
O1    O     O_R   0.500020 0.316790 0.614690 -0.620889
O2    O     O_3   0.364680 0.269127 0.122505 -0.551167
O3    O     O_3   0.919417 0.576967 0.631023 -0.592242
O4    O     O_3   0.550266 0.125094 0.254597 -0.556268
O5    O     O_R   0.500000 0.316760 0.385350 -0.515344
O6    O     O_R   0.319080 0.500020 0.614640 -0.552954
O7    O     O_R   0.319070 0.499980 0.385300 -0.597497
O8    O     O_R   0.500000 0.683240 0.614650 -0.608259
O9    O     O_R   0.499980 0.683210 0.385310 -0.630668
O10   O     O_R   0.680930 0.500020 0.614700 -0.570240
O11   O     O_R   0.680920 0.499980 0.385360 -0.613347
O12   O     O_3   0.183954 0.451775 0.864772 -0.584607
Zn1   Zn    Zn3+2 0.500010 0.500020 0.653130 0.992988
Zn2   Zn    Zn3+2 0.499990 0.499980 0.346870 1.008068

loop_
_geom_bond_atom_site_label_1
_geom_bond_atom_site_label_2
_ccdc_geom_bond_type
C1    O5    A    
C24   H29   S    
C3    N5    S    
C32   N1    A    
C19   H14   S    
O8    Zn1   S    
C12   C23   A    
H40   N3    S    
C16   H42   S    
C26   H35   S    
C28   C29   A    
C18   H10   S    
N2    Zn1   S    
C21   H22   S    
C16   N3    S    
C25   H31   S    
C18   H8    S    
C17   N4    S    
C20   H18   S    
C16   H2    S    
O9    Zn2   S    
C18   N5    S    
C6    O12   S    
C23   O4    S    
C31   N3    S    
C17   H4    S    
C23   C27   A    
C29   C30   S    
C24   O3    S    
H19   N7    S    
O7    Zn2   S    
C25   H30   S    
C5    C32   A    
C31   H39   S    
C14   H23   S    
O6    Zn1   S    
C26   N8    S    
C13   C14   D    
C1    C12   S    
H15   N6    S    
C22   H25   S    
C9    O10   A    
C30   H38   S    
C19   H11   S    
N1    Zn2   S    
C15   C29   A    
C20   N6    S    
C16   H41   S    
C18   H9    S    
C22   H24   S    
O10   Zn1   S    
C25   H32   S    
H7    N5    S    
C30   N8    S    
C20   H17   S    
C2    N4    S    
C6    N6    S    
C12   C15   A    
C30   C31   S    
C24   H28   S    
O1    Zn1   S    
O5    Zn2   S    
C8    O9    A    
C17   H5    S    
C3    N2    A    
C9    C11   S    
C20   H16   S    
C19   O12   S    
C7    N7    S    
C21   N7    S    
O11   Zn2   S    
C8    C28   S    
C8    O8    A    
C9    O11   A    
C4    O7    A    
C7    C32   S    
C10   C13   S    
C22   H26   S    
C19   H13   S    
C15   C31   S    
C6    C7    S    
C4    O6    A    
C1    O1    A    
H3    N4    S    
C26   H36   S    
C5    N2    A    
C2    C3    A    
C27   H34   S    
C21   H21   S    
H33   N8    S    
C5    C6    S    
C11   O3    S    
C24   H27   S    
C25   O4    S    
C7    O2    S    
C10   H1    S    
C17   H6    S    
C13   H12   S    
C4    C14   S    
C10   C11   D    
C27   C28   A    
C26   H37   S    
C21   H20   S    
C2    N1    A    
C22   O2    S    
