data_mof_unit_4205.cif
_audit_creation_date              2012-12-11T14:33:58-0500
_audit_creation_method            fapswitch 2.2
_symmetry_space_group_name_H-M    P1
_symmetry_Int_Tables_number       1
_space_group_crystal_system       triclinic
_cell_length_a                    13.845895
_cell_length_b                    13.979035
_cell_length_c                    27.322284
_cell_angle_alpha                 90.031155
_cell_angle_beta                  89.60835
_cell_angle_gamma                 119.548274
_cell_volume                      4600.36549609

loop_
_atom_site_label
_atom_site_type_symbol
_atom_type_description
_atom_site_fract_x
_atom_site_fract_y
_atom_site_fract_z
_atom_type_partial_charge
C1    C     C_R   0.233816 0.786856 0.568787 0.540353
C2    C     C_R   0.212527 0.446975 0.568846 0.542572
C3    C     C_R   0.551965 0.764843 0.569208 0.540378
C4    C     C_3   0.635714 0.724896 0.792202 0.060123
C5    C     C_3   0.257770 0.931923 0.786688 0.059174
C6    C     C_3   0.070134 0.336262 0.789118 0.060580
C7    C     C_3   0.616414 0.713104 0.736019 -0.179762
C8    C     C_3   0.272480 0.918287 0.731312 -0.180072
C9    C     C_3   0.087166 0.369787 0.734149 -0.180397
C10   C     C_1   0.704449 0.860702 0.860769 -0.010096
C11   C     C_1   0.118190 0.874945 0.853976 -0.004710
C12   C     C_1   0.119543 0.240357 0.853335 -0.003628
C13   C     C_1   0.624502 0.811908 0.659635 -0.070936
C14   C     C_1   0.178832 0.815234 0.657278 -0.071640
C15   C     C_1   0.180180 0.365068 0.657373 -0.071817
C16   C     C_1   0.598237 0.794602 0.617221 -0.009458
C17   C     C_1   0.199803 0.804021 0.615708 -0.009029
C18   C     C_1   0.193642 0.396847 0.615815 -0.008322
C19   C     C_R   0.064981 0.152947 0.096691 0.575862
C20   C     C_R   0.772591 0.881286 0.086366 0.579797
C21   C     C_R   0.116997 0.892331 0.087085 0.594840
C22   C     C_R   0.070887 0.162308 0.943073 0.527392
C23   C     C_R   0.779764 0.887188 0.950839 0.553126
C24   C     C_R   0.091857 0.928590 0.943261 0.524631
C25   C     C_R   0.620101 0.893893 0.359484 -0.133733
C26   C     C_R   0.099421 0.741479 0.362282 -0.133852
C27   C     C_R   0.262228 0.351188 0.365353 -0.133887
C28   C     C_R   0.641107 0.906463 0.309056 0.020391
C29   C     C_R   0.083533 0.751359 0.312305 0.018512
C30   C     C_R   0.237143 0.298713 0.319593 0.017160
C31   C     C_R   0.668755 0.921408 0.206777 0.017170
C32   C     C_R   0.058858 0.765303 0.211020 0.005857
C33   C     C_R   0.193767 0.220080 0.222638 0.008226
C34   C     C_R   0.234136 0.787911 0.431103 0.546429
C35   C     C_R   0.211712 0.443603 0.431903 0.550584
C36   C     C_R   0.554594 0.766307 0.431170 0.547230
C37   C     C_R   0.656368 0.001503 0.232562 -0.117942
C38   C     C_R   0.968198 0.691675 0.239927 -0.109997
C39   C     C_R   0.294051 0.243766 0.245171 -0.109574
C40   C     C_R   0.642679 0.994116 0.283409 -0.139922
C41   C     C_R   0.980985 0.683348 0.290170 -0.123948
C42   C     C_R   0.316438 0.284775 0.293013 -0.124742
C43   C     C_R   0.691738 0.932419 0.156542 -0.135944
C44   C     C_R   0.046066 0.777698 0.161318 -0.155014
C45   C     C_R   0.175179 0.190125 0.173214 -0.156173
C46   C     C_R   0.707283 0.853308 0.131953 0.006379
C47   C     C_R   0.137170 0.852969 0.133131 0.007639
C48   C     C_R   0.081264 0.180785 0.149323 -0.001125
C49   C     C_R   0.637499 0.729165 0.358945 -0.127448
C50   C     C_R   0.287676 0.894870 0.355155 -0.122878
C51   C     C_R   0.074835 0.322833 0.371546 -0.126427
C52   C     C_R   0.653130 0.737648 0.308639 0.013749
C53   C     C_R   0.275722 0.900351 0.305330 0.011539
C54   C     C_R   0.050606 0.275421 0.325520 0.013055
C55   C     C_R   0.653733 0.825730 0.283328 0.067979
C56   C     C_R   0.173810 0.828193 0.283468 0.066262
C57   C     C_R   0.132583 0.265888 0.298605 0.065697
C58   C     C_R   0.660645 0.655039 0.283050 -0.144321
C59   C     C_R   0.366549 0.973596 0.276933 -0.140522
C60   C     C_R   0.948063 0.245440 0.304681 -0.137756
C61   C     C_R   0.665684 0.657688 0.232312 -0.108834
C62   C     C_R   0.357961 0.973445 0.226461 -0.105292
C63   C     C_R   0.930150 0.216036 0.255827 -0.096196
C64   C     C_R   0.667848 0.745590 0.206361 0.026022
C65   C     C_R   0.256410 0.903599 0.203733 0.026880
C66   C     C_R   0.013009 0.211879 0.227191 0.033323
C67   C     C_3   0.573485 0.868361 0.737598 -0.227564
C68   C     C_3   0.122304 0.719819 0.737904 -0.228597
C69   C     C_3   0.277735 0.388706 0.736004 -0.226708
C70   C     C_R   0.664225 0.831346 0.232165 0.033441
C71   C     C_R   0.162972 0.832282 0.232688 0.034641
C72   C     C_R   0.112172 0.230193 0.249676 0.036207
C73   C     C_R   0.678045 0.752117 0.155387 0.149033
C74   C     C_R   0.244620 0.906992 0.153086 0.142344
C75   C     C_R   0.000969 0.195215 0.176448 0.137607
C76   C     C_R   0.612498 0.801889 0.383972 -0.004068
C77   C     C_R   0.202968 0.811160 0.383358 -0.000540
C78   C     C_R   0.182531 0.368451 0.390079 -0.003715
C79   C     C_3   0.769452 0.907420 0.722917 -0.221302
C80   C     C_3   0.074231 0.866239 0.715390 -0.220367
C81   C     C_3   0.111146 0.207441 0.713956 -0.219287
C82   C     C_3   0.789352 0.921750 0.778824 -0.213891
C83   C     C_3   0.055488 0.878180 0.770330 -0.216265
C84   C     C_3   0.098836 0.174882 0.768513 -0.217434
C85   C     C_1   0.733150 0.872531 0.902917 0.032102
C86   C     C_1   0.106072 0.897607 0.895140 0.037086
C87   C     C_1   0.100246 0.206015 0.894631 0.031819
C88   C     C_3   0.645910 0.825401 0.712610 0.039982
C89   C     C_3   0.161745 0.829080 0.709130 0.039004
C90   C     C_3   0.164665 0.333438 0.709041 0.039383
C91   C     C_3   0.593945 0.880670 0.793699 -0.245142
C92   C     C_3   0.105905 0.735728 0.793135 -0.242853
C93   C     C_3   0.260815 0.356584 0.791055 -0.239610
C94   C     C_3   0.681149 0.846814 0.807896 0.067169
C95   C     C_3   0.134368 0.856196 0.802500 0.066489
C96   C     C_3   0.136317 0.276298 0.801992 0.066483
Cr1   Cr    Cr6+3 0.164410 0.584450 0.499910 1.024523
Cr2   Cr    Cr6+3 0.415550 0.579960 0.499910 1.023039
Cr3   Cr    Cr6+3 0.420040 0.835590 0.499910 1.020555
Cr4   Cr    Cr6+3 0.155170 0.075460 0.019960 1.101047
Cr5   Cr    Cr6+3 0.924540 0.079710 0.019960 1.095242
Cr6   Cr    Cr6+3 0.920290 0.844830 0.019960 1.088188
H1    H     H_    0.623256 0.967418 0.804556 0.168392
H2    H     H_    0.018484 0.678106 0.804194 0.171121
H3    H     H_    0.311632 0.317771 0.800729 0.186582
H4    H     H_    0.484003 0.810538 0.730678 0.109593
H5    H     H_    0.184510 0.691764 0.733911 0.109977
H6    H     H_    0.318136 0.479751 0.732396 0.110676
H7    H     H_    0.514483 0.828418 0.813580 0.113090
H8    H     H_    0.159993 0.715148 0.815573 0.117719
H9    H     H_    0.290739 0.431911 0.813794 0.119139
H10   H     H_    0.701855 0.003852 0.136920 0.185313
H11   H     H_    0.964011 0.734097 0.145324 0.156201
H12   H     H_    0.236393 0.179190 0.152735 0.152907
H13   H     H_    0.601757 0.950971 0.378736 0.121047
H14   H     H_    0.033507 0.677565 0.384085 0.119032
H15   H     H_    0.344983 0.383930 0.380149 0.123299
H16   H     H_    0.658270 0.070323 0.213466 0.143917
H17   H     H_    0.887712 0.640155 0.223615 0.126367
H18   H     H_    0.357165 0.235357 0.225050 0.129905
H19   H     H_    0.633415 0.056895 0.302670 0.093882
H20   H     H_    0.910685 0.624449 0.311711 0.105539
H21   H     H_    0.396620 0.308013 0.308757 0.105820
H22   H     H_    0.671218 0.591965 0.214026 0.162873
H23   H     H_    0.430614 0.030996 0.205944 0.165748
H24   H     H_    0.851427 0.199079 0.240949 0.160608
H25   H     H_    0.659705 0.586705 0.302221 0.102469
H26   H     H_    0.445085 0.029610 0.293732 0.100855
H27   H     H_    0.883850 0.251002 0.325316 0.104853
H28   H     H_    0.593325 0.949316 0.721634 0.145607
H29   H     H_    0.042737 0.654329 0.722563 0.145409
H30   H     H_    0.334522 0.362808 0.719054 0.150608
H31   H     H_    0.633661 0.658953 0.377664 0.131018
H32   H     H_    0.367959 0.950220 0.370856 0.134699
H33   H     H_    0.011673 0.332414 0.391080 0.133305
H34   H     H_    0.823055 0.877050 0.706453 0.120158
H35   H     H_    0.102440 0.946343 0.696481 0.119997
H36   H     H_    0.027985 0.166316 0.696418 0.125571
H37   H     H_    0.793686 0.988558 0.705873 0.131136
H38   H     H_    0.994389 0.805152 0.698506 0.128345
H39   H     H_    0.163170 0.178224 0.694935 0.126109
H40   H     H_    0.818824 0.008879 0.788631 0.162829
H41   H     H_    0.967989 0.818427 0.780080 0.160813
H42   H     H_    0.152285 0.138562 0.775868 0.163882
H43   H     H_    0.856094 0.903564 0.789004 0.134874
H44   H     H_    0.066792 0.960608 0.777594 0.122030
H45   H     H_    0.011871 0.111442 0.776639 0.131794
H46   H     H_    0.527891 0.652206 0.728817 0.094838
H47   H     H_    0.338039 0.894959 0.726116 0.098157
H48   H     H_    0.123972 0.460617 0.731036 0.093785
H49   H     H_    0.667282 0.680769 0.718536 0.167330
H50   H     H_    0.301025 0.997479 0.711584 0.167530
H51   H     H_    0.006136 0.332246 0.714886 0.169224
H52   H     H_    0.554828 0.672855 0.811115 0.137814
H53   H     H_    0.310492 0.906494 0.807360 0.142452
H54   H     H_    0.102009 0.412096 0.811655 0.140943
O1    O     O_R   0.137150 0.468200 0.553200 -0.509851
O2    O     O_R   0.531800 0.668950 0.553200 -0.508468
O3    O     O_R   0.331050 0.862850 0.553200 -0.506480
O4    O     O_R   0.179100 0.982980 0.967000 -0.467810
O5    O     O_R   0.017020 0.196120 0.967000 -0.454946
O6    O     O_R   0.803880 0.820900 0.967000 -0.481434
O7    O     O_R   0.173970 0.688730 0.549930 -0.499796
O8    O     O_R   0.311270 0.485240 0.549930 -0.499672
O9    O     O_R   0.514760 0.826030 0.549930 -0.497413
O10   O     O_R   0.140110 0.470540 0.446010 -0.520304
O11   O     O_R   0.529460 0.669570 0.446010 -0.521583
O12   O     O_R   0.330430 0.859890 0.446010 -0.525136
O13   O     O_R   0.176710 0.690910 0.450560 -0.498686
O14   O     O_R   0.309090 0.485800 0.450560 -0.501915
O15   O     O_R   0.514200 0.823290 0.450560 -0.502523
O16   O     O_3   0.333333 0.666667 0.499990 -0.266731
O17   O     O_R   0.176750 0.985260 0.074180 -0.477176
O18   O     O_R   0.014740 0.191490 0.074180 -0.417756
O19   O     O_R   0.808510 0.823250 0.074180 -0.464541
O20   O     O_R   0.146100 0.172630 0.068980 -0.472450
O21   O     O_R   0.827370 0.973470 0.068980 -0.506972
O22   O     O_R   0.026530 0.853900 0.068980 -0.499412
O23   O     O_3   1.000000 0.000000 0.020040 -0.323699
O24   O     O_R   0.148270 0.170520 0.969620 -0.481384
O25   O     O_R   0.829480 0.977750 0.969620 -0.521242
O26   O     O_R   0.022250 0.851730 0.969620 -0.476137
Br1   Br    Br    0.731965 0.666284 0.811924 -0.560693
Br2   Br    Br    0.315983 0.086667 0.802977 -0.587204
Br3   Br    Br    0.912021 0.248917 0.804915 -0.565824
Br4   Br    Br    0.649091 0.622379 0.118079 -0.466679
Br5   Br    Br    0.374071 0.985317 0.111084 -0.471061
Br6   Br    Br    0.883211 0.210298 0.145181 -0.513753

loop_
_geom_bond_atom_site_label_1
_geom_bond_atom_site_label_2
_ccdc_geom_bond_type
C15   C18   T    
C4    H52   S    
C10   C85   T    
C82   C94   S    
Cr3   O3    S    
C2    C18   S    
C33   C45   A    
C79   H37   S    
C75   Br6   S    
C14   C17   T    
C82   H40   S    
C27   C78   A    
C92   H8    S    
C82   H43   S    
C6    C9    S    
C73   Br4   S    
C53   C59   A    
C54   C60   A    
C25   C28   A    
C40   H19   S    
C6    Br3   S    
C67   C88   S    
C33   C39   A    
Cr1   O16   S    
C31   C43   A    
C60   C63   A    
C8    H50   S    
C23   O25   A    
C37   C40   A    
C69   C93   S    
C25   H13   S    
C34   C77   S    
C53   C56   A    
C20   O19   A    
Cr3   O15   S    
C28   C40   A    
C11   C86   T    
Cr1   O10   S    
C30   C57   A    
C35   O10   A    
Cr1   O13   S    
C84   C96   S    
C80   C89   S    
C2    O1    A    
C19   O20   A    
C36   C76   S    
C33   C72   A    
C93   H3    S    
C51   H33   S    
C45   H12   S    
C28   C55   A    
C31   C70   A    
C66   C72   A    
C37   H16   S    
Cr2   O2    S    
Cr1   O7    S    
Cr4   O20   S    
C3    O2    A    
C64   C73   A    
C68   H5    S    
C32   C38   A    
C39   C42   A    
C5    Br2   S    
Cr2   O11   S    
C12   C87   T    
C52   C55   A    
C6    H54   S    
C23   O6    A    
Cr2   O16   S    
C56   C71   A    
C58   C61   A    
C81   H39   S    
C63   C66   A    
C9    H51   S    
C58   H25   S    
C4    Br1   S    
C27   C30   A    
Cr6   O23   S    
C48   C75   A    
Cr5   O18   S    
C80   C83   S    
C34   O12   A    
C79   C88   S    
C5    C95   S    
C69   H6    S    
C42   H21   S    
C32   C71   A    
C27   H15   S    
C81   H36   S    
C9    H48   S    
C50   C53   A    
C24   O26   A    
C26   C77   A    
C84   H42   S    
C1    O3    A    
C38   C41   A    
C22   O24   A    
C50   H32   S    
C2    O8    A    
C22   O5    A    
C19   C48   S    
C74   Br5   S    
Cr3   O16   S    
C59   C62   A    
C4    C7    S    
C59   H26   S    
C65   C71   A    
C36   O11   A    
C65   C74   A    
C31   C37   A    
Cr6   O26   S    
C41   H20   S    
C9    C90   S    
C68   H29   S    
C64   C70   A    
C14   C89   S    
Cr5   O23   S    
C62   H23   S    
C83   H44   S    
Cr4   O4    S    
C80   H35   S    
C7    C88   S    
Cr6   O6    S    
C49   C52   A    
C83   C95   S    
C67   C91   S    
C68   C89   S    
C32   C44   A    
C49   C76   A    
C22   C87   S    
C34   O13   A    
C52   C58   A    
C93   H9    S    
C7    H49   S    
C81   C90   S    
Cr3   O9    S    
C21   O22   A    
C79   H34   S    
C44   H11   S    
C93   C96   S    
C21   O17   A    
C6    C96   S    
C61   H22   S    
Cr6   O22   S    
C4    C94   S    
C67   H28   S    
C43   H10   S    
C38   H17   S    
C69   C90   S    
Cr4   O24   S    
C50   C77   A    
C81   C84   S    
Cr5   O25   S    
C3    O9    A    
Cr3   O12   S    
C45   C48   A    
C11   C95   S    
C5    C8    S    
C49   H31   S    
C36   O15   A    
C62   C65   A    
C29   C41   A    
C30   C42   A    
C47   C74   A    
C91   H1    S    
C60   H27   S    
C7    H46   S    
C79   C82   S    
Cr2   O8    S    
C44   C47   A    
C67   H4    S    
C20   O21   A    
C29   C56   A    
C84   H45   S    
C35   C78   S    
C1    C17   S    
C51   C54   A    
C25   C76   A    
Cr5   O5    S    
C8    H47   S    
Cr6   O19   S    
C19   O18   A    
C80   H38   S    
C15   C90   S    
C83   H41   S    
C91   H7    S    
C63   H24   S    
C69   H30   S    
C66   C75   A    
C13   C88   S    
C68   C92   S    
C92   C95   S    
C57   C72   A    
C5    H53   S    
C43   C46   A    
C26   H14   S    
C51   C78   A    
C55   C70   A    
Cr5   O21   S    
C92   H2    S    
Cr2   O14   S    
C24   O4    A    
C1    O7    A    
C26   C29   A    
C23   C85   S    
C13   C16   T    
Cr4   O17   S    
C61   C64   A    
C35   O14   A    
C10   C94   S    
C12   C96   S    
C8    C89   S    
C21   C47   S    
Cr4   O23   S    
C24   C86   S    
C46   C73   A    
C20   C46   S    
C3    C16   S    
C39   H18   S    
Cr1   O1    S    
C91   C94   S    
C54   C57   A    
