data_mof_unit_4804.cif
_audit_creation_date              2012-12-11T14:14:22-0500
_audit_creation_method            fapswitch 2.2
_symmetry_space_group_name_H-M    P1
_symmetry_Int_Tables_number       1
_space_group_crystal_system       triclinic
_cell_length_a                    16.991883
_cell_length_b                    7.24904
_cell_length_c                    16.907283
_cell_angle_alpha                 89.652678
_cell_angle_beta                  99.440571
_cell_angle_gamma                 90.416952
_cell_volume                      2054.26692306

loop_
_atom_site_label
_atom_site_type_symbol
_atom_type_description
_atom_site_fract_x
_atom_site_fract_y
_atom_site_fract_z
_atom_type_partial_charge
O1    O     O_R   0.414560 0.494370 0.416770 -0.539105
O2    O     O_R   0.585440 0.994370 0.583230 -0.540237
O3    O     O_R   0.578370 0.819590 0.429320 -0.537791
O4    O     O_R   0.421630 0.319590 0.570680 -0.542120
C1    C     C_R   0.603688 0.656454 0.412655 0.738177
C2    C     C_R   0.396293 0.154810 0.587043 0.731250
O5    O     O_R   0.414740 0.823790 0.407360 -0.538785
O6    O     O_R   0.585260 0.323790 0.592640 -0.540363
O7    O     O_R   0.420650 0.998510 0.561120 -0.534863
O8    O     O_R   0.579350 0.498510 0.438880 -0.541763
C3    C     C_R   0.387252 0.654772 0.385888 0.763399
C4    C     C_R   0.612703 0.154925 0.614098 0.759790
O9    O     O_3   0.502130 0.662240 0.550470 -0.382257
O10   O     O_3   0.497870 0.162240 0.449530 -0.381387
V1    V     V_3+5 0.499600 0.935390 0.490640 1.389621
V2    V     V_3+5 0.500400 0.435390 0.509360 1.380505
C5    C     C_2   0.798048 0.272743 0.774009 0.448723
C6    C     C_2   0.202989 0.773435 0.225033 0.467058
C7    C     C_2   0.819536 0.117655 0.817844 -0.394447
C8    C     C_2   0.181433 0.618785 0.181307 -0.363227
H1    H     H_    0.784683 0.992019 0.806624 0.100804
H2    H     H_    0.216850 0.494795 0.192052 0.094106
C9    C     C_2   0.722245 0.284216 0.714497 -0.251478
C10   C     C_2   0.280152 0.784092 0.283111 -0.261722
C11   C     C_2   0.683107 0.138134 0.678112 -0.367135
C12   C     C_2   0.316363 0.638080 0.322348 -0.369194
H3    H     H_    0.700151 0.421608 0.697869 0.157257
H4    H     H_    0.305643 0.920244 0.296600 0.152039
H5    H     H_    0.705559 0.999989 0.691680 0.138245
H6    H     H_    0.290952 0.501054 0.311512 0.134140
C13   C     C_R   0.333885 0.146488 0.638695 -0.146808
C14   C     C_R   0.665996 0.655004 0.360511 -0.160271
C15   C     C_R   0.167788 0.121142 0.864426 -0.146752
C16   C     C_R   0.830747 0.610825 0.134296 -0.172578
C17   C     C_R   0.308335 0.095974 0.853935 -0.220851
C18   C     C_R   0.706892 0.477057 0.163934 -0.182585
C19   C     C_R   0.247454 0.097578 0.900980 0.386725
C20   C     C_R   0.763334 0.495766 0.112797 0.404398
C21   C     C_R   0.149913 0.147812 0.781173 -0.255954
C22   C     C_R   0.838720 0.710720 0.206043 -0.229515
C23   C     C_R   0.210801 0.147599 0.733204 0.032017
C24   C     C_R   0.781661 0.692630 0.257930 0.023992
C25   C     C_R   0.291255 0.120178 0.770004 0.003684
C26   C     C_R   0.714678 0.574411 0.236553 -0.007147
C27   C     C_R   0.352962 0.119010 0.722513 0.241106
C28   C     C_R   0.656853 0.554832 0.287914 0.248108
C29   C     C_R   0.254338 0.171328 0.603109 -0.339199
C30   C     C_R   0.732506 0.771372 0.380675 -0.327722
C31   C     C_R   0.192271 0.175676 0.649458 0.435469
C32   C     C_R   0.791738 0.786948 0.331570 0.441201
H7    H     H_    0.241038 0.186464 0.538572 0.113096
H8    H     H_    0.737998 0.851970 0.435064 0.130452
H9    H     H_    0.368960 0.074586 0.883872 0.168439
H10   H     H_    0.656882 0.384594 0.146019 0.176975
H11   H     H_    0.088121 0.167132 0.754124 0.163916
H12   H     H_    0.891166 0.796910 0.222547 0.172634
O11   O     O_R   0.920750 0.773600 0.061260 -0.539785
O12   O     O_R   0.079250 0.273600 0.938740 -0.545621
O13   O     O_R   0.085340 0.439850 0.092570 -0.556603
O14   O     O_R   0.914660 0.939850 0.907430 -0.554589
C33   C     C_R   0.111923 0.609065 0.115236 0.754224
C34   C     C_R   0.888299 0.108935 0.884626 0.763321
O15   O     O_R   0.921720 0.444130 0.070790 -0.521385
O16   O     O_R   0.078280 0.944130 0.929210 -0.533801
O17   O     O_R   0.914480 0.269530 0.916840 -0.495892
O18   O     O_R   0.085520 0.769530 0.083160 -0.491569
C35   C     C_R   0.895815 0.611010 0.085778 0.704244
C36   C     C_R   0.103275 0.112975 0.913346 0.736488
O19   O     O_3   0.997840 0.601520 0.949550 -0.381135
O20   O     O_3   0.002160 0.101520 0.050450 -0.367694
V3    V     V_3+5 0.000400 0.328340 0.009360 1.492298
V4    V     V_3+5 0.999600 0.828340 0.990640 1.481739
O21   O     O_3   0.843393 0.432442 0.789915 -0.538704
C37   C     C_3   0.873493 0.487740 0.720260 0.076984
H13   H     H_    0.824744 0.538165 0.673199 0.108966
H14   H     H_    0.905163 0.372166 0.695919 0.114689
C38   C     C_3   0.932648 0.645455 0.741053 -0.666587
H15   H     H_    0.984190 0.598345 0.785447 0.228148
H16   H     H_    0.954707 0.694311 0.686256 0.156631
H17   H     H_    0.903142 0.762170 0.766334 0.219157
O22   O     O_3   0.155319 0.929620 0.209991 -0.538949
C39   C     C_3   0.147995 0.022892 0.281650 0.062645
H18   H     H_    0.199656 0.117695 0.298584 0.111656
H19   H     H_    0.143597 0.925599 0.332170 0.113309
C40   C     C_3   0.072507 0.138121 0.267934 -0.665200
H20   H     H_    0.019318 0.047242 0.252721 0.226948
H21   H     H_    0.067477 0.216630 0.323046 0.156168
H22   H     H_    0.074501 0.237333 0.218161 0.232057
N1    N     N_2   0.433922 0.094201 0.759432 -0.531952
H23   H     H_    0.474462 0.175054 0.735541 0.246067
C41   C     C_3   0.458417 0.903493 0.768745 -0.548494
H24   H     H_    0.457360 0.838917 0.709163 0.209055
H25   H     H_    0.418456 0.824543 0.802604 0.204712
H26   H     H_    0.520126 0.896613 0.802599 0.193487
N2    N     N_2   0.588409 0.440857 0.264172 -0.530457
H27   H     H_    0.573873 0.354717 0.308293 0.277892
C42   C     C_3   0.520323 0.536233 0.220207 -0.551216
H28   H     H_    0.497745 0.639831 0.259005 0.184081
H29   H     H_    0.471940 0.435218 0.199839 0.196843
H30   H     H_    0.536793 0.606263 0.166549 0.205557
O23   O     O_3   0.112456 0.193996 0.614675 -0.559853
C43   C     C_3   0.101701 0.328759 0.553075 0.100216
H31   H     H_    0.110744 0.265778 0.495473 0.119078
H32   H     H_    0.142772 0.449272 0.567010 0.119916
C44   C     C_3   0.016685 0.400060 0.542899 -0.749765
H33   H     H_    0.006970 0.471709 0.598245 0.218394
H34   H     H_    0.006345 0.498654 0.491833 0.181354
H35   H     H_    0.973435 0.284028 0.530961 0.228026
O24   O     O_3   0.857298 0.903183 0.351690 -0.554315
C45   C     C_3   0.897314 0.866214 0.430303 0.087956
H36   H     H_    0.894677 0.717377 0.447047 0.109583
H37   H     H_    0.871026 0.950368 0.474024 0.125859
C46   C     C_3   0.984745 0.919761 0.435950 -0.729475
H38   H     H_    0.989970 0.067356 0.419730 0.231078
H39   H     H_    0.016404 0.897510 0.498110 0.203921
H40   H     H_    0.013123 0.834137 0.394342 0.211923
O25   O     O_3   0.265129 0.062439 0.982426 -0.554907
C47   C     C_3   0.294727 0.225840 0.021912 0.088979
H41   H     H_    0.252813 0.343055 0.005978 0.117469
H42   H     H_    0.354134 0.262909 0.006547 0.119491
C48   C     C_3   0.304224 0.195154 0.112067 -0.690574
H43   H     H_    0.345244 0.078265 0.130304 0.224310
H44   H     H_    0.329200 0.321391 0.143887 0.160634
H45   H     H_    0.245282 0.163832 0.129416 0.248103
O26   O     O_3   0.753021 0.392542 0.043290 -0.552693
C49   C     C_3   0.723902 0.506697 0.976878 0.089730
H46   H     H_    0.774851 0.557383 0.948903 0.149225
H47   H     H_    0.689487 0.628277 0.992532 0.095711
C50   C     C_3   0.668538 0.393752 0.915391 -0.675919
H48   H     H_    0.614386 0.352520 0.940229 0.210776
H49   H     H_    0.650334 0.476894 0.860109 0.175956
H50   H     H_    0.699187 0.267517 0.900022 0.230014

loop_
_geom_bond_atom_site_label_1
_geom_bond_atom_site_label_2
_ccdc_geom_bond_type
O23   C43   S    
C17   H9    S    
C14   C30   A    
O21   C37   S    
N2    H27   S    
O1    C3    A    
O2    C4    A    
C17   C25   A    
C20   O26   S    
C2    O7    A    
C42   H28   S    
C29   C31   A    
C38   H15   S    
O5    C3    A    
C44   H34   S    
C15   C21   A    
C37   H14   S    
C16   C22   A    
O16   C36   A    
C17   C19   A    
C10   C12   D    
C50   H48   S    
C31   O23   S    
O12   V3    S    
C40   H22   S    
O14   V4    S    
C7    C34   S    
C6    O22   S    
C43   C44   S    
O14   C34   A    
C8    C33   S    
C47   H41   S    
C48   H45   S    
C45   H36   S    
C33   O18   A    
O18   V4    S    
C28   N2    S    
C22   H12   S    
C37   C38   S    
O20   V3    S    
C9    H3    S    
N1    C41   S    
C27   N1    S    
C46   H40   S    
C21   H11   S    
C30   C32   A    
C2    C13   S    
O6    V2    S    
C13   C29   A    
C5    O21   S    
C23   C25   A    
C24   C26   A    
O11   C35   A    
C50   H50   S    
C23   C31   A    
C42   H29   S    
C26   C28   A    
O22   C39   S    
C47   H42   S    
C38   H16   S    
C11   H5    S    
C44   H35   S    
O15   C35   A    
O13   C33   A    
C37   H13   S    
C40   H21   S    
C21   C23   A    
C41   H24   S    
C29   H7    S    
C49   C50   S    
O17   V3    S    
C32   O24   S    
C15   C19   A    
C47   C48   S    
O4    V2    S    
O19   V4    S    
C41   H25   S    
O6    C4    A    
O1    V2    S    
C5    C9    S    
C43   H32   S    
O2    V1    S    
C25   C27   A    
C45   C46   S    
C48   H43   S    
C24   C32   A    
O12   C36   A    
C8    H2    S    
C12   H6    S    
C39   H19   S    
O26   C49   S    
C6    C10   S    
C18   C26   A    
O4    C2    A    
C42   H30   S    
O3    V1    S    
C46   H38   S    
C38   H17   S    
C49   H47   S    
C34   O17   A    
C7    H1    S    
C16   C20   A    
C14   C28   A    
C10   H4    S    
O15   V3    S    
C22   C24   A    
O3    C1    A    
C40   H20   S    
C16   C35   S    
N2    C42   S    
C39   C40   S    
C44   H33   S    
C3    C12   S    
C4    C11   S    
C1    C14   S    
C18   C20   A    
O7    V1    S    
C1    O8    A    
O8    V2    S    
O24   C45   S    
C41   H26   S    
C49   H46   S    
O5    V1    S    
C5    C7    D    
C6    C8    D    
O16   V4    S    
O11   V4    S    
C43   H31   S    
C45   H37   S    
C48   H44   S    
C18   H10   S    
C30   H8    S    
C9    C11   D    
C19   O25   S    
C39   H18   S    
C13   C27   A    
O9    V2    S    
O10   V1    S    
C50   H49   S    
N1    H23   S    
O25   C47   S    
C15   C36   S    
O13   V3    S    
C46   H39   S    
