data_mof_unit_3104.cif
_audit_creation_date              2012-12-11T15:43:01-0500
_audit_creation_method            fapswitch 2.2
_symmetry_space_group_name_H-M    P1
_symmetry_Int_Tables_number       1
_space_group_crystal_system       triclinic
_cell_length_a                    19.045238
_cell_length_b                    10.941191
_cell_length_c                    18.809276
_cell_angle_alpha                 90.141365
_cell_angle_beta                  89.922814
_cell_angle_gamma                 89.777002
_cell_volume                      3919.38631561

loop_
_atom_site_label
_atom_site_type_symbol
_atom_type_description
_atom_site_fract_x
_atom_site_fract_y
_atom_site_fract_z
_atom_type_partial_charge
C1    C     C_R   0.712312 0.331654 0.138423 0.554490
C2    C     C_R   0.943116 0.973311 0.050956 -0.102424
C3    C     C_R   0.741672 0.411066 0.578976 0.019179
C4    C     C_R   0.727298 0.372297 0.355032 0.555065
C5    C     C_R   0.269999 0.380417 0.648305 0.548302
C6    C     C_R   0.227298 0.872297 0.355032 0.555064
C7    C     C_R   0.769999 0.880417 0.648305 0.548302
C8    C     C_R   0.532126 0.157787 0.353391 0.548214
C9    C     C_R   0.466712 0.156608 0.645688 0.548042
C10   C     C_R   0.032127 0.657787 0.353391 0.548214
C11   C     C_R   0.966712 0.656608 0.645688 0.548044
C12   C     C_R   0.740244 0.975796 0.356210 0.543180
C13   C     C_R   0.455094 0.491905 0.978963 -0.102116
C14   C     C_R   0.257550 0.969034 0.646593 0.542182
C15   C     C_R   0.240244 0.475795 0.356210 0.543178
C16   C     C_R   0.757550 0.469034 0.646593 0.542184
C17   C     C_R   0.504615 0.172872 0.921644 -0.045351
C18   C     C_R   0.510384 0.154306 0.070455 -0.051111
C19   C     C_R   0.004621 0.672879 0.921640 -0.045359
C20   C     C_R   0.010396 0.654309 0.070451 -0.051124
C21   C     C_R   0.489005 0.277070 0.964819 -0.038702
C22   C     C_R   0.485516 0.263412 0.039464 -0.048479
C23   C     C_R   0.989008 0.777073 0.964817 -0.038700
C24   C     C_R   0.443126 0.473320 0.050956 -0.102424
C25   C     C_R   0.985521 0.763412 0.039461 -0.048483
C26   C     C_R   0.530909 0.054375 0.025875 0.217471
C27   C     C_R   0.533340 0.068431 0.952614 0.216771
C28   C     C_R   0.030933 0.554388 0.025868 0.217469
C29   C     C_R   0.033358 0.568445 0.952607 0.216774
C30   C     C_R   0.747543 0.914641 0.923893 0.059203
C31   C     C_R   0.225148 0.859423 0.064512 0.014552
C32   C     C_R   0.247548 0.414620 0.923899 0.059252
C33   C     C_R   0.725150 0.359418 0.064513 0.014576
C34   C     C_R   0.713842 0.830937 0.968687 0.114163
C35   C     C_R   0.290294 0.898708 0.040168 -0.000604
C36   C     C_R   0.213886 0.330883 0.968699 0.114138
C37   C     C_R   0.269988 0.375723 0.854201 0.557990
C38   C     C_R   0.790285 0.398777 0.040181 -0.000590
C39   C     C_R   0.711919 0.848502 0.041236 0.095115
C40   C     C_R   0.300919 0.919559 0.969288 -0.016688
C41   C     C_R   0.211961 0.348453 0.041247 0.095100
C42   C     C_R   0.800912 0.419636 0.969301 -0.016705
C43   C     C_R   0.767623 0.043339 0.025424 -0.153640
C44   C     C_R   0.179198 0.883896 0.944443 -0.149874
C45   C     C_R   0.267578 0.543355 0.025422 -0.153619
C46   C     C_R   0.679205 0.383872 0.944441 -0.149859
C47   C     C_R   0.770152 0.025756 0.952195 -0.142191
C48   C     C_R   0.212313 0.831658 0.138423 0.554483
C49   C     C_R   0.168522 0.858632 0.016642 -0.152076
C50   C     C_R   0.270114 0.525763 0.952193 -0.142163
C51   C     C_R   0.668528 0.358593 0.016638 -0.152059
C52   C     C_3   0.725391 0.696894 0.976995 -0.246680
C53   C     C_3   0.364133 0.856423 0.051092 -0.238323
C54   C     C_3   0.225490 0.196861 0.977011 -0.246744
C55   C     C_3   0.864134 0.356518 0.051104 -0.238318
C56   C     C_3   0.723518 0.716556 0.056743 -0.281453
C57   C     C_3   0.374669 0.874620 0.971420 -0.222684
C58   C     C_3   0.223623 0.216532 0.056758 -0.281520
C59   C     C_R   0.769987 0.875725 0.854201 0.557984
C60   C     C_3   0.874674 0.374719 0.971434 -0.222650
C61   C     C_R   0.744256 0.949599 0.070824 0.025718
C62   C     C_R   0.247136 0.909114 0.919450 0.009417
C63   C     C_R   0.244255 0.449594 0.070828 0.025773
C64   C     C_R   0.747140 0.409130 0.919455 0.009431
C65   C     C_R   0.533491 0.153296 0.145196 0.541941
C66   C     C_R   0.469894 0.157038 0.852295 0.572055
C67   C     C_R   0.033494 0.653296 0.145194 0.541942
C68   C     C_R   0.969895 0.657038 0.852294 0.572057
C69   C     C_R   0.485317 0.162358 0.571109 0.021434
C70   C     C_R   0.478115 0.395430 0.936234 -0.070031
C71   C     C_R   0.499431 0.170528 0.422651 0.014511
C72   C     C_R   0.985317 0.662358 0.571109 0.021435
C73   C     C_R   0.999431 0.670528 0.422651 0.014511
C74   C     C_R   0.462399 0.066405 0.528032 0.044011
C75   C     C_R   0.468128 0.070177 0.455385 0.017743
C76   C     C_R   0.962399 0.566404 0.528032 0.044011
C77   C     C_R   0.968128 0.570177 0.455385 0.017742
C78   C     C_R   0.513754 0.275080 0.464323 -0.165031
C79   C     C_R   0.507156 0.270726 0.538445 -0.175181
C80   C     C_R   0.013754 0.775080 0.464323 -0.165031
C81   C     C_R   0.458379 0.360382 0.081266 -0.085643
C82   C     C_R   0.007156 0.770726 0.538445 -0.175181
C83   C     C_3   0.480076 0.933688 0.531432 -0.265028
C84   C     C_3   0.483667 0.935933 0.451182 -0.270323
C85   C     C_3   0.980076 0.433688 0.531432 -0.265028
C86   C     C_3   0.983668 0.435933 0.451182 -0.270324
C87   C     C_R   0.749782 0.932561 0.580288 0.019769
C88   C     C_R   0.236653 0.890082 0.430767 0.017542
C89   C     C_R   0.249782 0.432561 0.580288 0.019770
C90   C     C_R   0.736653 0.390083 0.430766 0.017542
C91   C     C_R   0.798136 0.004789 0.543120 0.027372
C92   C     C_R   0.978111 0.895432 0.936233 -0.070023
C93   C     C_R   0.180607 0.940078 0.468470 0.030882
C94   C     C_R   0.298137 0.504789 0.543120 0.027372
C95   C     C_R   0.680607 0.440078 0.468470 0.030883
C96   C     C_R   0.795598 0.011984 0.470456 0.038746
C97   C     C_R   0.182497 0.950156 0.540982 0.022354
C98   C     C_R   0.295598 0.511984 0.470456 0.038746
C99   C     C_R   0.682498 0.450156 0.540982 0.022354
C100  C     C_R   0.689281 0.894907 0.468995 -0.164808
C101  C     C_R   0.291344 0.837799 0.543679 -0.154483
C102  C     C_R   0.189281 0.394906 0.468995 -0.164808
C103  C     C_R   0.958377 0.860376 0.081264 -0.085639
C104  C     C_R   0.791344 0.337799 0.543679 -0.154483
C105  C     C_R   0.690843 0.889114 0.543458 -0.169783
C106  C     C_R   0.289412 0.828637 0.469274 -0.153245
C107  C     C_R   0.190843 0.389114 0.543458 -0.169783
C108  C     C_R   0.789412 0.328637 0.469274 -0.153246
C109  C     C_3   0.876977 0.004316 0.542139 -0.267821
C110  C     C_3   0.144562 0.059760 0.458342 -0.279646
C111  C     C_3   0.376977 0.504315 0.542139 -0.267821
C112  C     C_3   0.644563 0.559760 0.458342 -0.279646
C113  C     C_R   0.740436 0.973857 0.146006 0.537127
C114  C     C_R   0.955083 0.991900 0.978963 -0.102108
C115  C     C_R   0.257739 0.965306 0.850649 0.531282
C116  C     C_R   0.240437 0.473854 0.146008 0.537125
C117  C     C_R   0.757740 0.465310 0.850651 0.531283
C118  C     C_3   0.873398 0.010837 0.462012 -0.279165
C119  C     C_3   0.146527 0.072190 0.538256 -0.268888
C120  C     C_3   0.373398 0.510836 0.462012 -0.279165
C121  C     C_3   0.646527 0.572190 0.538256 -0.268888
C122  C     C_R   0.744961 0.949511 0.431599 0.019216
C123  C     C_R   0.241672 0.911066 0.578976 0.019180
C124  C     C_R   0.244961 0.449510 0.431599 0.019217
Cl1   Cl    Cl    0.548126 0.904220 0.057648 -0.575573
Cl2   Cl    Cl    0.570317 0.951032 0.898782 -0.565432
Cl3   Cl    Cl    0.048168 0.404238 0.057639 -0.575472
Cl4   Cl    Cl    0.070339 0.451057 0.898771 -0.565389
Cr1   Cr    Cr6+3 0.772010 0.169670 0.250090 1.007305
Cr2   Cr    Cr6+3 0.383290 0.010760 0.749160 1.043613
Cr3   Cr    Cr6+3 0.116710 0.510760 0.250840 1.053972
Cr4   Cr    Cr6+3 0.883290 0.510760 0.749160 1.043614
Cr5   Cr    Cr6+3 0.227990 0.169670 0.749910 1.041326
Cr6   Cr    Cr6+3 0.272010 0.669670 0.250090 1.007307
Cr7   Cr    Cr6+3 0.727990 0.669670 0.749910 1.041309
Cr8   Cr    Cr6+3 0.615000 0.323260 0.249260 1.010736
Cr9   Cr    Cr6+3 0.385000 0.323260 0.750740 1.002571
Cr10  Cr    Cr6+3 0.115000 0.823260 0.249260 1.010739
Cr11  Cr    Cr6+3 0.885000 0.823260 0.750740 1.002572
Cr12  Cr    Cr6+3 0.616710 0.010760 0.250840 1.053966
H1    H     H_    0.535711 0.356212 0.440552 0.140695
H2    H     H_    0.440503 0.884496 0.425291 0.129462
H3    H     H_    0.031671 0.416578 0.557057 0.137551
H4    H     H_    0.940503 0.384495 0.425291 0.129461
H5    H     H_    0.646533 0.852540 0.440738 0.120087
H6    H     H_    0.333771 0.795615 0.572816 0.117666
H7    H     H_    0.146533 0.352540 0.440738 0.120086
H8    H     H_    0.833771 0.295616 0.572815 0.117665
H9    H     H_    0.649674 0.841106 0.571301 0.118440
H10   H     H_    0.329776 0.777202 0.442014 0.127645
H11   H     H_    0.149674 0.341105 0.571301 0.118440
H12   H     H_    0.520843 0.350061 0.569997 0.123342
H13   H     H_    0.829776 0.277203 0.442014 0.127645
H14   H     H_    0.899590 0.917022 0.561023 0.174809
H15   H     H_    0.090540 0.050169 0.436951 0.134452
H16   H     H_    0.399590 0.417021 0.561023 0.174809
H17   H     H_    0.590540 0.550169 0.436951 0.134452
H18   H     H_    0.899449 0.087831 0.566857 0.124968
H19   H     H_    0.178067 0.127259 0.430259 0.140375
H20   H     H_    0.399449 0.587831 0.566857 0.124968
H21   H     H_    0.678068 0.627259 0.430259 0.140375
H22   H     H_    0.894368 0.097549 0.440247 0.131919
H23   H     H_    0.035710 0.856212 0.440552 0.140695
H24   H     H_    0.181722 0.146389 0.555858 0.169535
H25   H     H_    0.394368 0.597548 0.440247 0.131919
H26   H     H_    0.681722 0.646389 0.555858 0.169536
H27   H     H_    0.892738 0.926665 0.435035 0.143373
H28   H     H_    0.093654 0.070852 0.563369 0.129751
H29   H     H_    0.392738 0.426665 0.435035 0.143373
H30   H     H_    0.593654 0.570852 0.563369 0.129751
H31   H     H_    0.490218 0.416780 0.881569 0.142879
H32   H     H_    0.448412 0.349565 0.137525 0.131039
H33   H     H_    0.990212 0.916786 0.881569 0.142881
H34   H     H_    0.020843 0.850061 0.569997 0.123342
H35   H     H_    0.948411 0.849554 0.137524 0.131044
H36   H     H_    0.946216 0.081244 0.956019 0.126453
H37   H     H_    0.923529 0.047352 0.083772 0.130427
H38   H     H_    0.446234 0.581252 0.956018 0.126471
H39   H     H_    0.423546 0.547368 0.083772 0.130433
H40   H     H_    0.785984 0.128460 0.046830 0.128875
H41   H     H_    0.134754 0.885359 0.908607 0.133542
H42   H     H_    0.285895 0.628495 0.046823 0.128874
H43   H     H_    0.634764 0.385306 0.908600 0.133523
H44   H     H_    0.794110 0.094550 0.918781 0.126015
H45   H     H_    0.936694 0.377812 0.552344 0.139888
H46   H     H_    0.116493 0.837872 0.035312 0.143693
H47   H     H_    0.294036 0.594581 0.918773 0.126008
H48   H     H_    0.616502 0.337796 0.035303 0.143664
H49   H     H_    0.277877 0.167775 0.956929 0.128930
H50   H     H_    0.869539 0.260279 0.068359 0.143943
H51   H     H_    0.777773 0.667759 0.956922 0.128934
H52   H     H_    0.369524 0.760186 0.068345 0.143939
H53   H     H_    0.679850 0.643807 0.957138 0.188267
H54   H     H_    0.394230 0.922661 0.083835 0.180900
H55   H     H_    0.179965 0.143728 0.957167 0.188254
H56   H     H_    0.036608 0.413512 0.430968 0.160752
H57   H     H_    0.894227 0.422769 0.083848 0.180841
H58   H     H_    0.677209 0.673999 0.082683 0.188972
H59   H     H_    0.412082 0.948151 0.958384 0.189391
H60   H     H_    0.177341 0.173917 0.082709 0.188937
H61   H     H_    0.912079 0.448275 0.958402 0.189317
H62   H     H_    0.774760 0.698347 0.083080 0.125168
H63   H     H_    0.381972 0.787742 0.941504 0.144090
H64   H     H_    0.274875 0.198401 0.083085 0.125173
H65   H     H_    0.881992 0.287838 0.941516 0.144120
H66   H     H_    0.436694 0.877812 0.552344 0.139888
H67   H     H_    0.536607 0.913512 0.430968 0.160753
H68   H     H_    0.531671 0.916578 0.557057 0.137550
O1    O     O_R   0.787520 0.042810 0.170440 -0.546960
O2    O     O_R   0.454050 0.051210 0.669140 -0.509641
O3    O     O_R   0.045950 0.551210 0.330860 -0.523323
O4    O     O_R   0.954050 0.551210 0.669140 -0.509640
O5    O     O_R   0.681390 0.959480 0.325510 -0.509130
O6    O     O_R   0.318610 0.959480 0.674490 -0.508180
O7    O     O_R   0.181390 0.459480 0.325510 -0.509132
O8    O     O_R   0.818610 0.459480 0.674490 -0.508180
O9    O     O_3   0.667900 0.167900 0.250060 -0.275204
O10   O     O_3   0.332100 0.167900 0.749940 -0.257752
O11   O     O_3   0.167900 0.667900 0.250060 -0.275204
O12   O     O_R   0.212480 0.042810 0.829560 -0.522202
O13   O     O_3   0.832100 0.667900 0.749940 -0.257747
O14   O     O_R   0.765640 0.292100 0.175020 -0.502848
O15   O     O_R   0.234360 0.292100 0.824980 -0.472306
O16   O     O_R   0.265640 0.792100 0.175020 -0.502842
O17   O     O_R   0.734360 0.792100 0.824980 -0.472328
O18   O     O_R   0.670190 0.408840 0.168540 -0.506956
O19   O     O_R   0.329810 0.408840 0.831460 -0.530971
O20   O     O_R   0.170190 0.908840 0.168540 -0.506961
O21   O     O_R   0.829810 0.908840 0.831460 -0.530968
O22   O     O_R   0.556620 0.251410 0.175160 -0.531023
O23   O     O_R   0.287520 0.542810 0.170440 -0.546965
O24   O     O_R   0.443380 0.251410 0.824840 -0.524014
O25   O     O_R   0.056620 0.751410 0.175160 -0.531022
O26   O     O_R   0.943380 0.751410 0.824840 -0.524010
O27   O     O_R   0.545960 0.049620 0.170320 -0.445678
O28   O     O_R   0.454040 0.049620 0.829680 -0.456203
O29   O     O_R   0.045960 0.549620 0.170320 -0.445688
O30   O     O_R   0.954040 0.549620 0.829680 -0.456209
O31   O     O_R   0.681390 0.958010 0.176690 -0.460181
O32   O     O_R   0.318610 0.958010 0.823310 -0.501575
O33   O     O_R   0.181390 0.458010 0.176690 -0.460161
O34   O     O_R   0.712480 0.542810 0.829560 -0.522213
O35   O     O_R   0.818610 0.458010 0.823310 -0.501575
O36   O     O_R   0.787510 0.044390 0.330970 -0.518971
O37   O     O_R   0.212490 0.044390 0.669030 -0.524864
O38   O     O_R   0.287510 0.544390 0.330970 -0.518972
O39   O     O_R   0.712490 0.544390 0.669030 -0.524863
O40   O     O_R   0.765630 0.293570 0.323840 -0.502379
O41   O     O_R   0.234370 0.293570 0.676160 -0.503903
O42   O     O_R   0.265630 0.793570 0.323840 -0.502378
O43   O     O_R   0.734370 0.793570 0.676160 -0.503902
O44   O     O_R   0.670190 0.410420 0.329080 -0.514251
O45   O     O_R   0.556610 0.252880 0.323980 -0.512463
O46   O     O_R   0.329810 0.410420 0.670920 -0.525059
O47   O     O_R   0.170190 0.910420 0.329080 -0.514250
O48   O     O_R   0.829810 0.910420 0.670920 -0.525059
O49   O     O_R   0.443390 0.252880 0.676020 -0.513349
O50   O     O_R   0.056610 0.752880 0.323980 -0.512462
O51   O     O_R   0.943390 0.752880 0.676020 -0.513350
O52   O     O_R   0.545950 0.051210 0.330860 -0.523321

loop_
_geom_bond_atom_site_label_1
_geom_bond_atom_site_label_2
_ccdc_geom_bond_type
C3    C104  A    
C44   C49   A    
Cr10  O50   S    
C8    O52   A    
C106  H10   S    
C54   H49   S    
C87   C91   A    
C7    O48   A    
C35   C53   S    
C104  H8    S    
C20   C67   S    
Cr4   O4    S    
C74   C83   S    
C72   C76   A    
C112  C121  S    
Cr9   O49   S    
C85   H3    S    
C60   H61   S    
C1    C33   S    
C90   C95   A    
C110  C119  S    
C85   C86   S    
C18   C65   S    
C98   C124  A    
C112  H21   S    
C58   H60   S    
C100  C105  A    
C101  C123  A    
C65   O22   A    
C32   C36   A    
Cr7   O34   S    
C96   C118  S    
C28   C29   A    
C9    C69   S    
C41   C58   S    
C38   C42   A    
C83   H66   S    
C9    O49   A    
C95   C112  S    
Cr1   O14   S    
C115  O32   A    
C102  H7    S    
C27   Cl2   S    
C95   C99   A    
C120  H29   S    
C56   H62   S    
C20   C25   A    
C94   C98   A    
Cr6   O11   S    
C66   O24   A    
C94   C111  S    
C6    C88   S    
C14   O6    A    
Cr2   O10   S    
C81   H32   S    
C89   C94   A    
C16   O8    A    
Cr4   O30   S    
C4    O40   A    
Cr1   O9    S    
C110  H15   S    
C76   C85   S    
C86   H56   S    
C91   C96   A    
C88   C93   A    
C52   C56   S    
C40   C57   S    
C3    C16   S    
C7    C87   S    
C108  H13   S    
C82   H34   S    
C12   O36   A    
C18   C26   A    
Cr9   O10   S    
C45   H42   S    
Cr12  O27   S    
C10   O50   A    
C115  O12   A    
Cr4   O8    S    
C2    H37   S    
C102  C107  A    
Cr12  O52   S    
C111  H16   S    
C100  H5    S    
C118  H22   S    
C56   H58   S    
Cr9   O46   S    
C28   Cl3   S    
C93   C110  S    
C99   C121  S    
C14   O37   A    
C107  H11   S    
C117  O34   A    
Cr11  O13   S    
C114  H36   S    
C121  H30   S    
C40   C62   A    
C58   H64   S    
C18   C22   A    
C55   C60   S    
C57   H59   S    
C53   H54   S    
C5    C89   S    
Cr2   O2    S    
C89   C107  A    
C36   C41   A    
C49   H46   S    
C12   O5    A    
C31   C49   A    
Cr9   O24   S    
C102  C124  A    
C109  H18   S    
C109  C118  S    
C51   H48   S    
C4    C90   S    
C120  H25   S    
C85   H45   S    
C39   C61   A    
Cr6   O38   S    
C43   H40   S    
Cr5   O12   S    
C74   C75   A    
C30   C34   A    
Cr3   O7    S    
C34   C39   A    
C17   C27   A    
C55   H50   S    
Cr7   O39   S    
Cr8   O45   S    
C19   C68   S    
Cr3   O11   S    
C36   C54   S    
C76   C77   A    
C4    O44   A    
C15   O7    A    
Cr3   O33   S    
C78   H1    S    
C42   C60   S    
C53   C57   S    
C11   C72   S    
C25   C103  A    
Cr8   O9    S    
C48   O16   A    
C44   C62   A    
Cr6   O23   S    
Cr8   O22   S    
C46   C51   A    
C67   O29   A    
Cr12  O31   S    
C17   C21   A    
C64   C117  S    
Cr4   O13   S    
C13   C24   A    
C7    O43   A    
C1    O14   A    
C26   Cl1   S    
C11   O51   A    
C5    O46   A    
C97   C119  S    
C19   C23   A    
C111  H20   S    
C22   C81   A    
C80   H23   S    
C83   H68   S    
C121  H26   S    
C6    O42   A    
C5    O41   A    
C11   O4    A    
C88   C106  A    
C30   C47   A    
Cr4   O35   S    
C83   C84   S    
C87   C105  A    
C1    O18   A    
C84   H2    S    
C9    O2    A    
C54   H55   S    
Cr2   O32   S    
C30   C59   S    
C57   H63   S    
Cr11  O26   S    
C103  H35   S    
C26   C27   A    
C37   O19   A    
C101  H6    S    
Cr11  O21   S    
C39   C56   S    
C66   O28   A    
C32   C37   S    
Cr10  O20   S    
C109  H14   S    
C32   C50   A    
C68   O26   A    
Cr12  O5    S    
C63   C116  S    
C117  O35   A    
C80   C82   A    
C15   C124  S    
Cr10  O11   S    
C37   O15   A    
Cr6   O16   S    
C31   C48   S    
C116  O23   A    
Cr3   O3    S    
C31   C35   A    
C112  H17   S    
C69   C79   A    
C24   C81   A    
C41   C63   A    
Cr5   O41   S    
Cr1   O1    S    
Cr10  O47   S    
C19   C29   A    
C93   C97   A    
C50   H47   S    
C104  C108  A    
C105  H9    S    
C43   C61   A    
C38   C55   S    
C54   C58   S    
C16   O39   A    
C101  C106  A    
Cr8   O18   S    
C116  O33   A    
C67   O25   A    
Cr7   O13   S    
C15   O38   A    
C14   C123  S    
Cr7   O17   S    
C35   C40   A    
C60   H65   S    
C78   C79   A    
C65   O27   A    
Cr8   O44   S    
C52   H53   S    
C33   C38   A    
Cr7   O43   S    
C47   H44   S    
C46   H43   S    
C119  H24   S    
C77   C86   S    
C42   C64   A    
C10   O3    A    
C98   C120  S    
Cr1   O36   S    
Cr11  O51   S    
C92   H33   S    
C33   C51   A    
C20   C28   A    
C59   O17   A    
C34   C52   S    
Cr5   O10   S    
C96   C122  A    
C21   C70   A    
Cr5   O15   S    
C91   C109  S    
Cr11  O48   S    
C113  O1    A    
C62   C115  S    
Cr9   O19   S    
C68   O30   A    
C71   C75   A    
C2    C114  A    
C84   H67   S    
C55   H57   S    
C86   H4    S    
C45   C50   A    
Cr3   O29   S    
C48   O20   A    
C119  H28   S    
Cr2   O28   S    
C10   C73   S    
C73   C80   A    
C45   C63   A    
C24   H39   S    
Cr2   O6    S    
C100  C122  A    
C23   C25   A    
C70   H31   S    
C17   C66   S    
C75   C84   S    
C53   H52   S    
C2    C103  A    
C43   C47   A    
C118  H27   S    
C110  H19   S    
C61   C113  S    
C90   C108  A    
C3    C99   A    
Cr12  O9    S    
C113  O31   A    
C12   C122  S    
C73   C77   A    
C97   C123  A    
C13   C70   A    
C29   Cl4   S    
C46   C64   A    
Cr6   O42   S    
C23   C92   A    
C111  C120  S    
Cr10  O25   S    
C6    O47   A    
C69   C74   A    
C21   C22   A    
C92   C114  A    
C44   H41   S    
C52   H51   S    
C71   C78   A    
C72   C82   A    
C8    O45   A    
C13   H38   S    
Cr5   O37   S    
C79   H12   S    
C8    C71   S    
Cr1   O40   S    
C59   O21   A    
