data_mof_unit_258.cif
_audit_creation_date              2012-12-11T15:07:04-0500
_audit_creation_method            fapswitch 2.2
_symmetry_space_group_name_H-M    P1
_symmetry_Int_Tables_number       1
_space_group_crystal_system       triclinic
_cell_length_a                    19.594132
_cell_length_b                    11.433561
_cell_length_c                    18.703757
_cell_angle_alpha                 89.999989
_cell_angle_beta                  89.975202
_cell_angle_gamma                 90.0
_cell_volume                      4190.21544567

loop_
_atom_site_label
_atom_site_type_symbol
_atom_type_description
_atom_site_fract_x
_atom_site_fract_y
_atom_site_fract_z
_atom_type_partial_charge
Br1   Br    Br    0.610625 0.168568 0.597311 -0.563016
Br2   Br    Br    0.389375 0.168568 0.402689 -0.563016
Br3   Br    Br    0.110625 0.668568 0.597311 -0.563016
Br4   Br    Br    0.889375 0.668568 0.402689 -0.563016
C1    C     C_R   0.761169 0.525087 0.639661 0.532782
C2    C     C_3   0.254083 0.060952 0.563858 0.033755
C3    C     C_R   0.740386 0.034370 0.151724 0.541516
C4    C     C_R   0.773775 0.131781 0.858516 0.531272
C5    C     C_R   0.226225 0.131781 0.141484 0.531272
C6    C     C_R   0.273775 0.631781 0.858516 0.531272
C7    C     C_R   0.726225 0.631782 0.141483 0.531272
C8    C     C_R   0.967905 0.353904 0.854054 0.535641
C9    C     C_R   0.032094 0.353904 0.145946 0.535641
C10   C     C_R   0.467906 0.853904 0.854054 0.535641
C11   C     C_R   0.532095 0.853904 0.145946 0.535642
C12   C     C_3   0.685350 0.135160 0.463849 -0.200522
C13   C     C_3   0.245917 0.560951 0.436142 0.033755
C14   C     C_3   0.314650 0.135160 0.536151 -0.200523
C15   C     C_3   0.185350 0.635160 0.463849 -0.200523
C16   C     C_3   0.814650 0.635160 0.536151 -0.200523
C17   C     C_3   0.695645 0.161555 0.543575 0.023495
C18   C     C_3   0.304355 0.161555 0.456424 0.023495
C19   C     C_3   0.195645 0.661555 0.543575 0.023496
C20   C     C_3   0.804355 0.661555 0.456424 0.023495
C21   C     C_3   0.752712 0.946467 0.480801 -0.235044
C22   C     C_3   0.247288 0.946467 0.519199 -0.235044
C23   C     C_3   0.252712 0.446467 0.480801 -0.235044
C24   C     C_3   0.754083 0.560951 0.563858 0.033755
C25   C     C_3   0.747288 0.446467 0.519199 -0.235044
C26   C     C_3   0.758326 0.094101 0.574189 0.062122
C27   C     C_3   0.241674 0.094101 0.425811 0.062122
C28   C     C_3   0.258326 0.594101 0.574189 0.062122
C29   C     C_3   0.741674 0.594101 0.425811 0.062122
C30   C     C_3   0.745828 0.965098 0.561512 -0.264683
C31   C     C_3   0.254171 0.965098 0.438488 -0.264683
C32   C     C_3   0.245828 0.465098 0.561512 -0.264683
C33   C     C_R   0.238831 0.525087 0.360339 0.532782
C34   C     C_3   0.754171 0.465098 0.438488 -0.264683
C35   C     C_3   0.823095 0.131500 0.530414 -0.257057
C36   C     C_3   0.176905 0.131500 0.469586 -0.257057
C37   C     C_3   0.323095 0.631500 0.530414 -0.257057
C38   C     C_3   0.676905 0.631500 0.469586 -0.257057
C39   C     C_3   0.005007 0.200778 0.458859 -0.223796
C40   C     C_3   0.994993 0.200778 0.541141 -0.223796
C41   C     C_3   0.505007 0.700778 0.458859 -0.223796
C42   C     C_3   0.494993 0.700778 0.541141 -0.223796
C43   C     C_3   0.063849 0.400965 0.474064 -0.217079
C44   C     C_R   0.261168 0.025087 0.639661 0.532781
C45   C     C_3   0.936151 0.400965 0.525936 -0.217079
C46   C     C_3   0.563849 0.900965 0.474064 -0.217079
C47   C     C_3   0.436151 0.900965 0.525936 -0.217079
C48   C     C_3   0.940573 0.380057 0.445303 -0.263034
C49   C     C_3   0.059427 0.380057 0.554697 -0.263034
C50   C     C_3   0.440573 0.880057 0.445303 -0.263034
C51   C     C_3   0.559427 0.880057 0.554697 -0.263034
C52   C     C_3   0.010297 0.328465 0.430756 0.046032
C53   C     C_3   0.989703 0.328466 0.569243 0.046033
C54   C     C_3   0.510297 0.828465 0.430756 0.046032
C55   C     C_R   0.738831 0.025087 0.360339 0.532781
C56   C     C_3   0.489703 0.828465 0.569243 0.046033
C57   C     C_3   0.813112 0.001422 0.042454 -0.031558
C58   C     C_3   0.186888 0.001422 0.957546 -0.031558
C59   C     C_3   0.313112 0.501423 0.042454 -0.031558
C60   C     C_3   0.686888 0.501423 0.957546 -0.031558
C61   C     C_R   0.773728 0.121695 0.649571 0.554573
C62   C     C_R   0.226272 0.121695 0.350429 0.554573
C63   C     C_R   0.273728 0.621695 0.649571 0.554574
C64   C     C_R   0.726272 0.621695 0.350429 0.554574
C65   C     C_3   0.821196 0.028670 0.964383 -0.199334
C66   C     C_3   0.810156 0.133119 0.449281 -0.277972
C67   C     C_3   0.178804 0.028670 0.035617 -0.199334
C68   C     C_3   0.321196 0.528670 0.964383 -0.199334
C69   C     C_3   0.678804 0.528671 0.035616 -0.199334
C70   C     C_3   0.684714 0.031440 0.032730 -0.247217
C71   C     C_3   0.315285 0.031441 0.967270 -0.247217
C72   C     C_3   0.184715 0.531441 0.032730 -0.247216
C73   C     C_3   0.815285 0.531440 0.967270 -0.247217
C74   C     C_3   0.761512 0.197926 0.061371 -0.263688
C75   C     C_3   0.238488 0.197926 0.938629 -0.263688
C76   C     C_3   0.261512 0.697926 0.061371 -0.263688
C77   C     C_3   0.189844 0.133119 0.550719 -0.277973
C78   C     C_3   0.738488 0.697927 0.938628 -0.263688
C79   C     C_3   0.750481 0.067831 0.075145 0.057171
C80   C     C_3   0.249518 0.067831 0.924855 0.057171
C81   C     C_3   0.250481 0.567831 0.075145 0.057171
C82   C     C_3   0.749518 0.567831 0.924855 0.057171
C83   C     C_3   0.760421 0.102148 0.935694 0.036011
C84   C     C_3   0.239579 0.102148 0.064306 0.036011
C85   C     C_3   0.260421 0.602148 0.935694 0.036011
C86   C     C_3   0.739579 0.602149 0.064306 0.036010
C87   C     C_3   0.696402 0.029245 0.950354 -0.275421
C88   C     C_3   0.310156 0.633119 0.449281 -0.277973
C89   C     C_3   0.303598 0.029246 0.049645 -0.275421
C90   C     C_3   0.196402 0.529246 0.950355 -0.275421
C91   C     C_3   0.803598 0.529245 0.049645 -0.275421
C92   C     C_3   0.752045 0.216841 0.979961 -0.233888
C93   C     C_3   0.247954 0.216841 0.020039 -0.233888
C94   C     C_3   0.252045 0.716841 0.979961 -0.233888
C95   C     C_3   0.747955 0.716841 0.020039 -0.233889
C96   C     C_3   0.006182 0.481687 0.040049 -0.220996
C97   C     C_3   0.993818 0.481687 0.959951 -0.220996
C98   C     C_3   0.506182 0.981687 0.040049 -0.220996
C99   C     C_3   0.689844 0.633119 0.550719 -0.277973
C100  C     C_3   0.493818 0.981687 0.959951 -0.220997
C101  C     C_3   0.063685 0.279817 0.026004 -0.219214
C102  C     C_3   0.936315 0.279816 0.973995 -0.219213
C103  C     C_3   0.563685 0.779816 0.026005 -0.219213
C104  C     C_3   0.436315 0.779816 0.973995 -0.219214
C105  C     C_3   0.941091 0.302390 0.055331 -0.263807
C106  C     C_3   0.058909 0.302390 0.944669 -0.263808
C107  C     C_3   0.441091 0.802390 0.055331 -0.263808
C108  C     C_3   0.558909 0.802391 0.944669 -0.263807
C109  C     C_R   0.969312 0.341445 0.645303 0.534026
C110  C     C_3   0.745917 0.060951 0.436142 0.033755
C111  C     C_R   0.030688 0.341445 0.354697 0.534026
C112  C     C_R   0.469311 0.841445 0.645303 0.534026
C113  C     C_R   0.530688 0.841445 0.354697 0.534026
C114  C     C_3   0.011139 0.354598 0.069278 0.050293
C115  C     C_3   0.988861 0.354598 0.930722 0.050293
C116  C     C_3   0.511139 0.854598 0.069278 0.050294
C117  C     C_3   0.488861 0.854599 0.930722 0.050293
C118  C     C_R   0.759614 0.534370 0.848276 0.541515
C119  C     C_R   0.240386 0.534370 0.151724 0.541516
C120  C     C_R   0.259614 0.034370 0.848276 0.541515
Cr1   Cr    Cr6+3 0.885690 0.492860 0.745310 1.033590
Cr2   Cr    Cr6+3 0.111880 0.178590 0.246990 1.033534
Cr3   Cr    Cr6+3 0.388120 0.678590 0.753010 1.033534
Cr4   Cr    Cr6+3 0.611880 0.678590 0.246990 1.033534
Cr5   Cr    Cr6+3 0.114310 0.492860 0.254690 1.033590
Cr6   Cr    Cr6+3 0.385690 0.992860 0.745310 1.033590
Cr7   Cr    Cr6+3 0.614310 0.992860 0.254690 1.033590
Cr8   Cr    Cr6+3 0.729880 0.332270 0.748190 1.083347
Cr9   Cr    Cr6+3 0.270120 0.332270 0.251810 1.083347
Cr10  Cr    Cr6+3 0.229880 0.832270 0.748190 1.083347
Cr11  Cr    Cr6+3 0.770120 0.832270 0.251810 1.083347
Cr12  Cr    Cr6+3 0.888120 0.178590 0.753010 1.033534
H1    H     H_    0.637560 0.089631 0.455539 0.166613
H2    H     H_    0.193834 0.917355 0.527679 0.159756
H3    H     H_    0.535566 0.030232 0.932745 0.132409
H4    H     H_    0.614801 0.788860 0.046451 0.106828
H5    H     H_    0.385199 0.788862 0.953549 0.106828
H6    H     H_    0.114801 0.288863 0.046450 0.106827
H7    H     H_    0.885199 0.288862 0.953549 0.106828
H8    H     H_    0.599613 0.862215 0.926628 0.109612
H9    H     H_    0.400387 0.862215 0.073372 0.109612
H10   H     H_    0.099613 0.362215 0.926627 0.109612
H11   H     H_    0.900387 0.362214 0.073372 0.109612
H12   H     H_    0.935071 0.221977 0.086341 0.166648
H13   H     H_    0.306166 0.417354 0.472321 0.159756
H14   H     H_    0.064930 0.221977 0.913658 0.166648
H15   H     H_    0.435070 0.721978 0.086342 0.166648
H16   H     H_    0.564930 0.721978 0.913658 0.166647
H17   H     H_    0.950414 0.187331 0.964850 0.165340
H18   H     H_    0.049587 0.187332 0.035150 0.165340
H19   H     H_    0.450414 0.687331 0.964850 0.165340
H20   H     H_    0.549586 0.687331 0.035149 0.165340
H21   H     H_    0.717366 0.879239 0.462872 0.093789
H22   H     H_    0.282634 0.879240 0.537128 0.093789
H23   H     H_    0.217366 0.379239 0.462872 0.093789
H24   H     H_    0.693834 0.417354 0.527679 0.159755
H25   H     H_    0.782634 0.379239 0.537128 0.093789
H26   H     H_    0.694433 0.940156 0.580675 0.143064
H27   H     H_    0.305567 0.940156 0.419325 0.143064
H28   H     H_    0.194432 0.440156 0.580675 0.143064
H29   H     H_    0.805567 0.440156 0.419325 0.143064
H30   H     H_    0.854458 0.095147 0.420493 0.145707
H31   H     H_    0.145542 0.095148 0.579507 0.145707
H32   H     H_    0.354458 0.595147 0.420493 0.145708
H33   H     H_    0.645542 0.595147 0.579507 0.145707
H34   H     H_    0.802483 0.223712 0.429770 0.106086
H35   H     H_    0.783720 0.910510 0.590556 0.122570
H36   H     H_    0.197517 0.223713 0.570230 0.106086
H37   H     H_    0.302483 0.723712 0.429770 0.106086
H38   H     H_    0.697517 0.723712 0.570230 0.106086
H39   H     H_    0.842679 0.216429 0.548351 0.110805
H40   H     H_    0.157321 0.216429 0.451649 0.110805
H41   H     H_    0.342679 0.716429 0.548351 0.110805
H42   H     H_    0.657321 0.716429 0.451649 0.110804
H43   H     H_    0.216280 0.910510 0.409444 0.122570
H44   H     H_    0.283720 0.410510 0.590556 0.122570
H45   H     H_    0.716280 0.410510 0.409444 0.122570
H46   H     H_    0.048872 0.149500 0.443139 0.139221
H47   H     H_    0.951128 0.149500 0.556861 0.139222
H48   H     H_    0.548871 0.649499 0.443139 0.139221
H49   H     H_    0.362440 0.089631 0.544461 0.166613
H50   H     H_    0.451128 0.649500 0.556861 0.139221
H51   H     H_    0.961910 0.154601 0.433040 0.120280
H52   H     H_    0.038090 0.154601 0.566960 0.120280
H53   H     H_    0.461910 0.654601 0.433040 0.120280
H54   H     H_    0.538090 0.654601 0.566960 0.120280
H55   H     H_    0.615019 0.887758 0.453684 0.107384
H56   H     H_    0.384981 0.887758 0.546316 0.107384
H57   H     H_    0.115018 0.387758 0.453684 0.107384
H58   H     H_    0.884981 0.387758 0.546316 0.107384
H59   H     H_    0.600445 0.821344 0.573322 0.104828
H60   H     H_    0.137560 0.589631 0.455539 0.166613
H61   H     H_    0.399555 0.821345 0.426678 0.104828
H62   H     H_    0.100445 0.321344 0.573322 0.104828
H63   H     H_    0.899555 0.321344 0.426678 0.104828
H64   H     H_    0.934893 0.461496 0.415619 0.200208
H65   H     H_    0.065106 0.461496 0.584381 0.200208
H66   H     H_    0.434894 0.961496 0.415619 0.200209
H67   H     H_    0.565106 0.961496 0.584381 0.200209
H68   H     H_    0.949437 0.494124 0.534500 0.174762
H69   H     H_    0.050563 0.494124 0.465500 0.174762
H70   H     H_    0.449437 0.994124 0.534500 0.174762
H71   H     H_    0.862440 0.589631 0.544461 0.166612
H72   H     H_    0.550563 0.994124 0.465500 0.174762
H73   H     H_    0.799488 0.911651 0.046703 0.142233
H74   H     H_    0.200512 0.911652 0.953297 0.142233
H75   H     H_    0.299488 0.411652 0.046703 0.142233
H76   H     H_    0.700511 0.411652 0.953297 0.142233
H77   H     H_    0.681034 0.218021 0.433128 0.111807
H78   H     H_    0.318966 0.218021 0.566872 0.111808
H79   H     H_    0.181034 0.718021 0.433128 0.111808
H80   H     H_    0.818966 0.718021 0.566872 0.111807
H81   H     H_    0.868920 0.075881 0.956805 0.169139
H82   H     H_    0.862062 0.063071 0.540294 0.147347
H83   H     H_    0.131080 0.075880 0.043195 0.169139
H84   H     H_    0.368920 0.575881 0.956805 0.169139
H85   H     H_    0.631080 0.575882 0.043195 0.169138
H86   H     H_    0.826412 0.945361 0.933915 0.129320
H87   H     H_    0.173589 0.945360 0.066085 0.129319
H88   H     H_    0.326412 0.445361 0.933915 0.129320
H89   H     H_    0.673588 0.445362 0.066085 0.129321
H90   H     H_    0.663560 0.949356 0.052202 0.111312
H91   H     H_    0.336439 0.949356 0.947798 0.111312
H92   H     H_    0.163560 0.449356 0.052202 0.111312
H93   H     H_    0.137938 0.063071 0.459706 0.147346
H94   H     H_    0.836439 0.449356 0.947797 0.111311
H95   H     H_    0.704053 0.938505 0.931172 0.110864
H96   H     H_    0.295947 0.938506 0.068828 0.110864
H97   H     H_    0.204053 0.438505 0.931172 0.110864
H98   H     H_    0.795946 0.438505 0.068828 0.110864
H99   H     H_    0.723977 0.251401 0.091736 0.113955
H100  H     H_    0.276023 0.251401 0.908264 0.113955
H101  H     H_    0.223977 0.751401 0.091736 0.113955
H102  H     H_    0.776023 0.751401 0.908263 0.113955
H103  H     H_    0.813136 0.224089 0.078740 0.137425
H104  H     H_    0.362062 0.563071 0.540294 0.147347
H105  H     H_    0.186864 0.224090 0.921260 0.137425
H106  H     H_    0.313136 0.724090 0.078740 0.137425
H107  H     H_    0.686864 0.724090 0.921260 0.137425
H108  H     H_    0.782724 0.288428 0.959848 0.097417
H109  H     H_    0.217275 0.288428 0.040151 0.097417
H110  H     H_    0.282725 0.788428 0.959849 0.097416
H111  H     H_    0.717276 0.788429 0.040151 0.097416
H112  H     H_    0.697902 0.241716 0.972782 0.142143
H113  H     H_    0.302097 0.241717 0.027217 0.142143
H114  H     H_    0.197902 0.741716 0.972782 0.142143
H115  H     H_    0.637938 0.563071 0.459706 0.147347
H116  H     H_    0.802098 0.741716 0.027217 0.142143
H117  H     H_    0.646682 0.100503 0.044012 0.137514
H118  H     H_    0.353318 0.100503 0.955988 0.137514
H119  H     H_    0.146681 0.600503 0.044012 0.137514
H120  H     H_    0.853318 0.600502 0.955988 0.137514
H121  H     H_    0.710304 0.249681 0.548149 0.149800
H122  H     H_    0.289696 0.249681 0.451851 0.149800
H123  H     H_    0.210305 0.749681 0.548149 0.149799
H124  H     H_    0.789696 0.749681 0.451851 0.149799
H125  H     H_    0.651669 0.066688 0.921996 0.131434
H126  H     H_    0.806166 0.917354 0.472321 0.159756
H127  H     H_    0.348331 0.066689 0.078004 0.131434
H128  H     H_    0.151669 0.566688 0.921996 0.131434
H129  H     H_    0.848331 0.566688 0.078004 0.131434
H130  H     H_    0.051759 0.531876 0.051878 0.139730
H131  H     H_    0.948241 0.531875 0.948122 0.139731
H132  H     H_    0.551759 0.031876 0.051878 0.139730
H133  H     H_    0.448241 0.031875 0.948122 0.139731
H134  H     H_    0.964434 0.530232 0.067255 0.132409
H135  H     H_    0.035566 0.530232 0.932745 0.132409
H136  H     H_    0.464434 0.030232 0.067255 0.132409
I1    I     I_    0.913060 0.989769 0.092603 -0.423599
I2    I     I_    0.086940 0.989769 0.907397 -0.423599
I3    I     I_    0.413060 0.489769 0.092603 -0.423599
I4    I     I_    0.586940 0.489769 0.907397 -0.423599
O1    O     O_R   0.957210 0.449410 0.665480 -0.502072
O2    O     O_R   0.167480 0.095300 0.164000 -0.525931
O3    O     O_R   0.332520 0.595300 0.836000 -0.525931
O4    O     O_R   0.667480 0.595300 0.164000 -0.525931
O5    O     O_R   0.946380 0.253940 0.826940 -0.496277
O6    O     O_R   0.053620 0.253940 0.173060 -0.496277
O7    O     O_R   0.446380 0.753940 0.826940 -0.496277
O8    O     O_R   0.553620 0.753940 0.173060 -0.496277
O9    O     O_3   0.834560 0.334570 0.748840 -0.303046
O10   O     O_3   0.165440 0.334570 0.251160 -0.303046
O11   O     O_3   0.334560 0.834570 0.748840 -0.303046
O12   O     O_R   0.042790 0.449410 0.334520 -0.502071
O13   O     O_3   0.665440 0.834570 0.251160 -0.303046
O14   O     O_R   0.820730 0.541240 0.668250 -0.515978
O15   O     O_R   0.179270 0.541240 0.331750 -0.515978
O16   O     O_R   0.320730 0.041240 0.668250 -0.515978
O17   O     O_R   0.679270 0.041240 0.331750 -0.515978
O18   O     O_R   0.714240 0.455060 0.663710 -0.498871
O19   O     O_R   0.285760 0.455060 0.336290 -0.498871
O20   O     O_R   0.214240 0.955060 0.663710 -0.498871
O21   O     O_R   0.785760 0.955060 0.336290 -0.498871
O22   O     O_R   0.736780 0.204870 0.675910 -0.464466
O23   O     O_R   0.457210 0.949410 0.665480 -0.502071
O24   O     O_R   0.263220 0.204870 0.324090 -0.464466
O25   O     O_R   0.236780 0.704870 0.675910 -0.464466
O26   O     O_R   0.763220 0.704870 0.324090 -0.464466
O27   O     O_R   0.833070 0.087590 0.673490 -0.529355
O28   O     O_R   0.166930 0.087590 0.326510 -0.529355
O29   O     O_R   0.333070 0.587590 0.673490 -0.529355
O30   O     O_R   0.666930 0.587590 0.326510 -0.529356
O31   O     O_R   0.946890 0.246800 0.676300 -0.509544
O32   O     O_R   0.053110 0.246800 0.323700 -0.509544
O33   O     O_R   0.446890 0.746800 0.676300 -0.509544
O34   O     O_R   0.542790 0.949410 0.334520 -0.502071
O35   O     O_R   0.553110 0.746800 0.323700 -0.509544
O36   O     O_R   0.956650 0.457120 0.827980 -0.520278
O37   O     O_R   0.043350 0.457120 0.172020 -0.520278
O38   O     O_R   0.456650 0.957120 0.827980 -0.520278
O39   O     O_R   0.543350 0.957120 0.172020 -0.520278
O40   O     O_R   0.820220 0.548390 0.818890 -0.513891
O41   O     O_R   0.179780 0.548390 0.181110 -0.513891
O42   O     O_R   0.320220 0.048390 0.818890 -0.513891
O43   O     O_R   0.679780 0.048390 0.181110 -0.513891
O44   O     O_R   0.713680 0.462770 0.826210 -0.482961
O45   O     O_R   0.736260 0.212010 0.826560 -0.492911
O46   O     O_R   0.286320 0.462770 0.173790 -0.482961
O47   O     O_R   0.213680 0.962770 0.826210 -0.482961
O48   O     O_R   0.786320 0.962770 0.173790 -0.482961
O49   O     O_R   0.263740 0.212010 0.173440 -0.492911
O50   O     O_R   0.236260 0.712010 0.826560 -0.492911
O51   O     O_R   0.763740 0.712010 0.173440 -0.492911
O52   O     O_R   0.832520 0.095300 0.836000 -0.525931

loop_
_geom_bond_atom_site_label_1
_geom_bond_atom_site_label_2
_ccdc_geom_bond_type
C90   H128  S    
C101  C106  S    
C83   C87   S    
C72   H92   S    
C103  C108  S    
C103  C116  S    
C35   H82   S    
C111  O32   A    
C70   C79   S    
C71   H118  S    
C113  O35   A    
C47   H70   S    
C86   C91   S    
C87   H125  S    
C14   H78   S    
Cr2   O2    S    
C3    O43   A    
C34   H45   S    
C6    O50   A    
C75   H100  S    
C5    C84   S    
C93   H109  S    
C9    O6    A    
C68   H88   S    
C11   C116  S    
Cr7   O17   S    
C103  H4    S    
C72   H119  S    
C16   C20   S    
C100  H133  S    
C92   H108  S    
C72   C90   S    
C74   C92   S    
Br2   C18   S    
C84   C93   S    
C21   C30   S    
C43   C49   S    
C45   H68   S    
C10   C117  S    
C59   C81   S    
C73   H120  S    
C43   H57   S    
C105  C114  S    
Cr3   O33   S    
Cr1   O9    S    
Cr4   O30   S    
C43   H69   S    
Cr3   O11   S    
C26   C30   S    
Cr6   O11   S    
C93   H113  S    
C16   C24   S    
Cr11  O48   S    
C49   H65   S    
C15   C19   S    
C39   C40   S    
C88   H32   S    
C39   H51   S    
C40   C53   S    
C102  H17   S    
C51   H67   S    
C77   H31   S    
C42   H50   S    
C46   H55   S    
Cr11  O13   S    
C59   I3    S    
C38   H115  S    
C101  C114  S    
C7    O4    A    
C71   C89   S    
C26   C35   S    
C42   C56   S    
C75   C93   S    
C106  H14   S    
Cr9   O49   S    
C10   O7    A    
C20   H124  S    
C29   C34   S    
C104  C107  S    
C69   H85   S    
C71   H91   S    
C21   C110  S    
C21   H126  S    
C17   H121  S    
C104  H19   S    
C96   H130  S    
C38   H42   S    
C62   O24   A    
C81   C119  S    
C15   H79   S    
C99   H38   S    
C10   O38   A    
Cr10  O20   S    
C67   C84   S    
C22   C31   S    
Cr9   O10   S    
C60   H76   S    
C1    O18   A    
C72   C81   S    
C30   H35   S    
C41   H48   S    
Cr9   O46   S    
C37   H104  S    
C46   H72   S    
C34   H29   S    
C3    C79   S    
C118  O44   A    
C12   C17   S    
C119  O41   A    
C38   C99   S    
C9    C114  S    
Cr12  O27   S    
Cr8   O22   S    
C63   O25   A    
C29   C38   S    
C28   C32   S    
C64   O30   A    
C69   C86   S    
C75   C80   S    
C71   C80   S    
C23   H23   S    
C85   C90   S    
C45   C53   S    
C58   I2    S    
C11   O39   A    
C6    C85   S    
C25   C34   S    
C60   C69   S    
C22   H22   S    
C48   H64   S    
C6    O3    A    
C44   O20   A    
C112  O33   A    
C75   H105  S    
C15   H60   S    
C33   O19   A    
C2    C77   S    
C11   O8    A    
C105  H11   S    
Cr12  O9    S    
C25   H24   S    
C31   H43   S    
C68   H84   S    
Cr7   O13   S    
C13   C23   S    
C35   H39   S    
C101  H6    S    
C36   H40   S    
C53   C109  S    
C54   C113  S    
C87   H95   S    
C76   H101  S    
C8    C115  S    
Cr8   O9    S    
C58   H74   S    
C40   H47   S    
C28   C63   S    
C120  O47   A    
Cr10  O25   S    
Cr2   O10   S    
C56   C112  S    
Cr4   O8    S    
C95   H111  S    
Cr11  O26   S    
C86   C95   S    
C32   H28   S    
C63   O29   A    
C64   O26   A    
C14   C18   S    
C59   H75   S    
C30   H26   S    
C12   C110  S    
C106  C115  S    
Cr5   O37   S    
C14   H49   S    
C85   C94   S    
C108  C117  S    
C70   H90   S    
C2    C22   S    
C96   C97   S    
Cr9   O24   S    
C58   C67   S    
C26   C61   S    
Cr2   O28   S    
C99   H33   S    
C47   C56   S    
C16   H71   S    
Cr3   O3    S    
C36   H93   S    
C106  H10   S    
Cr4   O4    S    
C29   C64   S    
C43   C52   S    
C102  C105  S    
Cr6   O38   S    
C74   H103  S    
Cr7   O43   S    
C102  C115  S    
C78   C95   S    
Cr8   O44   S    
C32   H44   S    
C104  C117  S    
C1    O14   A    
C102  H7    S    
C96   H134  S    
C41   C42   S    
C61   O27   A    
C97   H135  S    
C62   O28   A    
C8    O36   A    
C50   H61   S    
C98   H136  S    
C65   H81   S    
C16   H80   S    
C24   C25   S    
C94   H110  S    
Cr11  O21   S    
Br4   C20   S    
C91   H129  S    
C45   H58   S    
C67   H83   S    
C27   C36   S    
C58   C80   S    
C84   C89   S    
C74   C79   S    
C112  O23   A    
C82   C118  S    
C108  H16   S    
C91   H98   S    
C65   C83   S    
C8    O5    A    
C51   C56   S    
Cr1   O40   S    
C60   C82   S    
C104  H5    S    
Cr8   O45   S    
C41   C54   S    
C46   C54   S    
C57   C79   S    
C94   H114  S    
C49   C53   S    
C78   C82   S    
C66   C110  S    
C70   C87   S    
Cr2   O32   S    
C76   C81   S    
C44   O16   A    
C61   O22   A    
C33   O15   A    
C45   C48   S    
Cr10  O11   S    
C57   H73   S    
Cr12  O5    S    
C89   H96   S    
C27   C31   S    
Cr12  O52   S    
C96   C114  S    
C109  O1    A    
C98   C116  S    
C37   H41   S    
C76   C94   S    
C3    O48   A    
C95   H116  S    
C22   H2    S    
C90   H97   S    
C23   C32   S    
C17   C26   S    
C20   C29   S    
C100  H3    S    
Cr6   O23   S    
C19   C28   S    
C4    C83   S    
C66   H30   S    
C66   H34   S    
C4    O45   A    
C24   C99   S    
Cr1   O1    S    
C55   C110  S    
Cr2   O6    S    
C52   C111  S    
C76   H106  S    
C31   H27   S    
C70   H117  S    
C59   C68   S    
Cr6   O16   S    
Cr10  O50   S    
C57   I1    S    
C92   H112  S    
Cr5   O41   S    
C27   C62   S    
C51   H59   S    
C119  O46   A    
Br1   C17   S    
Br3   C19   S    
C12   H1    S    
C7    C86   S    
C60   I4    S    
C73   H94   S    
C2    C44   S    
C49   H62   S    
Cr5   O10   S    
C107  H9    S    
Cr3   O29   S    
C65   H86   S    
C77   H36   S    
Cr3   O7    S    
Cr10  O47   S    
C109  O31   A    
C55   O21   A    
Cr6   O42   S    
C74   H99   S    
Cr7   O39   S    
C78   H107  S    
C111  O12   A    
C103  H20   S    
C101  H18   S    
C97   H131  S    
C19   H123  S    
C23   H13   S    
C98   H132  S    
C13   C88   S    
C42   H54   S    
Cr11  O51   S    
C2    C14   S    
Cr7   O34   S    
C67   H87   S    
C18   C27   S    
C97   C115  S    
C25   H25   S    
C100  C117  S    
C50   H66   S    
C73   C91   S    
C107  C116  S    
Cr4   O35   S    
C1    C24   S    
C55   O17   A    
C28   C37   S    
C83   C92   S    
C48   H63   S    
C13   C33   S    
Cr1   O36   S    
C98   C100  S    
C40   H52   S    
C41   H53   S    
Cr4   O13   S    
C5    O49   A    
C73   C82   S    
C21   H21   S    
C7    O51   A    
C105  H12   S    
C9    O37   A    
C50   C54   S    
C57   C65   S    
C113  O34   A    
C36   C77   S    
Cr5   O12   S    
Cr1   O14   S    
C107  H15   S    
C88   H37   S    
C80   C120  S    
C39   H46   S    
C118  O40   A    
C46   C51   S    
C47   C50   S    
C108  H8    S    
C120  O42   A    
C69   H89   S    
C68   C85   S    
Cr12  O31   S    
C18   H122  S    
C78   H102  S    
C13   C15   S    
C35   C66   S    
Cr8   O18   S    
Cr9   O19   S    
C12   H77   S    
C5    O2    A    
C4    O52   A    
C39   C52   S    
C37   C88   S    
Cr5   O15   S    
C47   H56   S    
C48   C52   S    
C89   H127  S    
