data_mof_unit_875.cif
_audit_creation_date              2012-12-11T14:44:33-0500
_audit_creation_method            fapswitch 2.2
_symmetry_space_group_name_H-M    P1
_symmetry_Int_Tables_number       1
_space_group_crystal_system       monoclinic
_cell_length_a                    19.989749
_cell_length_b                    7.228186
_cell_length_c                    19.571426
_cell_angle_alpha                 90.0
_cell_angle_beta                  98.532708
_cell_angle_gamma                 90.0
_cell_volume                      2796.56722508

loop_
_atom_site_label
_atom_site_type_symbol
_atom_type_description
_atom_site_fract_x
_atom_site_fract_y
_atom_site_fract_z
_atom_type_partial_charge
O1    O     O_R   0.673210 0.377390 0.686390 -0.535848
O2    O     O_R   0.326790 0.622610 0.313610 -0.535848
O3    O     O_R   0.826790 0.877390 0.813610 -0.535848
O4    O     O_R   0.173210 0.122610 0.186390 -0.535848
O5    O     O_R   0.810750 0.706450 0.681250 -0.540069
O6    O     O_R   0.189250 0.293550 0.318750 -0.540069
O7    O     O_R   0.689250 0.206450 0.818750 -0.540069
O8    O     O_R   0.310750 0.793550 0.181250 -0.540069
C1    C     C_R   0.831096 0.538535 0.665449 0.693269
C2    C     C_R   0.168904 0.461465 0.334551 0.693269
C3    C     C_R   0.668904 0.038535 0.834551 0.693269
C4    C     C_R   0.331096 0.961465 0.165449 0.693268
O9    O     O_R   0.672750 0.707060 0.678240 -0.533916
O10   O     O_R   0.327250 0.292940 0.321760 -0.533916
O11   O     O_R   0.827250 0.207060 0.821760 -0.533916
O12   O     O_R   0.172750 0.792940 0.178240 -0.533916
O13   O     O_R   0.687800 0.877990 0.810580 -0.537951
O14   O     O_R   0.312200 0.122010 0.189420 -0.537950
O15   O     O_R   0.812200 0.377990 0.689420 -0.537951
O16   O     O_R   0.187800 0.622010 0.310580 -0.537950
C5    C     C_R   0.647946 0.539478 0.661923 0.702749
C6    C     C_R   0.352054 0.460522 0.338077 0.702749
C7    C     C_R   0.852054 0.039478 0.838077 0.702749
C8    C     C_R   0.147946 0.960522 0.161923 0.702749
O17   O     O_3   0.755100 0.544060 0.793420 -0.374773
O18   O     O_3   0.244900 0.455940 0.206580 -0.374772
O19   O     O_3   0.744900 0.044060 0.706580 -0.374773
O20   O     O_3   0.255100 0.955940 0.293420 -0.374772
V1    V     V_3+5 0.749050 0.818670 0.741950 1.395754
V2    V     V_3+5 0.250950 0.181330 0.258050 1.395754
V3    V     V_3+5 0.750950 0.318670 0.758050 1.395754
V4    V     V_3+5 0.249050 0.681330 0.241950 1.395754
C9    C     C_R   0.085434 0.963149 0.110001 -0.062715
C10   C     C_R   0.914566 0.036851 0.889999 -0.062715
C11   C     C_R   0.414566 0.463149 0.389999 -0.062715
C12   C     C_R   0.585434 0.536851 0.610001 -0.062715
C13   C     C_R   0.028137 0.151426 0.933378 -0.161336
C14   C     C_R   0.971863 0.848574 0.066622 -0.161336
C15   C     C_R   0.471863 0.651426 0.566622 -0.161336
C16   C     C_R   0.528137 0.348574 0.433378 -0.161336
C17   C     C_R   0.971995 0.144199 0.880620 0.150621
C18   C     C_R   0.028005 0.855801 0.119380 0.150621
C19   C     C_R   0.528005 0.644199 0.619380 0.150621
C20   C     C_R   0.471995 0.355801 0.380620 0.150621
C21   C     C_R   0.915591 0.936100 0.951654 -0.263598
C22   C     C_R   0.084408 0.063900 0.048346 -0.263598
C23   C     C_R   0.584409 0.436100 0.548346 -0.263598
C24   C     C_R   0.415591 0.563900 0.451654 -0.263598
C25   C     C_R   0.971732 0.945417 0.004516 0.111390
C26   C     C_R   0.028268 0.054583 0.995484 0.111390
C27   C     C_R   0.528268 0.445417 0.495484 0.111390
C28   C     C_R   0.471732 0.554583 0.504516 0.111390
C29   C     C_R   0.571924 0.168854 0.886230 -0.199211
C30   C     C_R   0.428076 0.831146 0.113770 -0.199211
C31   C     C_R   0.928076 0.668854 0.613770 -0.199211
C32   C     C_R   0.071924 0.331145 0.386230 -0.199211
C33   C     C_R   0.620001 0.029288 0.884596 -0.082883
C34   C     C_R   0.379999 0.970712 0.115404 -0.082883
C35   C     C_R   0.879999 0.529288 0.615404 -0.082883
C36   C     C_R   0.120001 0.470712 0.384596 -0.082883
C37   C     C_R   0.620885 0.879838 0.930036 -0.203802
C38   C     C_R   0.379115 0.120162 0.069964 -0.203802
C39   C     C_R   0.879115 0.379838 0.569964 -0.203802
C40   C     C_R   0.120885 0.620162 0.430036 -0.203803
C41   C     C_R   0.574650 0.867829 0.977933 0.061002
C42   C     C_R   0.425350 0.132171 0.022067 0.061002
C43   C     C_R   0.925350 0.367829 0.522068 0.061002
C44   C     C_R   0.074650 0.632171 0.477933 0.061002
C45   C     C_R   0.524293 0.006664 0.977296 -0.035480
C46   C     C_R   0.475707 0.993336 0.022704 -0.035480
C47   C     C_R   0.975707 0.506664 0.522704 -0.035480
C48   C     C_R   0.024293 0.493336 0.477296 -0.035480
C49   C     C_R   0.523724 0.161072 0.932217 0.063397
C50   C     C_R   0.476276 0.838928 0.067783 0.063397
C51   C     C_R   0.976276 0.661072 0.567783 0.063397
C52   C     C_R   0.023724 0.338927 0.432217 0.063397
C53   C     C_R   0.577739 0.719258 0.025858 0.149242
C54   C     C_R   0.422260 0.280742 0.974142 0.149242
C55   C     C_R   0.922261 0.219258 0.474142 0.149242
C56   C     C_R   0.077740 0.780742 0.525858 0.149242
C57   C     C_R   0.525309 0.696923 0.066820 0.154883
C58   C     C_R   0.474691 0.303077 0.933180 0.154883
C59   C     C_R   0.974691 0.196923 0.433180 0.154883
C60   C     C_R   0.025309 0.803077 0.566820 0.154882
H1    H     H_    0.571061 0.279233 0.848849 0.133074
H2    H     H_    0.428939 0.720767 0.151151 0.133074
H3    H     H_    0.928939 0.779233 0.651151 0.133074
H4    H     H_    0.071061 0.220767 0.348849 0.133074
H5    H     H_    0.128256 0.145457 0.040793 0.120092
H6    H     H_    0.871744 0.854543 0.959207 0.120092
H7    H     H_    0.371744 0.645457 0.459207 0.120092
H8    H     H_    0.628256 0.354543 0.540793 0.120092
C61   C     C_3   0.025058 0.751415 0.185647 -0.765292
H9    H     H_    0.974110 0.691589 0.187125 0.199330
H10   H     H_    0.061902 0.635647 0.190776 0.219964
H11   H     H_    0.036763 0.846096 0.230537 0.193480
C62   C     C_3   0.974942 0.248585 0.814352 -0.765292
H12   H     H_    0.025890 0.308411 0.812875 0.199330
H13   H     H_    0.963237 0.153904 0.769463 0.193481
H14   H     H_    0.938098 0.364353 0.809224 0.219964
C63   C     C_3   0.474942 0.251415 0.314352 -0.765292
H15   H     H_    0.525890 0.191589 0.312875 0.199330
H16   H     H_    0.438098 0.135647 0.309224 0.219964
H17   H     H_    0.463237 0.346096 0.269463 0.193480
C64   C     C_3   0.525058 0.748585 0.685647 -0.765292
H18   H     H_    0.474110 0.808411 0.687125 0.199330
H19   H     H_    0.536763 0.653904 0.730537 0.193480
H20   H     H_    0.561902 0.864353 0.690776 0.219964
H21   H     H_    0.071862 0.233831 0.926135 0.117571
H22   H     H_    0.928138 0.766169 0.073865 0.117571
H23   H     H_    0.428138 0.733831 0.573865 0.117571
H24   H     H_    0.571862 0.266169 0.426135 0.117571
H25   H     H_    0.657941 0.772341 0.926974 0.138231
H26   H     H_    0.342059 0.227659 0.073026 0.138231
H27   H     H_    0.842059 0.272341 0.573026 0.138231
H28   H     H_    0.157941 0.727659 0.426974 0.138231
C65   C     C_3   0.638579 0.590558 0.035136 -0.791790
H29   H     H_    0.685983 0.671273 0.036305 0.198601
H30   H     H_    0.645522 0.516852 0.085297 0.219904
H31   H     H_    0.634137 0.488445 0.992332 0.213617
C66   C     C_3   0.361421 0.409441 0.964864 -0.791790
H32   H     H_    0.314017 0.328727 0.963695 0.198601
H33   H     H_    0.365863 0.511555 0.007667 0.213617
H34   H     H_    0.354478 0.483148 0.914703 0.219904
C67   C     C_3   0.861421 0.090558 0.464865 -0.791790
H35   H     H_    0.814017 0.171273 0.463695 0.198601
H36   H     H_    0.854478 0.016851 0.414703 0.219904
H37   H     H_    0.865863 0.988445 0.507668 0.213617
C68   C     C_3   0.138579 0.909441 0.535136 -0.791790
H38   H     H_    0.185983 0.828727 0.536305 0.198601
H39   H     H_    0.134137 0.011555 0.492333 0.213617
H40   H     H_    0.145522 0.983147 0.585297 0.219903
C69   C     C_3   0.520166 0.519502 0.107490 -0.780151
H41   H     H_    0.545529 0.400803 0.086273 0.223411
H42   H     H_    0.541649 0.541220 0.162524 0.204857
H43   H     H_    0.466832 0.473845 0.103881 0.204377
C70   C     C_3   0.479834 0.480498 0.892509 -0.780150
H44   H     H_    0.454470 0.599196 0.913727 0.223410
H45   H     H_    0.533168 0.526155 0.896119 0.204376
H46   H     H_    0.458350 0.458780 0.837476 0.204857
C71   C     C_3   0.979834 0.019501 0.392510 -0.780151
H47   H     H_    0.954471 0.900803 0.413727 0.223410
H48   H     H_    0.958350 0.041219 0.337476 0.204857
H49   H     H_    0.033168 0.973845 0.396119 0.204376
C72   C     C_3   0.020166 0.980498 0.607491 -0.780152
H50   H     H_    0.045530 0.099196 0.586274 0.223410
H51   H     H_    0.966832 0.026155 0.603881 0.204377
H52   H     H_    0.041649 0.958780 0.662524 0.204857

loop_
_geom_bond_atom_site_label_1
_geom_bond_atom_site_label_2
_ccdc_geom_bond_type
C34   C38   A    
C55   C59   A    
O1    C5    A    
C61   H9    S    
C32   C52   A    
C31   C35   A    
O19   V1    S    
C18   C61   S    
O13   V1    S    
C23   H8    S    
C64   H18   S    
O3    C7    A    
C56   C60   A    
O15   V3    S    
C62   H14   S    
C72   H50   S    
C16   H24   S    
C22   H5    S    
C60   C72   S    
O7    C3    A    
C6    C11   S    
C64   H19   S    
C63   H15   S    
C40   H28   S    
C9    C18   A    
C40   C44   A    
O9    V1    S    
C14   C18   A    
C58   C70   S    
C53   C65   S    
C65   H30   S    
C30   C34   A    
O4    C8    A    
C51   C60   A    
C32   H4    S    
O1    V3    S    
C12   C23   A    
O2    V4    S    
C19   C64   S    
C33   C37   A    
O3    V1    S    
C54   C66   S    
C61   H10   S    
C66   H34   S    
C62   H13   S    
C30   C50   A    
C71   H47   S    
C1    O15   A    
C2    O16   A    
O20   V2    S    
C24   H7    S    
C46   C50   A    
C69   H43   S    
C45   C49   A    
O14   V2    S    
C53   C57   A    
C14   H22   S    
C16   C20   A    
C13   H21   S    
C44   C48   A    
C68   H40   S    
C31   C51   A    
O11   C7    A    
C15   C28   A    
C55   C67   S    
O12   C8    A    
C13   C17   A    
C9    C22   A    
C10   C17   A    
O10   V2    S    
C11   C24   A    
C52   C59   A    
C72   H51   S    
C62   H12   S    
O5    V1    S    
C42   C54   A    
C70   H46   S    
C39   C43   A    
O7    V3    S    
C38   C42   A    
C27   C28   A    
O8    V4    S    
C41   C53   A    
C71   H49   S    
C30   H2    S    
C29   C33   A    
O18   V4    S    
C23   C27   A    
O11   V3    S    
C32   C36   A    
C1    C35   S    
C2    C36   S    
O5    C1    A    
C21   H6    S    
C67   H36   S    
C67   H37   S    
C69   H41   S    
C70   H45   S    
C54   C58   A    
C21   C25   A    
O8    C4    A    
C7    C10   S    
O9    C5    A    
C48   C52   A    
C10   C21   A    
C64   H20   S    
C57   C69   S    
C11   C20   A    
C66   H32   S    
O6    V2    S    
C61   H11   S    
C37   H25   S    
C67   H35   S    
C17   C62   S    
C65   H31   S    
O12   V4    S    
C50   C57   A    
C44   C56   A    
C49   C58   A    
C72   H52   S    
C14   C25   A    
C59   C71   S    
C68   H38   S    
O16   V4    S    
C3    O13   A    
C56   C68   S    
O17   V3    S    
C29   C49   A    
O6    C2    A    
C15   C19   A    
C20   C63   S    
C38   H26   S    
C63   H17   S    
C16   C27   A    
C70   H44   S    
C22   C26   A    
C35   C39   A    
C8    C9    S    
C36   C40   A    
O10   C6    A    
C71   H48   S    
C4    C34   S    
C47   C48   A    
C3    C33   S    
O2    C6    A    
C47   C51   A    
C13   C26   A    
C42   C46   A    
C39   H27   S    
C41   C45   A    
C15   H23   S    
C43   C47   A    
C31   H3    S    
C45   C46   A    
C66   H33   S    
C37   C41   A    
C24   C28   A    
C63   H16   S    
C25   C26   A    
C4    O14   A    
C69   H42   S    
C12   C19   A    
C29   H1    S    
C65   H29   S    
C5    C12   S    
C43   C55   A    
O4    V2    S    
C68   H39   S    
