data_mof_unit_2879.cif
_audit_creation_date              2012-12-11T19:09:48-0500
_audit_creation_method            fapswitch 2.2
_symmetry_space_group_name_H-M    P1
_symmetry_Int_Tables_number       1
_space_group_crystal_system       triclinic
_cell_length_a                    8.210157
_cell_length_b                    15.007399
_cell_length_c                    27.022236
_cell_angle_alpha                 98.286513
_cell_angle_beta                  92.649967
_cell_angle_gamma                 81.526268
_cell_volume                      3257.70293416

loop_
_atom_site_label
_atom_site_type_symbol
_atom_type_description
_atom_site_fract_x
_atom_site_fract_y
_atom_site_fract_z
_atom_type_partial_charge
Ba1   Ba    Ba6+2 0.860050 0.456430 0.522540 1.724849
Ba2   Ba    Ba6+2 0.329780 0.543490 0.477450 1.680255
C1    C     C_3   0.743279 0.116946 0.635704 -0.206720
C2    C     C_R   0.906045 0.590785 0.180613 0.577020
C3    C     C_2   0.752498 0.559993 0.273911 -0.093936
C4    C     C_3   0.249653 0.200653 0.651375 0.329305
C5    C     C_3   0.730684 0.588926 0.329131 -0.071250
C6    C     C_1   0.982465 0.485309 0.343318 0.030232
C7    C     C_2   0.024283 0.481511 0.295635 -0.097678
C8    C     C_2   0.901554 0.518266 0.257364 0.199997
C9    C     C_R   0.021216 0.507065 0.102792 -0.079390
C10   C     C_R   0.059310 0.429428 0.127262 -0.040142
C11   C     C_R   0.136059 0.348778 0.100204 -0.051216
C12   C     C_3   0.706980 0.212819 0.622447 0.380645
C13   C     C_R   0.943871 0.588066 0.129859 -0.027109
C14   C     C_2   0.842337 0.531069 0.361284 -0.282163
C15   C     C_2   0.349664 0.469916 0.638687 -0.291940
C16   C     C_3   0.238409 0.155502 0.698192 0.387180
C17   C     C_R   0.180066 0.418700 0.973217 0.020117
C18   C     C_R   0.054702 0.579008 0.975377 0.019710
C19   C     C_R   0.136145 0.497175 0.948793 0.054790
C20   C     C_R   0.264294 0.339743 0.945231 -0.099656
C21   C     C_R   0.301196 0.337424 0.895292 -0.050177
C22   C     C_R   0.256189 0.413547 0.870544 -0.047891
C23   C     C_3   0.493874 0.668737 0.630644 0.309298
C24   C     C_R   0.174364 0.493754 0.897184 -0.081304
C25   C     C_R   0.131304 0.570515 0.872241 -0.036468
C26   C     C_R   0.171237 0.566216 0.821279 0.596107
C27   C     C_R   0.291997 0.410481 0.819602 0.653000
C28   C     C_3   0.268130 0.260674 0.397233 0.369252
C29   C     C_2   0.439448 0.440155 0.725480 -0.095491
C30   C     C_3   0.459665 0.409891 0.670322 -0.064965
C31   C     C_1   0.208125 0.514467 0.656462 0.032470
C32   C     C_2   0.166319 0.517310 0.704052 -0.030313
C33   C     C_2   0.290425 0.481635 0.742270 0.221392
C34   C     C_3   0.468125 0.692360 0.686638 -0.288863
C35   C     C_R   0.139543 0.421591 0.024470 0.019829
C36   C     C_R   0.059953 0.503749 0.051232 0.051629
C37   C     C_R   0.018471 0.582665 0.027041 0.019273
C38   C     C_R   0.175204 0.344769 0.050195 -0.095154
C39   C     C_R   0.905818 0.665460 0.105783 -0.049944
C40   C     C_3   0.220796 0.172870 0.411379 0.249259
C41   C     C_R   0.012068 0.654590 0.948983 -0.096224
C42   C     C_R   0.049781 0.650325 0.898839 -0.047460
C43   C     C_R   0.941992 0.663013 0.055770 -0.097477
C44   C     C_R   0.349935 0.175280 0.534558 -0.020070
C45   C     C_3   0.034970 0.737470 0.346255 0.402085
C46   C     C_R   0.575449 0.209206 0.489127 0.028885
C47   C     C_R   0.761894 0.771573 0.488380 -0.301515
C48   C     C_R   0.851737 0.830800 0.470263 0.010891
C49   C     C_R   0.793290 0.924053 0.476078 -0.064436
C50   C     C_R   0.640991 0.958983 0.499591 0.012765
C51   C     C_R   0.556953 0.897550 0.520756 0.004781
C52   C     C_3   0.970454 0.738144 0.591001 0.312097
C53   C     C_R   0.570962 0.052804 0.503917 0.002739
C54   C     C_R   0.419831 0.082741 0.529510 -0.026123
C55   C     C_R   0.342710 0.020179 0.550104 -0.099528
C56   C     C_3   0.046623 0.761460 0.293890 -0.232280
C57   C     C_R   0.411273 0.930166 0.546669 0.007410
C58   C     C_R   0.643641 0.117657 0.482679 -0.093749
C59   C     C_R   0.433044 0.237998 0.516373 -0.295702
C60   C     C_R   0.620477 0.804325 0.515513 0.030686
C61   C     C_3   0.961339 0.840652 0.607057 0.382989
C62   C     C_3   0.686987 0.344901 0.371818 0.310556
C63   C     C_3   0.672785 0.326048 0.315054 -0.294159
C64   C     C_3   0.543899 0.781633 0.342664 0.197247
C65   C     C_3   0.465827 0.881220 0.347343 0.344481
C66   C     C_R   0.018664 0.433624 0.178161 0.601806
H1    H     H_    0.767967 0.213932 0.586833 0.076651
H2    H     H_    0.878196 0.096097 0.639033 0.179583
H3    H     H_    0.771116 0.271005 0.300326 0.186548
H4    H     H_    0.685214 0.388192 0.298644 0.047103
H5    H     H_    0.550613 0.305422 0.303522 0.129026
H6    H     H_    0.571891 0.228797 0.616553 -0.137375
H7    H     H_    0.693293 0.069024 0.605754 0.069179
H8    H     H_    0.380655 0.645169 0.612845 -0.006206
H9    H     H_    0.358976 0.745287 0.693867 0.156540
H10   H     H_    0.447920 0.631016 0.702651 0.034195
H11   H     H_    0.578410 0.718089 0.705434 0.178915
H12   H     H_    0.332094 0.130484 0.424355 -0.018932
H13   H     H_    0.684177 0.113365 0.671363 0.155838
H14   H     H_    0.359495 0.152581 0.718475 0.018244
H15   H     H_    0.125211 0.675738 0.349884 0.070079
H16   H     H_    0.908642 0.723010 0.351029 -0.082473
H17   H     H_    0.155762 0.795860 0.291183 0.142512
H18   H     H_    0.060188 0.698259 0.266743 0.085743
H19   H     H_    0.934336 0.807136 0.284181 0.177325
H20   H     H_    0.618255 0.764864 0.308303 0.070027
H21   H     H_    0.625593 0.773806 0.376341 -0.019414
H22   H     H_    0.415671 0.902775 0.385376 0.056858
H23   H     H_    0.133532 0.190131 0.442437 0.024035
H24   H     H_    0.268720 0.272634 0.662073 0.027814
H25   H     H_    0.364029 0.889843 0.319217 0.113250
H26   H     H_    0.148259 0.452873 0.284253 0.127961
H27   H     H_    0.166477 0.287636 0.117694 0.134875
H28   H     H_    0.536177 0.416359 0.751193 0.125416
H29   H     H_    0.366203 0.274894 0.876011 0.157132
H30   H     H_    0.305377 0.277941 0.960754 0.079910
H31   H     H_    0.232554 0.279413 0.032762 0.077454
H32   H     H_    0.657182 0.584973 0.248101 0.115383
H33   H     H_    0.847032 0.729117 0.125669 0.136831
H34   H     H_    0.845148 0.720124 0.584693 -0.012482
H35   H     H_    0.948085 0.718782 0.965774 0.076927
H36   H     H_    0.358941 0.162000 0.631734 -0.156519
H37   H     H_    0.014080 0.710530 0.880841 0.136141
H38   H     H_    0.042053 0.545140 0.715478 0.135421
H39   H     H_    0.908660 0.726220 0.040991 0.077626
H40   H     H_    0.373819 0.461812 0.599038 0.079095
H41   H     H_    0.381117 0.309128 0.520689 0.081829
H42   H     H_    0.228814 0.039841 0.569873 0.084907
H43   H     H_    0.751498 0.099237 0.460159 0.121371
H44   H     H_    0.808268 0.699624 0.484097 0.061938
H45   H     H_    0.040371 0.719578 0.555892 -0.031831
H46   H     H_    0.869813 0.967048 0.462385 0.087165
H47   H     H_    0.345874 0.886681 0.564471 0.090792
H48   H     H_    0.213213 0.084519 0.687075 0.042385
H49   H     H_    0.372485 0.243079 0.371394 0.071312
H50   H     H_    0.306793 0.302318 0.431860 -0.123048
H51   H     H_    0.075875 0.013903 0.410400 0.324420
H52   H     H_    0.849755 0.984422 0.724969 0.382974
H53   H     H_    0.599064 0.613137 0.624306 0.053165
H54   H     H_    0.735093 0.979032 0.272513 0.388594
H55   H     H_    0.821935 0.543079 0.401226 0.078321
H56   H     H_    0.907284 0.877868 0.576262 -0.120890
H57   H     H_    0.063987 0.239648 0.820872 0.354475
H58   H     H_    0.087991 0.857600 0.615124 0.018497
H59   H     H_    0.810677 0.362164 0.382881 0.020114
H60   H     H_    0.592362 0.403434 0.384526 0.050703
N1    N     N_R   0.943104 0.513965 0.204667 -0.424797
N2    N     N_R   0.250318 0.486465 0.795119 -0.425541
O1    O     O_2   0.906490 0.548660 0.619040 -0.464765
O2    O     O_2   0.192783 0.823770 0.471776 -0.489228
O3    O     O_3   0.070556 0.810607 0.381534 -0.530545
O4    O     O_3   0.138490 0.548590 0.558860 -0.494591
O5    O     O_3   0.572560 0.389970 0.472910 -0.505211
O6    O     O_2   0.345680 0.723560 0.528460 -0.472392
O7    O     O_3   0.526747 0.746194 0.611633 -0.588122
O8    O     O_2   0.399207 0.549323 0.324018 -0.500608
O9    O     O_3   0.420399 0.724767 0.339095 -0.615289
O10   O     O_2   0.048365 0.365194 0.198508 -0.576993
O11   O     O_2   0.359351 0.339275 0.796898 -0.545905
O12   O     O_3   0.664021 0.266789 0.391868 -0.583830
O13   O     O_2   0.840552 0.662343 0.203443 -0.609879
O14   O     O_2   0.137691 0.634055 0.800568 -0.575516
O15   O     O_3   0.686290 0.382320 0.585720 -0.499259
O16   O     O_2   0.792519 0.450237 0.676096 -0.455741
O17   O     O_3   0.049803 0.693635 0.629200 -0.608797
O18   O     O_3   0.766530 0.275181 0.660616 -0.498243
O19   O     O_2   0.844020 0.276410 0.471510 -0.448219
O20   O     O_3   0.101490 0.335510 0.560360 -0.464940
O21   O     O_2   0.010970 0.175506 0.527406 -0.512354
O22   O     O_2   0.224845 0.097156 0.314285 -0.207688
O23   O     O_3   0.106339 0.195709 0.621172 -0.583184
O24   O     O_2   0.954429 0.151010 0.350701 -0.239590
O25   O     O_3   0.118020 0.002642 0.375980 -0.470679
O26   O     O_2   0.667757 0.914701 0.646091 -0.327574
O27   O     O_2   0.836155 0.803756 0.692321 -0.257694
O28   O     O_3   0.925153 0.963330 0.696751 -0.505926
O29   O     O_2   0.550218 0.049972 0.355886 -0.257033
O30   O     O_2   0.772962 0.925208 0.364034 -0.319020
O31   O     O_3   0.646589 0.941900 0.275368 -0.496384
O32   O     O_2   0.049420 0.313758 0.734012 -0.279741
O33   O     O_2   0.929259 0.172743 0.731680 -0.269335
O34   O     O_2   0.283210 0.451320 0.380930 -0.485283
O35   O     O_3   0.153002 0.205159 0.799345 -0.491078
O36   O     O_3   0.051220 0.451340 0.441130 -0.482446
O37   O     O_3   0.503420 0.617610 0.414270 -0.452048
O38   O     O_3   0.134707 0.305757 0.372366 -0.602287
O39   O     O_3   0.617160 0.609950 0.527080 -0.491012
O40   O     O_3   0.088220 0.664410 0.439630 -0.501631
P1    P     P_3+3 0.071960 0.575810 0.612130 1.020003
P2    P     P_3+3 0.664360 0.290070 0.457280 1.020626
P3    P     P_3+3 0.144261 0.218583 0.561081 0.954347
P4    P     P_3+3 0.117760 0.424110 0.387870 1.010460
P5    P     P_3+3 0.050607 0.783048 0.441480 0.995285
P6    P     P_3+3 0.677403 0.384045 0.649844 1.032618
P7    P     P_3+3 0.530444 0.722592 0.546339 0.969152
P8    P     P_3+3 0.513236 0.616352 0.350020 0.953584
S1    S     S_3+6 0.126384 0.106428 0.360713 0.003689
S2    S     S_3+6 0.840485 0.879328 0.661666 -0.064240
S3    S     S_3+6 0.613800 0.952582 0.337021 -0.060387
S4    S     S_3+6 0.084583 0.214897 0.740527 -0.012711

loop_
_geom_bond_atom_site_label_1
_geom_bond_atom_site_label_2
_ccdc_geom_bond_type
C53   C54   A    
C40   H12   S    
C20   H30   S    
C12   O18   S    
O19   P2    D    
Ba1   O15   S    
C19   C24   A    
C59   H41   S    
C56   H19   S    
C2    O13   D    
C61   H56   S    
C51   C57   A    
C42   H37   S    
C60   P7    S    
O38   P4    S    
C10   C11   A    
C30   P6    S    
O1    P1    D    
C24   C25   A    
O18   P6    S    
H54   O31   S    
C11   H27   S    
O21   P3    D    
O35   S4    S    
C12   H6    S    
C17   C19   A    
C14   H55   S    
C22   C24   A    
C32   C33   S    
C35   C38   A    
C34   H9    S    
C64   H20   S    
C36   C37   A    
C6    P4    S    
C55   C57   A    
C52   C61   S    
C16   S4    S    
C29   H28   S    
C52   H45   S    
O23   P3    S    
C63   H5    S    
C54   C55   A    
Ba1   Ba2   S    
O28   S2    S    
C22   C27   A    
C11   C38   A    
C17   C35   A    
C46   P2    S    
C9    C13   A    
C25   C42   A    
C64   O9    S    
C29   C30   S    
O17   P1    S    
C6    C7    D    
C62   H60   S    
O16   P6    D    
C1    H13   S    
C21   C22   A    
O15   P6    S    
O34   P4    D    
C26   O14   D    
C45   H15   S    
C1    H7    S    
C7    C8    S    
Ba2   O36   S    
C39   H33   S    
C50   C53   A    
C37   C43   A    
C53   C58   A    
C64   C65   S    
C6    C14   D    
O24   S1    D    
C45   O3    S    
O33   S4    D    
H52   O28   S    
C23   O7    S    
C15   C31   D    
C38   H31   S    
C56   H18   S    
O39   P7    S    
O25   S1    S    
C46   C58   A    
C64   H21   S    
O40   P5    S    
C4    C16   S    
O36   P4    S    
C49   H46   S    
C44   C59   A    
C49   C50   A    
C32   H38   S    
C1    H2    S    
C13   C39   A    
C15   H40   S    
C16   H48   S    
C3    C5    S    
C18   C37   A    
C28   H50   S    
C65   H25   S    
C63   H3    S    
O6    P7    D    
Ba1   P1    S    
C65   H22   S    
Ba2   O6    S    
C61   S2    S    
C5    P8    S    
C48   P5    S    
O27   S2    D    
C9    C36   A    
H57   O35   S    
C41   C42   A    
C35   C36   A    
C10   C66   A    
C51   C60   A    
C27   N2    Am   
C3    H32   S    
C40   S1    S    
C62   H59   S    
C27   O11   D    
C17   C20   A    
C48   C49   A    
C44   P3    S    
Ba1   O20   S    
Ba2   O4    S    
C45   H16   S    
O29   S3    D    
Ba1   O19   S    
O3    P5    S    
C33   N2    S    
C1    C12   S    
Ba2   O40   S    
C47   H44   S    
C5    C14   S    
C21   H29   S    
C4    H36   S    
O4    P1    S    
C12   H1    S    
C29   C33   D    
C66   O10   D    
Ba2   O34   S    
Ba1   O4    S    
O8    P8    D    
C56   H17   S    
O30   S3    D    
C18   C41   A    
C50   C51   A    
O12   P2    S    
H51   O25   S    
C47   C60   A    
C65   S3    S    
C23   C34   S    
C52   H34   S    
O5    P2    S    
Ba1   O1    S    
C34   H11   S    
C9    C10   A    
C55   H42   S    
O32   S4    D    
C2    N1    Am   
C28   H49   S    
C63   H4    S    
Ba1   P2    S    
Ba2   O5    S    
C23   H8    S    
C62   C63   S    
C2    C13   A    
C8    N1    S    
C28   O38   S    
C3    C8    D    
C58   H43   S    
C34   H10   S    
Ba2   P4    S    
C45   C56   S    
O26   S2    D    
C46   C59   A    
C62   O12   S    
Ba1   O36   S    
O22   S1    D    
C4    H24   S    
C7    H26   S    
Ba1   O39   S    
C16   H14   S    
C31   C32   D    
C26   N2    Am   
O31   S3    S    
C66   N1    Am   
C41   H35   S    
C4    O23   S    
Ba2   O39   S    
C43   H39   S    
C61   H58   S    
O37   P8    S    
O7    P7    S    
C18   C19   A    
C57   H47   S    
C47   C48   A    
O20   P3    S    
C44   C54   A    
C25   C26   A    
O9    P8    S    
C15   C30   S    
C39   C43   A    
C20   C21   A    
C28   C40   S    
Ba1   O5    S    
C23   H53   S    
Ba2   O37   S    
O2    P5    D    
C40   H23   S    
C52   O17   S    
C31   P1    S    
