data_mof_unit_2932.cif
_audit_creation_date              2013-03-05T16:46:53-0500
_audit_creation_method            fapswitch 2.2
_symmetry_space_group_name_H-M    P1
_symmetry_Int_Tables_number       1
_space_group_crystal_system       triclinic
_cell_length_a                    18.207036
_cell_length_b                    18.259444
_cell_length_c                    18.367829
_cell_angle_alpha                 120.019696
_cell_angle_beta                  89.98935
_cell_angle_gamma                 120.01556
_cell_volume                      4315.97044242

loop_
_atom_site_label
_atom_site_type_symbol
_atom_site_description
_atom_site_fract_x
_atom_site_fract_y
_atom_site_fract_z
_atom_type_partial_charge
Zn1   Zn    Zn3+2 0.456040 0.586770 0.543190 0.960731
Zn2   Zn    Zn3+2 0.456820 0.413240 0.543960 0.982336
Zn3   Zn    Zn3+2 0.631110 0.586750 0.543190 0.992198
Zn4   Zn    Zn3+2 0.456040 0.413240 0.369660 0.975625
O1    O     O_3   0.500000 0.500000 0.500000 -0.480178
O2    O     O_R   0.383400 0.268380 0.323710 -0.639580
O3    O     O_R   0.555060 0.731630 0.615290 -0.644127
O4    O     O_R   0.383950 0.439280 0.616600 -0.642316
O5    O     O_R   0.677590 0.560710 0.444390 -0.639331
O6    O     O_R   0.556370 0.439260 0.616600 -0.649974
O7    O     O_R   0.382640 0.439290 0.322940 -0.654638
O8    O     O_R   0.678360 0.560700 0.616060 -0.632327
O9    O     O_R   0.382640 0.560750 0.444390 -0.643778
O10   O     O_R   0.383400 0.560740 0.616060 -0.633774
O11   O     O_R   0.555060 0.439270 0.322940 -0.642895
O12   O     O_R   0.383950 0.268380 0.445700 -0.640839
O13   O     O_R   0.677590 0.731610 0.615290 -0.643152
C1    C     C_R   0.358629 0.220037 0.361091 0.809685
C2    C     C_R   0.641024 0.781025 0.639343 0.732613
C3    C     C_R   0.359878 0.501131 0.641330 0.792090
C4    C     C_R   0.640792 0.500260 0.359531 0.806719
C5    C     C_R   0.641887 0.500941 0.640830 0.817661
C6    C     C_R   0.358213 0.500244 0.359258 0.737661
C7    C     C_3   0.281554 0.422930 0.201150 -0.380690
H1    H     H_    0.247185 0.343169 0.183911 0.174245
H2    H     H_    0.346041 0.444470 0.187064 0.185412
C8    C     C_3   0.222090 0.423013 0.141875 -0.382329
H3    H     H_    0.258368 0.445174 0.099879 0.198999
H4    H     H_    0.159601 0.343240 0.096140 0.171689
H5    H     H_    0.173926 0.389013 0.303436 0.153758
H6    H     H_    0.084879 0.388416 0.214622 0.155791
C9    C     C_3   0.208972 0.467608 0.317961 -0.393614
C10   C     C_3   0.347360 0.609783 0.322144 -0.400549
C11   C     C_3   0.300377 0.500208 0.301497 0.199736
H7    H     H_    0.361329 0.667069 0.393512 0.176409
H8    H     H_    0.413126 0.634724 0.310508 0.161424
C12   C     C_3   0.198205 0.499967 0.199970 0.188002
C13   C     C_3   0.148819 0.467250 0.258129 -0.392923
C14   C     C_3   0.287250 0.609670 0.262462 -0.387238
H9    H     H_    0.324080 0.634663 0.222125 0.176551
H10   H     H_    0.272635 0.666903 0.305468 0.180230
H11   H     H_    0.220106 0.522038 0.389220 0.178679
H12   H     H_    0.131081 0.521312 0.300903 0.186150
C15   C     C_3   0.667924 0.940347 0.659410 -0.401169
H13   H     H_    0.596284 0.910605 0.653308 0.178496
H14   H     H_    0.672618 0.913266 0.591352 0.152989
C16   C     C_3   0.726826 0.060392 0.720692 -0.393726
H15   H     H_    0.759431 0.091339 0.682126 0.154808
H16   H     H_    0.683117 0.087027 0.744215 0.191479
H17   H     H_    0.621103 0.907559 0.789691 0.169162
H18   H     H_    0.707953 0.084995 0.879653 0.172868
C17   C     C_3   0.692245 0.937785 0.792908 -0.389908
C18   C     C_3   0.798805 0.941943 0.705340 -0.390414
C19   C     C_3   0.698742 0.897535 0.697789 0.202535
H19   H     H_    0.823271 0.913556 0.733328 0.190978
H20   H     H_    0.805840 0.914831 0.638076 0.172680
C20   C     C_3   0.799318 0.102375 0.802078 0.199909
C21   C     C_3   0.751064 0.057861 0.853986 -0.400182
C22   C     C_3   0.857512 0.061274 0.766213 -0.384890
H21   H     H_    0.892347 0.091510 0.727954 0.167704
H22   H     H_    0.910218 0.089058 0.822656 0.177974
H23   H     H_    0.714814 0.908865 0.822223 0.156782
H24   H     H_    0.801697 0.086498 0.912653 0.155160
C23   C     C_3   0.677338 0.389391 0.239141 0.189705
H25   H     H_    0.606816 0.336739 0.192793 0.112947
C24   C     C_3   0.739501 0.390704 0.181324 -0.460779
H26   H     H_    0.782455 0.368714 0.194206 0.197203
H27   H     H_    0.697268 0.331950 0.109567 0.159060
H28   H     H_    0.607876 0.475787 0.200698 0.189436
H29   H     H_    0.695263 0.473554 0.111580 0.185181
C25   C     C_3   0.680027 0.530618 0.243103 -0.475742
C26   C     C_3   0.799944 0.580951 0.360317 -0.308367
C27   C     C_3   0.698607 0.499953 0.302352 0.037314
H30   H     H_    0.815131 0.660003 0.401687 0.180186
H31   H     H_    0.817434 0.566817 0.407672 0.255378
C28   C     C_3   0.799883 0.499824 0.200660 0.121609
C29   C     C_3   0.739238 0.529733 0.182753 -0.397623
C30   C     C_3   0.859030 0.578879 0.300881 -0.342188
H32   H     H_    0.901743 0.557776 0.316153 0.212049
H33   H     H_    0.904823 0.657966 0.316732 0.184220
H34   H     H_    0.694419 0.609173 0.285674 0.177768
H35   H     H_    0.781688 0.607663 0.195764 0.167107
H36   H     H_    0.271198 0.220129 0.683927 0.146239
C31   C     C_R   0.329748 0.160127 0.589061 -0.147550
H37   H     H_    0.377427 0.174264 0.638059 0.135387
C32   C     C_R   0.328586 0.116044 0.500253 0.157280
C33   C     C_R   0.265831 0.099179 0.437708 0.126783
C34   C     C_R   0.206246 0.126467 0.465359 -0.165804
H38   H     H_    0.157945 0.113764 0.418167 0.121482
C35   C     C_R   0.208300 0.169856 0.553730 -0.130349
H39   H     H_    0.162101 0.190632 0.574344 0.130540
C36   C     C_R   0.269785 0.186469 0.615427 -0.123846
C37   C     C_R   0.207740 0.943829 0.286849 -0.245772
H40   H     H_    0.173685 0.900792 0.314656 0.172331
C38   C     C_R   0.198393 0.892251 0.196334 -0.055307
C39   C     C_R   0.243006 0.949094 0.160658 -0.015682
C40   C     C_R   0.293374 0.056131 0.216127 -0.231149
H41   H     H_    0.327794 0.099357 0.188554 0.179654
C41   C     C_R   0.302272 0.107677 0.306471 -0.064986
C42   C     C_R   0.259554 0.050851 0.342644 -0.021584
C43   C     C_R   0.291987 0.859543 0.039291 -0.093806
H42   H     H_    0.329351 0.859319 0.084971 0.122909
C44   C     C_R   0.294598 0.819082 0.952302 -0.124677
H43   H     H_    0.333569 0.787548 0.931033 0.142399
C45   C     C_R   0.247163 0.819628 0.892903 -0.125230
H44   H     H_    0.249200 0.788339 0.825594 0.144465
C46   C     C_R   0.197090 0.860685 0.920404 -0.126509
H45   H     H_    0.160403 0.861044 0.874354 0.139556
C47   C     C_R   0.194943 0.902054 0.007567 -0.141791
H46   H     H_    0.156697 0.934671 0.028539 0.122719
C48   C     C_R   0.242137 0.901327 0.067376 0.147774
H47   H     H_    0.974815 0.921882 0.743005 0.162868
C49   C     C_R   0.928419 0.761643 0.675153 0.368192
C50   C     C_R   0.879273 0.673330 0.675941 -0.183356
H48   H     H_    0.872486 0.602802 0.626066 0.177686
C51   C     C_R   0.838345 0.675411 0.741077 0.090227
C52   C     C_R   0.847559 0.766516 0.806595 -0.144277
H49   H     H_    0.817163 0.769331 0.857793 0.131814
C53   C     C_R   0.896964 0.854745 0.806841 -0.228838
H50   H     H_    0.904215 0.925140 0.857786 0.143629
C54   C     C_R   0.937001 0.852488 0.741488 -0.212556
C55   C     C_R   0.839542 0.580406 0.797646 -0.247090
H51   H     H_    0.910123 0.643938 0.834394 0.175566
C56   C     C_R   0.799039 0.497316 0.805069 -0.052218
C57   C     C_R   0.706737 0.415252 0.757873 -0.015328
C58   C     C_R   0.657793 0.418688 0.703867 -0.247000
H52   H     H_    0.587191 0.355247 0.667056 0.167253
C59   C     C_R   0.698283 0.502038 0.696823 -0.044120
C60   C     C_R   0.790423 0.583898 0.743916 0.006963
C61   C     C_R   0.636331 0.227735 0.688997 -0.170182
H53   H     H_    0.658278 0.220831 0.632462 0.129700
C62   C     C_R   0.585332 0.139865 0.689304 -0.164275
H54   H     H_    0.568778 0.065864 0.633705 0.131951
C63   C     C_R   0.555932 0.147463 0.761494 -0.124469
H55   H     H_    0.516885 0.079417 0.761777 0.119223
C64   C     C_R   0.576691 0.242800 0.833125 -0.122356
H56   H     H_    0.553475 0.248505 0.888770 0.123548
C65   C     C_R   0.626787 0.330640 0.832614 -0.078235
H57   H     H_    0.641433 0.403847 0.887815 0.120580
C66   C     C_R   0.658050 0.323878 0.761075 0.146662
H58   H     H_    0.364800 0.833043 0.636330 0.118202
C67   C     C_R   0.403823 0.807905 0.727814 -0.135417
H59   H     H_    0.467599 0.883356 0.766431 0.115452
C68   C     C_R   0.379599 0.738758 0.751140 -0.122904
H60   H     H_    0.425192 0.761156 0.807765 0.120214
C69   C     C_R   0.297098 0.640566 0.700793 0.141351
C70   C     C_R   0.238744 0.612849 0.627711 -0.146431
H61   H     H_    0.174938 0.537387 0.588346 0.125567
C71   C     C_R   0.263296 0.682198 0.604550 -0.117885
H62   H     H_    0.218466 0.660385 0.547779 0.136327
C72   C     C_R   0.345817 0.779555 0.654456 -0.106673
C73   C     C_R   0.216303 0.560709 0.774862 -0.275666
H63   H     H_    0.190936 0.607703 0.792553 0.176446
C74   C     C_R   0.193330 0.496536 0.803579 -0.018764
C75   C     C_R   0.225586 0.433902 0.778556 0.069235
C76   C     C_R   0.280817 0.438593 0.726735 -0.227406
H64   H     H_    0.305388 0.390737 0.708247 0.169966
C77   C     C_R   0.304228 0.503265 0.698493 -0.054195
C78   C     C_R   0.272483 0.566419 0.724044 -0.008195
C79   C     C_R   0.257071 0.385640 0.877025 0.354459
C80   C     C_R   0.230917 0.309019 0.892175 -0.222302
H65   H     H_    0.271647 0.326254 0.948852 0.165764
C81   C     C_R   0.151688 0.209715 0.835109 -0.166408
H66   H     H_    0.132414 0.151755 0.847769 0.143600
C82   C     C_R   0.097401 0.184938 0.761749 -0.111715
H67   H     H_    0.036446 0.107622 0.717248 0.140117
C83   C     C_R   0.121910 0.259466 0.745314 -0.206017
H68   H     H_    0.079142 0.238807 0.687757 0.126572
C84   C     C_R   0.201348 0.359850 0.802083 0.020294
Zn5   Zn    Zn3+2 0.041710 0.413240 0.959030 0.974808
Zn6   Zn    Zn3+2 0.866640 0.413270 0.959030 0.959464
Zn7   Zn    Zn3+2 0.040930 0.586780 0.958260 0.977106
Zn8   Zn    Zn3+2 0.041710 0.586770 0.132560 0.960950
O14   O     O_3   0.997750 0.500010 0.002220 -0.476922
O15   O     O_R   0.942690 0.560750 0.179280 -0.649097
O16   O     O_R   0.114340 0.439270 0.886160 -0.633856
O17   O     O_R   0.820160 0.268410 0.886930 -0.637959
O18   O     O_R   0.113800 0.731630 0.056520 -0.634602
O19   O     O_R   0.819390 0.439310 0.886160 -0.643053
O20   O     O_R   0.115110 0.560720 0.179280 -0.645315
O21   O     O_R   0.941380 0.560750 0.885620 -0.647977
O22   O     O_R   0.115110 0.439270 0.057830 -0.642874
O23   O     O_R   0.942690 0.268390 0.886930 -0.646806
O24   O     O_R   0.114340 0.731630 0.178520 -0.648841
O25   O     O_R   0.820160 0.439310 0.057830 -0.647844
O26   O     O_R   0.113800 0.560730 0.885620 -0.644508
C85   C     C_R   0.857121 0.499982 0.142911 0.768330
C86   C     C_R   0.137789 0.498797 0.860824 0.816964
C87   C     C_R   0.856796 0.218956 0.861694 0.734939
C88   C     C_R   0.139916 0.779927 0.141214 0.790125
C89   C     C_R   0.855759 0.498858 0.861244 0.796598
C90   C     C_R   0.139964 0.500050 0.142788 0.754506
N1    N     N_R   0.683255 0.347692 0.287917 0.200320
O27   O     O_R   0.760457 0.385297 0.337882 -0.401631
O28   O     O_R   0.610681 0.268472 0.277861 -0.408009
C91   C     C_3   0.395256 0.089335 0.475047 -0.435362
C92   C     C_3   0.367585 0.991836 0.469396 -0.341434
C93   C     C_3   0.430600 0.959793 0.437681 -0.874604
H69   H     H_    0.426814 0.939518 0.369160 0.268973
H70   H     H_    0.501034 0.023803 0.483255 0.259948
H71   H     H_    0.410474 0.890915 0.436747 0.241496
H72   H     H_    0.369169 0.006597 0.536094 0.225658
H73   H     H_    0.297903 0.926861 0.421957 0.230875
H74   H     H_    0.401140 0.077028 0.410313 0.221419
H75   H     H_    0.463152 0.155654 0.525857 0.200256
N2    N     N_R   0.969828 0.759333 0.607970 0.190509
O29   O     O_R   0.010158 0.838597 0.603571 -0.425362
O30   O     O_R   0.968072 0.678191 0.550863 -0.418415
N3    N     N_R   0.339229 0.487479 0.937808 0.189938
O31   O     O_R   0.400406 0.500895 0.989413 -0.425120
O32   O     O_R   0.350834 0.568632 0.947620 -0.412063

loop_
_geom_bond_atom_site_label_1
_geom_bond_atom_site_label_2
_geom_bond_distance
_ccdc_geom_bond_type
C24   H27   1.113377 S    
C33   C34   1.403744 A    
C82   H67   1.082143 S    
C4    C27   1.486847 S    
Zn5   O23   1.930041 S    
C8    H4    1.113481 S    
C18   H19   1.108642 S    
C38   C39   1.415394 A    
C7    C8    1.536650 S    
C25   C29   1.546065 S    
C61   C66   1.403959 A    
C59   C60   1.412391 A    
C52   C53   1.395498 A    
C40   H41   1.084992 S    
C18   C22   1.540450 S    
C79   C84   1.421198 A    
C71   H62   1.082441 S    
C83   C84   1.405252 A    
Zn5   O16   1.942457 S    
Zn8   O14   1.954241 S    
O6    C5    1.278708 A    
H36   C36   1.082541 S    
C45   C46   1.397509 A    
C37   H40   1.084825 S    
O4    C3    1.286739 A    
Zn1   O1    1.947049 S    
C28   C30   1.555227 S    
C76   H64   1.083122 S    
C70   C71   1.398880 A    
C31   C32   1.406556 A    
C69   C70   1.403451 A    
C47   C48   1.404172 A    
C23   N1    1.469226 S    
C39   C48   1.479058 S    
O18   C88   1.277452 A    
Zn6   O17   1.929322 S    
N2    O30   1.301553 A    
C20   C22   1.555759 S    
O8    C5    1.268987 A    
C10   H8    1.112930 S    
C51   C52   1.400505 A    
O9    C6    1.282018 A    
C33   C42   1.482595 S    
O7    C6    1.278194 A    
C91   H75   1.112419 S    
H28   C25   1.113109 S    
C26   C30   1.532814 S    
Zn3   O8    1.950555 S    
C44   H43   1.082218 S    
C38   C88   1.450211 S    
C80   C81   1.396184 A    
C5    C59   1.439336 S    
Zn7   O21   1.948276 S    
C51   C60   1.478079 S    
C70   H61   1.083033 S    
Zn8   O24   1.929880 S    
Zn7   O14   1.952928 S    
C62   H54   1.082354 S    
N1    O28   1.301145 A    
H17   C17   1.112675 S    
C23   C27   1.564061 S    
C7    H1    1.113450 S    
O16   C86   1.273590 A    
C93   H69   1.110909 S    
C9    C13   1.547044 S    
N2    O29   1.301620 A    
C91   H74   1.110152 S    
Zn2   O12   1.930596 S    
C55   C60   1.377751 A    
C35   H39   1.081755 S    
C15   C16   1.549712 S    
C43   C44   1.398218 A    
C32   C91   1.513870 S    
C34   H38   1.083317 S    
C53   C54   1.397944 A    
C24   H26   1.112705 S    
C73   C78   1.385188 A    
C22   H21   1.112931 S    
C37   C38   1.397526 A    
C3    C77   1.459025 S    
Zn5   O22   1.951289 S    
H29   C29   1.113190 S    
C46   C47   1.398125 A    
Zn6   O19   1.950410 S    
O22   C90   1.279273 A    
C26   H31   1.109749 S    
O23   C87   1.282448 A    
C40   C41   1.396614 A    
C17   C19   1.551998 S    
C50   H48   1.083197 S    
Zn8   O15   1.939809 S    
C57   C66   1.480332 S    
O2    C1    1.289202 A    
Zn6   O14   1.948623 S    
C22   H22   1.113603 S    
O17   C87   1.287971 A    
Zn6   O25   1.942716 S    
C14   H9    1.113019 S    
C43   H42   1.083146 S    
O10   C3    1.273818 A    
C10   C11   1.551524 S    
C28   C29   1.552038 S    
C16   H16   1.110579 S    
O20   C90   1.280505 A    
Zn7   O26   1.939690 S    
C83   H68   1.083372 S    
C25   C27   1.552947 S    
C32   C33   1.419371 A    
C91   C92   1.533548 S    
C63   C64   1.398025 A    
C69   C78   1.479081 S    
C15   H14   1.112762 S    
Zn8   O20   1.947673 S    
C18   C19   1.550960 S    
C74   C86   1.458711 S    
C7    C11   1.555582 S    
C23   C24   1.551511 S    
C67   C72   1.398058 A    
C61   C62   1.398235 A    
C20   C87   1.504982 S    
C12   C13   1.551560 S    
Zn3   O5    1.942717 S    
C16   C20   1.551185 S    
C68   C69   1.404690 A    
C75   C84   1.482368 S    
C35   C36   1.395067 A    
C16   H15   1.112782 S    
O11   C4    1.280920 A    
C46   H45   1.082491 S    
C6    C11   1.494490 S    
C24   C28   1.550898 S    
C39   C40   1.383315 A    
C93   H71   1.110686 S    
N3    O31   1.301613 A    
C30   H33   1.113597 S    
O19   C89   1.267926 A    
C92   H72   1.111837 S    
C44   C45   1.398637 A    
H18   C21   1.113137 S    
C10   C14   1.547714 S    
C31   H37   1.083442 S    
Zn4   O7    1.947677 S    
C37   C42   1.382433 A    
C74   C75   1.417758 A    
C28   C85   1.486890 S    
C17   C21   1.550069 S    
C62   C63   1.397848 A    
C2    C19   1.503729 S    
C26   H30   1.113849 S    
C34   C35   1.395514 A    
O3    C2    1.283583 A    
C92   H73   1.111987 S    
C77   C78   1.417485 A    
C67   C68   1.398676 A    
Zn4   O2    1.929925 S    
Zn1   O9    1.951391 S    
C1    C41   1.450274 S    
C55   C56   1.397077 A    
Zn2   O6    1.948378 S    
C75   C76   1.385505 A    
C15   H13   1.113220 S    
H58   C72   1.082477 S    
C64   C65   1.398577 A    
C49   C50   1.407465 A    
Zn5   O14   1.947049 S    
C18   H20   1.113239 S    
Zn7   O18   1.930494 S    
C21   H24   1.112999 S    
N3    O32   1.300942 A    
C58   C59   1.396766 A    
C81   C82   1.393001 A    
C30   H32   1.113548 S    
O12   C1    1.275696 A    
Zn2   O4    1.939645 S    
C7    H2    1.113493 S    
C73   C74   1.397917 A    
C26   C27   1.555705 S    
Zn3   O1    1.948622 S    
C50   C51   1.403787 A    
C53   H50   1.082602 S    
H6    C13   1.112976 S    
C63   H55   1.082568 S    
C65   C66   1.404837 A    
C43   C48   1.403852 A    
C45   H44   1.081987 S    
C41   C42   1.416069 A    
C68   H60   1.083117 S    
C49   N2    1.439566 S    
Zn4   O11   1.939812 S    
C71   C72   1.398451 A    
C61   H53   1.083109 S    
H47   C54   1.082691 S    
C12   C14   1.552236 S    
C17   H23   1.113247 S    
C52   H49   1.083129 S    
C79   C80   1.408730 A    
H5    C9    1.112950 S    
O21   C89   1.280313 A    
O5    C4    1.278960 A    
C20   C21   1.549923 S    
C57   C58   1.378612 A    
C80   H65   1.082468 S    
C29   H35   1.112999 S    
C8    C12   1.553412 S    
C58   H52   1.085493 S    
Zn4   O1    1.954241 S    
C23   H25   1.115406 S    
C76   C77   1.398041 A    
C10   H7    1.113185 S    
C79   N3    1.443011 S    
Zn3   O13   1.929323 S    
O24   C88   1.287539 A    
C92   C93   1.525902 S    
C81   H66   1.082550 S    
O25   C85   1.282410 A    
C65   H57   1.083197 S    
O15   C85   1.278230 A    
Zn2   O1    1.952780 S    
O13   C2    1.286302 A    
C15   C19   1.553465 S    
C13   H12   1.113048 S    
C12   C90   1.493729 S    
C49   C54   1.406761 A    
C73   H63   1.082897 S    
C14   H10   1.113124 S    
C82   C83   1.394832 A    
N1    O27   1.301468 A    
C8    H3    1.113433 S    
C9    H11   1.113063 S    
C67   H59   1.082364 S    
C64   H56   1.082368 S    
Zn1   O3    1.930143 S    
C93   H70   1.110489 S    
Zn1   O10   1.942559 S    
C31   C36   1.396372 A    
C55   H51   1.085404 S    
C47   H46   1.083159 S    
O26   C86   1.286769 A    
C56   C89   1.440195 S    
C9    C11   1.550567 S    
C56   C57   1.415086 A    
C25   H34   1.113220 S    
