data_mof_unit_2943.cif
_audit_creation_date              2012-12-10T19:09:37-0500
_audit_creation_method            fapswitch 2.2
_symmetry_space_group_name_H-M    P1
_symmetry_Int_Tables_number       1
_space_group_crystal_system       triclinic
_cell_length_a                    9.574264
_cell_length_b                    10.840991
_cell_length_c                    17.100586
_cell_angle_alpha                 88.542871
_cell_angle_beta                  94.73989
_cell_angle_gamma                 90.492658
_cell_volume                      1768.26719633

loop_
_atom_site_label
_atom_site_type_symbol
_atom_type_description
_atom_site_fract_x
_atom_site_fract_y
_atom_site_fract_z
_atom_type_partial_charge
C1    C     C_R   0.499648 0.262483 0.502288 0.795945
C2    C     C_R   0.652468 0.538685 0.779012 -0.221368
C3    C     C_R   0.584415 0.502136 0.141894 -0.205565
C4    C     C_R   0.592757 0.502350 0.223179 -0.247311
C5    C     C_R   0.452879 0.501786 0.098074 0.374615
C6    C     C_R   0.470633 0.502201 0.262956 -0.072280
C7    C     C_R   0.339248 0.501827 0.219976 -0.217101
C8    C     C_R   0.329552 0.501354 0.137731 0.163158
C9    C     C_R   0.624849 0.064987 0.520866 0.117059
C10   C     C_R   0.499062 0.129396 0.511495 -0.097569
C11   C     C_R   0.372570 0.063037 0.513445 -0.215200
C12   C     C_R   0.518157 0.499045 0.650837 0.804125
C13   C     C_R   0.373393 0.934366 0.512668 -0.212612
C14   C     C_R   0.500625 0.870958 0.509733 -0.099295
C15   C     C_R   0.625892 0.937969 0.519822 0.135527
C16   C     C_3   0.752757 0.938189 0.474528 -0.490643
C17   C     C_3   0.751956 0.077776 0.476521 -0.452794
C18   C     C_R   0.064246 0.538775 0.435050 0.243261
C19   C     C_R   0.084652 0.444188 0.558833 -0.081936
C20   C     C_R   0.936322 0.441412 0.558985 0.236886
C21   C     C_R   0.917357 0.538209 0.434844 0.221546
C22   C     C_3   0.906968 0.660764 0.393909 -0.509545
C23   C     C_R   0.500499 0.737785 0.501459 0.800001
C24   C     C_3   0.065805 0.661768 0.394468 -0.486735
C25   C     C_R   0.481730 0.501673 0.349087 0.810742
C26   C     C_R   0.528621 0.500327 0.736801 -0.066653
C27   C     C_R   0.412408 0.465530 0.777072 -0.239231
C28   C     C_R   0.419381 0.468941 0.858341 -0.203538
C29   C     C_R   0.543445 0.507712 0.901308 0.372629
C30   C     C_R   0.661114 0.541593 0.861113 0.163426
Cu1   Cu    Cu3+1 0.640670 0.499980 0.500000 0.937789
Cu2   Cu    Cu3+1 0.359330 0.500020 0.500000 0.938980
H1    H     H_    0.695532 0.502035 0.254799 0.163869
H2    H     H_    0.274025 0.885621 0.510261 0.160471
H3    H     H_    0.845006 0.897657 0.509424 0.196410
H4    H     H_    0.729963 0.903040 0.414252 0.199185
H5    H     H_    0.842568 0.116827 0.512880 0.198403
H6    H     H_    0.729903 0.122672 0.417632 0.204964
H7    H     H_    0.149395 0.401404 0.606680 0.144836
H8    H     H_    0.852717 0.655713 0.334065 0.193413
H9    H     H_    0.867067 0.730930 0.431589 0.214169
H10   H     H_    0.103321 0.656568 0.334854 0.191807
H11   H     H_    0.681541 0.501373 0.113663 0.163865
H12   H     H_    0.116784 0.734307 0.431937 0.209593
H13   H     H_    0.741324 0.568816 0.748095 0.152090
H14   H     H_    0.244320 0.501488 0.250361 0.155115
H15   H     H_    0.327554 0.440599 0.887309 0.163889
H16   H     H_    0.315757 0.435122 0.745747 0.159454
H17   H     H_    0.272814 0.109927 0.511133 0.165335
N1    N     N_2   0.554424 0.512020 0.984497 -0.259970
N2    N     N_2   0.440847 0.499532 0.014733 -0.258513
N3    N     N_R   0.147870 0.500930 0.499500 -0.203609
N4    N     N_R   0.851960 0.500890 0.499500 -0.185518
O1    O     O_R   0.618810 0.319640 0.500000 -0.588750
O2    O     O_R   0.381230 0.319680 0.499990 -0.584239
O3    O     O_R   0.631790 0.498830 0.613930 -0.584718
O4    O     O_R   0.394210 0.498870 0.613920 -0.587826
O5    O     O_R   0.618770 0.680320 0.500010 -0.575908
O6    O     O_R   0.381190 0.680360 0.500000 -0.582191
O7    O     O_R   0.605790 0.501130 0.386080 -0.582023
O8    O     O_R   0.368210 0.501170 0.386070 -0.582315
C31   C     C_3   0.879460 0.371694 0.626691 -0.798298
H18   H     H_    0.785061 0.317485 0.608663 0.264615
H19   H     H_    0.956505 0.303160 0.652917 0.175095
H20   H     H_    0.860392 0.436238 0.673625 0.229055
C32   C     C_3   0.795202 0.582312 0.905587 -0.865805
H21   H     H_    0.877699 0.605864 0.865577 0.225552
H22   H     H_    0.775485 0.665155 0.939827 0.242002
H23   H     H_    0.835170 0.507025 0.946462 0.237732
C33   C     C_3   0.187790 0.500538 0.092502 -0.870727
H24   H     H_    0.101467 0.500535 0.132105 0.222392
H25   H     H_    0.176856 0.583712 0.053282 0.242352
H26   H     H_    0.176442 0.416760 0.056426 0.238434

loop_
_geom_bond_atom_site_label_1
_geom_bond_atom_site_label_2
_ccdc_geom_bond_type
C27   H16   S    
C12   O3    A    
C23   O5    A    
C21   N4    A    
C1    O1    A    
C28   H15   S    
C31   H18   S    
C11   H17   S    
C25   O7    A    
C13   C14   A    
Cu1   O3    S    
C5    C8    A    
C18   C21   A    
C24   H10   S    
C9    C10   A    
C19   C20   A    
Cu2   O2    S    
C8    C33   S    
Cu1   Cu2   S    
Cu2   O6    S    
Cu1   O7    S    
C2    C30   A    
C22   H8    S    
C32   H23   S    
C33   H26   S    
N1    N2    D    
C1    O2    A    
C18   N3    A    
C13   H2    S    
C2    C26   A    
C25   O8    A    
C21   C22   S    
C16   H4    S    
C23   O6    A    
C11   C13   A    
C3    H11   S    
C26   C27   A    
C29   C30   A    
C19   H7    S    
Cu2   O4    S    
C18   C24   S    
C12   O4    A    
Cu1   O5    S    
C9    C17   S    
C28   C29   A    
C30   C32   S    
C14   C23   S    
Cu2   O8    S    
C32   H21   S    
C6    C7    A    
C29   N1    S    
C16   H3    S    
C20   C31   S    
C24   H12   S    
C16   C17   S    
C22   C24   S    
Cu1   N4    S    
C22   H9    S    
C33   H25   S    
C2    H13   S    
C17   H5    S    
C32   H22   S    
C6    C25   S    
C7    H14   S    
Cu1   O1    S    
C7    C8    A    
C33   H24   S    
C17   H6    S    
C4    C6    A    
C10   C11   A    
C27   C28   A    
C4    H1    S    
Cu2   N3    S    
C31   H19   S    
C1    C10   S    
C31   H20   S    
C14   C15   A    
C19   N3    A    
C5    N2    S    
C3    C4    A    
C15   C16   S    
C9    C15   A    
C12   C26   S    
C20   N4    A    
C3    C5    A    
