data_mof_unit_860.cif
_audit_creation_date              2013-03-05T16:09:07-0500
_audit_creation_method            fapswitch 2.2
_symmetry_space_group_name_H-M    P1
_symmetry_Int_Tables_number       1
_space_group_crystal_system       triclinic
_cell_length_a                    18.222417
_cell_length_b                    7.091867
_cell_length_c                    13.004926
_cell_angle_alpha                 90.169931
_cell_angle_beta                  72.003571
_cell_angle_gamma                 90.008012
_cell_volume                      1598.40751598

loop_
_atom_site_label
_atom_site_type_symbol
_atom_site_description
_atom_site_fract_x
_atom_site_fract_y
_atom_site_fract_z
_atom_type_partial_charge
O1    O     O_R   0.453880 0.506200 0.150010 -0.589126
O2    O     O_R   0.546120 0.006200 0.849990 -0.588924
O3    O     O_R   0.604080 0.177770 0.007280 -0.592979
O4    O     O_R   0.395920 0.677770 0.992720 -0.593796
C1    C     C_R   0.635978 0.344517 0.001783 0.979391
C2    C     C_R   0.364017 0.844505 0.998212 0.979617
O5    O     O_R   0.458010 0.176640 0.159130 -0.593153
O6    O     O_R   0.541990 0.676640 0.840870 -0.593434
O7    O     O_R   0.399010 0.004010 0.002930 -0.588656
O8    O     O_R   0.600990 0.504010 0.997070 -0.589461
C3    C     C_R   0.443058 0.345536 0.201808 0.920441
C4    C     C_R   0.556959 0.844960 0.798166 0.920389
O9    O     O_3   0.480810 0.338440 0.948570 -0.282828
O10   O     O_3   0.519190 0.838440 0.051430 -0.282918
V1    V     V_3+5 0.503560 0.064490 0.009540 1.177035
V2    V     V_3+5 0.496440 0.564490 0.990460 1.176502
C5    C     C_R   0.584243 0.867030 0.500469 -0.170103
C6    C     C_R   0.415631 0.379430 0.499288 -0.170117
H1    H     H_    0.486267 0.861993 0.643703 0.110003
H2    H     H_    0.513626 0.373988 0.356061 0.110152
H3    H     H_    0.663974 0.880203 0.292385 0.137422
H4    H     H_    0.335857 0.394086 0.707370 0.137218
H5    H     H_    0.548481 0.873891 0.447670 0.127160
H6    H     H_    0.451340 0.390642 0.552013 0.127154
C7    C     C_R   0.593502 0.852504 0.681337 -0.087202
C8    C     C_R   0.406491 0.355062 0.318607 -0.087329
C9    C     C_R   0.957275 0.851684 0.386914 0.313261
C10   C     C_R   0.042818 0.342731 0.613261 0.310884
C11   C     C_R   0.923627 0.838489 0.498739 -0.105244
C12   C     C_R   0.076398 0.338611 0.501154 -0.102662
C13   C     C_R   0.843932 0.838992 0.545344 -0.143245
C14   C     C_R   0.156040 0.344476 0.454426 -0.140973
C15   C     C_R   0.793944 0.852026 0.481379 0.077873
C16   C     C_R   0.206030 0.355777 0.518494 0.076254
C17   C     C_R   0.827474 0.861638 0.366976 0.070416
C18   C     C_R   0.172504 0.363421 0.632979 0.070501
C19   C     C_R   0.711770 0.855205 0.527212 0.102279
C20   C     C_R   0.288190 0.360156 0.472659 0.102245
C21   C     C_R   0.665082 0.864855 0.457638 0.180841
C22   C     C_R   0.334819 0.374392 0.542165 0.180989
C23   C     C_R   0.699216 0.872604 0.345879 -0.246486
C24   C     C_R   0.300660 0.383206 0.653922 -0.246451
C25   C     C_R   0.778898 0.871627 0.301182 -0.179557
C26   C     C_R   0.221025 0.377416 0.698720 -0.179475
C27   C     C_R   0.673993 0.849937 0.639922 -0.216606
C28   C     C_R   0.326026 0.350223 0.360050 -0.216974
C29   C     C_R   0.548675 0.860496 0.611776 -0.185761
C30   C     C_R   0.451242 0.369904 0.388037 -0.185551
C31   C     C_R   0.909024 0.861371 0.320193 -0.340900
C32   C     C_R   0.091017 0.356837 0.679911 -0.341134
H7    H     H_    0.705040 0.844273 0.698158 0.114565
H8    H     H_    0.295059 0.338119 0.301933 0.114880
H9    H     H_    0.823596 0.828734 0.632112 0.151882
H10   H     H_    0.176325 0.339928 0.367471 0.153575
H11   H     H_    0.959610 0.830339 0.551124 0.176146
H12   H     H_    0.040453 0.328019 0.448792 0.178249
H13   H     H_    0.801991 0.878907 0.213973 0.122035
H14   H     H_    0.197929 0.383970 0.785973 0.121848
C33   C     C_1   0.216333 0.858754 0.000189 -0.198980
C34   C     C_1   0.783664 0.358770 0.999831 -0.198933
C35   C     C_1   0.283607 0.852567 0.999064 -0.237011
C36   C     C_1   0.716389 0.352595 0.000944 -0.236971
O11   O     O_R   0.899030 0.205490 0.002790 -0.583921
O12   O     O_R   0.100970 0.705490 0.997210 -0.599936
O13   O     O_R   0.042000 0.536370 0.840840 -0.601059
O14   O     O_R   0.958000 0.036370 0.159160 -0.578581
C37   C     C_R   0.056526 0.367656 0.797977 1.029516
C38   C     C_R   0.943480 0.868435 0.202055 1.029002
O15   O     O_R   0.895930 0.535070 0.992690 -0.599719
O16   O     O_R   0.104070 0.035070 0.007310 -0.583553
O17   O     O_R   0.953870 0.707520 0.150040 -0.602427
O18   O     O_R   0.046130 0.207520 0.849960 -0.580323
C39   C     C_R   0.864081 0.366775 0.998935 1.027705
C40   C     C_R   0.135919 0.866756 0.001092 1.026715
O19   O     O_3   0.019200 0.374340 0.051340 -0.283160
O20   O     O_3   0.980800 0.874340 0.948660 -0.278968
V3    V     V_3+5 0.996440 0.648350 0.990470 1.206790
V4    V     V_3+5 0.003560 0.148350 0.009530 1.230628
N1    N     N_R   0.040233 0.854343 0.343058 0.220090
O21   O     O_R   0.082159 0.770632 0.394163 -0.417451
O22   O     O_R   0.074453 0.960103 0.260644 -0.437047
N2    N     N_R   0.959973 0.332897 0.657433 0.219793
O23   O     O_R   0.916732 0.396525 0.602121 -0.418389
O24   O     O_R   0.927539 0.239116 0.745592 -0.433970

loop_
_geom_bond_atom_site_label_1
_geom_bond_atom_site_label_2
_geom_bond_distance
_ccdc_geom_bond_type
O14   C38   1.308532 A    
C31   C38   1.470227 S    
C9    C11   1.396223 A    
O12   V3    1.975565 S    
O15   V3    1.991936 S    
O1    C3    1.308941 A    
O2    C4    1.309216 A    
C2    O7    1.309017 A    
C18   C32   1.421186 A    
C21   C23   1.394348 A    
O5    C3    1.311367 A    
C5    H5    1.084077 S    
C6    H6    1.084085 S    
C2    C35   1.462992 S    
O20   V4    2.183661 S    
C9    N1    1.441590 S    
H1    C29   1.083513 S    
O16   V4    1.992071 S    
C27   H7    1.077131 S    
C28   H8    1.077110 S    
C34   C39   1.462924 S    
C34   C36   1.222301 T    
C37   O18   1.306904 A    
C5    C21   1.404783 A    
C6    C22   1.404791 A    
O18   V4    2.023520 S    
C10   C32   1.415129 A    
C26   H14   1.082344 S    
O13   C37   1.310479 A    
C17   C31   1.421199 A    
C13   C15   1.413858 A    
O15   C39   1.318782 A    
C12   C14   1.390102 A    
C17   C25   1.410342 A    
C32   C37   1.470203 S    
C7    C29   1.394910 A    
C8    C30   1.394899 A    
C22   C24   1.394326 A    
O6    V2    2.029128 S    
C23   C25   1.387342 A    
C24   C26   1.387321 A    
C14   H10   1.076087 S    
O14   V4    2.029108 S    
C33   C35   1.222256 T    
O13   V3    2.024674 S    
C10   N2    1.441593 S    
O20   V3    1.745435 S    
O4    C2    1.309706 A    
N1    O22   1.300692 A    
C8    C28   1.397641 A    
O11   C39   1.317833 A    
C3    C8    1.459386 S    
C12   H12   1.083377 S    
C15   C19   1.430532 A    
C14   C16   1.413876 A    
O4    V2    1.992099 S    
O16   C40   1.318646 A    
O6    C4    1.310726 A    
O1    V2    2.021970 S    
C13   H9    1.076107 S    
O2    V1    2.019496 S    
O19   V3    2.187938 S    
C33   C40   1.462848 S    
H2    C30   1.083513 S    
H3    C23   1.084241 S    
N2    O24   1.300705 A    
C18   C26   1.410363 A    
C19   C27   1.414429 A    
C7    C27   1.397696 A    
O17   V3    2.021014 S    
O3    V1    1.991962 S    
C16   C20   1.430528 A    
C5    C29   1.392208 A    
O3    C1    1.309970 A    
C6    C30   1.392203 A    
C11   H11   1.083363 S    
C4    C7    1.459462 S    
C10   C12   1.396201 A    
O7    V1    1.980332 S    
C1    O8    1.309350 A    
C19   C21   1.422401 A    
O8    V2    1.980560 S    
C20   C22   1.422422 A    
H4    C24   1.084246 S    
C38   O17   1.308469 A    
O5    V1    2.024690 S    
C15   C17   1.424920 A    
C1    C36   1.463065 S    
C16   C18   1.424907 A    
O19   V4    1.742397 S    
C20   C28   1.414388 A    
C25   H13   1.082345 S    
N1    O21   1.301544 A    
C11   C13   1.390120 A    
N2    O23   1.301616 A    
O9    V2    1.743116 S    
O12   C40   1.317368 A    
O10   V1    1.746158 S    
C9    C31   1.415092 A    
O11   V4    1.975780 S    
