data_mof_unit_1738.cif
_audit_creation_date              2012-12-11T16:20:03-0500
_audit_creation_method            fapswitch 2.2
_symmetry_space_group_name_H-M    P1
_symmetry_Int_Tables_number       1
_space_group_crystal_system       triclinic
_cell_length_a                    13.66392
_cell_length_b                    14.054714
_cell_length_c                    30.150606
_cell_angle_alpha                 97.900805
_cell_angle_beta                  90.016407
_cell_angle_gamma                 119.183787
_cell_volume                      4992.01197091

loop_
_atom_site_label
_atom_site_type_symbol
_atom_type_description
_atom_site_fract_x
_atom_site_fract_y
_atom_site_fract_z
_atom_type_partial_charge
C1    C     C_R   0.721456 0.100097 0.568451 0.551331
C2    C     C_1   0.354783 0.666770 0.764827 0.015725
C3    C     C_2   0.286932 0.471120 0.285770 0.193728
C4    C     C_2   0.137887 0.515575 0.290511 0.319733
C5    C     C_2   0.202937 0.427334 0.193034 0.138480
C6    C     C_2   0.517484 0.649992 0.297424 0.364926
C7    C     C_2   0.475898 0.578850 0.203529 0.243073
C8    C     C_2   0.180174 0.003558 0.061109 0.237965
C9    C     C_2   0.177295 0.959691 0.153191 0.215963
C10   C     C_2   0.482046 0.349309 0.323299 0.254125
C11   C     C_2   0.527734 0.661516 0.668869 0.284737
C12   C     C_2   0.203974 0.933538 0.773860 0.202734
C13   C     C_1   0.362552 0.679546 0.726244 -0.032760
C14   C     C_R   0.383810 0.789379 0.551251 0.546495
C15   C     C_R   0.304485 0.608138 0.899279 0.035079
C16   C     C_3   0.348725 0.044686 0.722201 -0.350027
C17   C     C_3   0.214566 0.116390 0.711736 0.125095
C18   C     C_3   0.205452 0.143557 0.764127 0.194059
C19   C     C_1   0.294932 0.191670 0.878349 0.080943
C20   C     C_3   0.335433 0.136181 0.702830 -0.018911
C21   C     C_3   0.315083 0.038106 0.772313 -0.039580
C22   C     C_R   0.364026 0.696609 0.680381 -0.011184
C23   C     C_3   0.308845 0.147675 0.790342 0.016858
C24   C     C_3   0.418106 0.252626 0.779786 0.140625
C25   C     C_3   0.423575 0.252399 0.728147 0.133586
C26   C     C_R   0.399246 0.117432 0.570000 0.550340
C27   C     C_1   0.300403 0.165857 0.839196 0.098643
C28   C     C_1   0.351996 0.131625 0.654370 0.001167
C29   C     C_1   0.370804 0.128864 0.615335 0.027017
C30   C     C_3   0.745307 0.205288 0.726782 -0.262539
C31   C     C_3   0.953395 0.277245 0.716352 0.172957
C32   C     C_3   0.970894 0.293774 0.769751 0.052636
C33   C     C_R   0.284188 0.721918 0.663659 0.249761
C34   C     C_1   0.911766 0.210876 0.876963 0.058140
C35   C     C_3   0.829736 0.177558 0.700848 0.007429
C36   C     C_3   0.758697 0.205987 0.778897 -0.017768
C37   C     C_3   0.868217 0.198593 0.789058 -0.020837
C38   C     C_R   0.719947 0.095438 0.442488 0.599158
C39   C     C_3   0.859344 0.088382 0.763297 0.070639
C40   C     C_3   0.812164 0.063611 0.713236 0.036596
C41   C     C_1   0.891302 0.205735 0.837639 0.037928
C42   C     C_1   0.803899 0.162071 0.652097 0.065514
C43   C     C_1   0.773128 0.137821 0.612939 0.068916
C44   C     C_R   0.283161 0.737820 0.619380 -0.057178
C45   C     C_3   0.308161 0.756685 0.270947 -0.091897
C46   C     C_3   0.252578 0.551663 0.271571 -0.082451
C47   C     C_3   0.237041 0.541932 0.218573 -0.223907
C48   C     C_1   0.306865 0.604891 0.110947 0.065899
C49   C     C_3   0.343902 0.677272 0.290083 -0.035948
C50   C     C_R   0.382188 0.784669 0.425076 0.545779
C51   C     C_3   0.312506 0.746589 0.218005 0.425013
C52   C     C_3   0.333812 0.647523 0.200684 0.075593
C53   C     C_3   0.455683 0.675596 0.219507 0.187691
C54   C     C_3   0.465455 0.706087 0.273433 0.212521
C55   C     C_R   0.244838 0.650013 0.831306 0.033177
C56   C     C_1   0.323302 0.629631 0.151052 0.107854
C57   C     C_1   0.353573 0.702901 0.339642 0.107711
C58   C     C_1   0.364595 0.733750 0.379402 0.091698
C59   C     C_R   0.358792 0.133242 0.400584 0.055206
C60   C     C_R   0.416199 0.237228 0.386168 0.213505
C61   C     C_R   0.404301 0.244883 0.340230 0.031291
C62   C     C_R   0.396509 0.114835 0.442960 0.572964
C63   C     C_R   0.325656 0.149258 0.310802 0.015942
C64   C     C_R   0.259223 0.050571 0.327008 -0.153645
C65   C     C_R   0.276413 0.042098 0.371329 -0.183296
C66   C     C_R   0.228393 0.629056 0.875939 0.209916
C67   C     C_R   0.248946 0.073550 0.142850 -0.004973
C68   C     C_R   0.249662 0.095111 0.098087 -0.025952
C69   C     C_R   0.390947 0.287382 0.123418 -0.098140
C70   C     C_R   0.392283 0.265672 0.166708 -0.107887
C71   C     C_R   0.318632 0.161654 0.177104 0.032377
C72   C     C_1   0.316796 0.150383 0.223669 0.086760
C73   C     C_1   0.318480 0.147486 0.263230 0.080322
C74   C     C_R   0.366168 0.738557 0.592084 -0.045722
C75   C     C_R   0.315541 0.205205 0.089339 0.035650
C76   C     C_R   0.781346 0.134222 0.402089 0.029885
C77   C     C_R   0.405018 0.624435 0.879739 0.198667
C78   C     C_R   0.796268 0.059433 0.369977 0.184082
C79   C     C_R   0.827146 0.086372 0.326748 0.208489
C80   C     C_R   0.837495 0.183998 0.315630 0.050988
C81   C     C_R   0.836645 0.264286 0.348264 0.190760
C82   C     C_R   0.806945 0.239215 0.391867 0.182095
C83   C     C_R   0.886716 0.308820 0.166077 0.187696
C84   C     C_R   0.910111 0.312567 0.121164 -0.056364
C85   C     C_R   0.859761 0.119554 0.109576 -0.133084
C86   C     C_R   0.444025 0.710963 0.608171 -0.061498
C87   C     C_R   0.836018 0.113809 0.154680 0.240214
C88   C     C_R   0.418444 0.641909 0.835282 -0.075131
C89   C     C_R   0.854213 0.209734 0.183248 0.042378
C90   C     C_1   0.849618 0.206780 0.230475 0.056344
C91   C     C_1   0.846199 0.199749 0.269626 0.139223
C92   C     C_R   0.901661 0.219864 0.093212 -0.053595
C93   C     C_R   0.283279 0.231511 0.922926 0.564037
C94   C     C_R   0.267320 0.549462 0.938763 0.558820
C95   C     C_R   0.949313 0.223434 0.922646 0.552900
C96   C     C_R   0.292662 0.241887 0.048769 0.598575
C97   C     C_R   0.274640 0.558020 0.064822 0.547334
C98   C     C_R   0.443130 0.688460 0.652209 0.002367
C99   C     C_R   0.338117 0.651416 0.810739 -0.034424
C100  C     C_R   0.954645 0.233212 0.050369 0.555411
C101  C     C_2   0.094589 0.059696 0.779696 0.325092
C102  C     C_2   0.395820 0.019626 0.799654 0.284036
C103  C     C_2   0.163840 0.670474 0.807193 0.260296
C104  C     C_2   0.763408 0.307870 0.806871 0.307410
C105  C     C_2   0.979190 0.384668 0.699492 0.308451
C106  C     C_2   0.688281 0.973255 0.706244 0.245152
C107  C     C_2   0.873701 0.016391 0.683449 0.340559
C108  C     C_2   0.656579 0.108726 0.792807 0.179481
C109  C     C_2   0.200911 0.749233 0.289180 0.231739
Cr1   Cr    Cr6+3 0.583400 0.162540 0.509180 1.134733
Cr2   Cr    Cr6+3 0.584070 0.916690 0.495550 1.109213
Cr3   Cr    Cr6+3 0.332550 0.920810 0.495240 1.052781
Cr4   Cr    Cr6+3 0.086700 0.177000 0.983690 1.102461
Cr5   Cr    Cr6+3 0.336880 0.419130 0.994740 1.088542
Cr6   Cr    Cr6+3 0.084850 0.422220 0.995960 1.091888
H1    H     H_    0.297567 0.964194 0.700001 0.134385
H2    H     H_    0.159255 0.545413 0.211133 0.207492
H3    H     H_    0.223142 0.760264 0.607883 0.177408
H4    H     H_    0.370681 0.842818 0.285459 0.072682
H5    H     H_    0.198822 0.977635 0.304508 0.165824
H6    H     H_    0.229768 0.962005 0.381863 0.150404
H7    H     H_    0.508232 0.711463 0.586969 0.191284
H8    H     H_    0.447799 0.332301 0.192776 0.176647
H9    H     H_    0.443358 0.371495 0.117555 0.189360
H10   H     H_    0.941608 0.390633 0.108992 0.185991
H11   H     H_    0.851770 0.047349 0.088051 0.137061
H12   H     H_    0.155674 0.027260 0.699229 0.161955
H13   H     H_    0.492895 0.648856 0.819867 0.172821
H14   H     H_    0.071927 0.595839 0.874798 0.342804
H15   H     H_    0.152739 0.135520 0.657377 0.341967
H16   H     H_    0.075498 0.073476 0.814157 0.144029
H17   H     H_    0.257093 0.299966 0.757291 0.343160
H18   H     H_    0.547464 0.228892 0.706476 0.322605
H19   H     H_    0.535959 0.212875 0.782642 0.355143
H20   H     H_    0.413761 0.954478 0.786262 0.089421
H21   H     H_    0.128636 0.717657 0.825060 0.185075
H22   H     H_    0.777558 0.320717 0.843161 0.171256
H23   H     H_    0.399223 0.312554 0.719230 0.175746
H24   H     H_    0.107912 0.309416 0.707439 0.356037
H25   H     H_    0.062423 0.455790 0.707578 0.186599
H26   H     H_    0.951111 0.424984 0.778692 0.378524
H27   H     H_    0.647819 0.921835 0.731571 0.144362
H28   H     H_    0.923959 0.059005 0.657423 0.148534
H29   H     H_    0.747322 0.995223 0.802294 0.354198
H30   H     H_    0.244752 0.768447 0.720756 0.337026
H31   H     H_    0.591861 0.047467 0.767927 0.073745
H32   H     H_    0.205464 0.794746 0.202642 0.369435
H33   H     H_    0.205985 0.792824 0.322491 0.103466
H34   H     H_    0.436497 0.060804 0.720060 0.100426
H35   H     H_    0.296465 0.412480 0.261538 0.133114
H36   H     H_    0.061204 0.469943 0.268477 0.138834
H37   H     H_    0.131996 0.356336 0.203519 0.130440
H38   H     H_    0.531439 0.866660 0.268399 0.387904
H39   H     H_    0.508755 0.571014 0.283620 0.121065
H40   H     H_    0.533253 0.753090 0.169097 0.361031
H41   H     H_    0.388129 0.906850 0.218358 0.313774
H42   H     H_    0.423471 0.498963 0.213057 0.101763
H43   H     H_    0.099588 0.935930 0.067149 0.105371
H44   H     H_    0.156957 0.888477 0.127998 0.124631
H45   H     H_    0.414801 0.328037 0.794453 0.173279
H46   H     H_    0.486837 0.394377 0.408441 0.332791
H47   H     H_    0.560206 0.409428 0.342555 0.146733
H48   H     H_    0.873092 0.389265 0.221786 0.347047
H49   H     H_    0.897142 0.422694 0.363215 0.369825
H50   H     H_    0.770395 0.355929 0.409177 0.348629
H51   H     H_    0.744549 0.902696 0.352860 0.389480
H52   H     H_    0.792127 0.957947 0.147735 0.340569
H53   H     H_    0.875287 0.978308 0.309423 0.353167
H54   H     H_    0.494449 0.652648 0.934414 0.338525
H55   H     H_    0.528797 0.645064 0.702924 0.122109
H56   H     H_    0.757825 0.285338 0.719572 0.234353
H57   H     H_    0.155405 0.880248 0.743277 0.179886
H58   H     H_    0.045903 0.286586 0.778134 0.220045
H59   H     H_    0.657939 0.146332 0.712526 0.099442
H60   H     H_    0.946935 0.106214 0.761939 0.213858
O1    O     O_R   0.494060 0.188820 0.559230 -0.477148
O2    O     O_R   0.170530 0.527770 0.952070 -0.433515
O3    O     O_R   0.987720 0.318450 0.945940 -0.490564
O4    O     O_R   0.678470 0.153390 0.554100 -0.488456
O5    O     O_R   0.976400 0.159230 0.032040 -0.507076
O6    O     O_R   0.193740 0.188470 0.029020 -0.464620
O7    O     O_R   0.364860 0.335530 0.039220 -0.508151
O8    O     O_R   0.330170 0.515340 0.044800 -0.493507
O9    O     O_R   0.177230 0.536000 0.050040 -0.497075
O10   O     O_R   0.993930 0.326080 0.036750 -0.500012
O11   O     O_3   0.169480 0.339450 0.991460 -0.284355
O12   O     O_R   0.480140 0.824500 0.445020 -0.473251
O13   O     O_R   0.697870 0.003940 0.549410 -0.492924
O14   O     O_R   0.480980 0.827230 0.535590 -0.489903
O15   O     O_R   0.309390 0.811640 0.537920 -0.507713
O16   O     O_R   0.341810 0.023400 0.546180 -0.500997
O17   O     O_R   0.493150 0.185870 0.461540 -0.430382
O18   O     O_R   0.677630 0.150660 0.463530 -0.456229
O19   O     O_R   0.696960 0.000990 0.451710 -0.442575
O20   O     O_3   0.137180 0.625843 0.897093 -0.646379
O21   O     O_3   0.187056 0.179735 0.687398 -0.686681
O22   O     O_2   0.025254 0.977424 0.754820 -0.439099
O23   O     O_R   0.308480 0.808690 0.440220 -0.508499
O24   O     O_3   0.206508 0.245150 0.775651 -0.756025
O25   O     O_3   0.534207 0.291829 0.715022 -0.623615
O26   O     O_3   0.515869 0.264024 0.800756 -0.580882
O27   O     O_2   0.433608 0.068789 0.837645 -0.400747
O28   O     O_2   0.130767 0.629767 0.768082 -0.481403
O29   O     O_2   0.750582 0.375634 0.789983 -0.440369
O30   O     O_3   0.030808 0.247613 0.697647 -0.725360
O31   O     O_2   0.911189 0.393029 0.676404 -0.470902
O32   O     O_3   0.998265 0.399551 0.792214 -0.713690
O33   O     O_2   0.633474 0.952324 0.670730 -0.541674
O34   O     O_R   0.340970 0.020670 0.455610 -0.522181
O35   O     O_2   0.864723 0.927256 0.687547 -0.385416
O36   O     O_3   0.809362 0.995488 0.785585 -0.659604
O37   O     O_3   0.208701 0.736621 0.689920 -0.660102
O38   O     O_2   0.646506 0.096463 0.832233 -0.473083
O39   O     O_3   0.211040 0.726478 0.196209 -0.634545
O40   O     O_2   0.108865 0.693525 0.268426 -0.426179
O41   O     O_2   0.301680 0.468747 0.325508 -0.438051
O42   O     O_2   0.128922 0.530665 0.330835 -0.444495
O43   O     O_2   0.250486 0.412108 0.160851 -0.528936
O44   O     O_3   0.541473 0.820199 0.287663 -0.626419
O45   O     O_3   0.500010 0.000010 0.499990 -0.294413
O46   O     O_2   0.568688 0.692593 0.334321 -0.437886
O47   O     O_3   0.540090 0.768246 0.202412 -0.570244
O48   O     O_3   0.400819 0.844734 0.206214 -0.672534
O49   O     O_2   0.552978 0.589904 0.180338 -0.456460
O50   O     O_2   0.213766 0.001691 0.023641 -0.459519
O51   O     O_2   0.138697 0.943808 0.189665 -0.484727
O52   O     O_3   0.485627 0.328577 0.417310 -0.667513
O53   O     O_2   0.460724 0.369833 0.287701 -0.546691
O54   O     O_3   0.902083 0.404815 0.192041 -0.666683
O55   O     O_3   0.863398 0.365192 0.336303 -0.683214
O56   O     O_R   0.969690 0.151000 0.934080 -0.494978
O57   O     O_3   0.796947 0.313273 0.424145 -0.654171
O58   O     O_3   0.773188 0.958229 0.380494 -0.636895
O59   O     O_3   0.800487 0.017098 0.172107 -0.612583
O60   O     O_3   0.845199 0.018031 0.294344 -0.618472
O61   O     O_3   0.490849 0.621699 0.902496 -0.646157
O62   O     O_2   0.597726 0.657422 0.644699 -0.429607
O63   O     O_2   0.165691 0.908815 0.809796 -0.474950
O64   O     O_R   0.187530 0.180840 0.938210 -0.490086
O65   O     O_R   0.358160 0.327300 0.941250 -0.474509
O66   O     O_R   0.323950 0.507710 0.953980 -0.501831

loop_
_geom_bond_atom_site_label_1
_geom_bond_atom_site_label_2
_ccdc_geom_bond_type
H52   O59   S    
C16   C21   S    
C22   C98   A    
H54   O61   S    
C36   C108  S    
C5    H37   S    
C96   O6    A    
H32   O39   S    
C8    H43   S    
C15   C94   S    
H26   O32   S    
C81   C82   A    
C50   O23   A    
C100  O10   A    
C105  O31   D    
C12   H57   S    
C107  O35   D    
C38   C76   S    
C53   C54   S    
C68   C75   A    
C48   C97   S    
C5    C47   S    
C46   C49   S    
Cr2   O13   S    
C87   O59   S    
C30   C35   S    
H19   O26   S    
H41   O48   S    
C104  O29   D    
Cr5   O65   S    
C36   C37   S    
C94   O66   A    
C76   C78   A    
C31   O30   S    
H15   O21   S    
C37   C41   S    
C106  O33   D    
C80   C81   A    
C33   O37   S    
C101  O22   D    
C20   C25   S    
C9    H44   S    
C93   O65   A    
Cr5   O8    S    
C55   C103  S    
C17   C20   S    
C49   C57   S    
C104  H22   S    
Cr3   O34   S    
H49   O55   S    
C40   C107  S    
C61   C63   A    
C35   C42   S    
C102  H20   S    
H24   O30   S    
C14   O14   A    
C63   C73   S    
C70   H8    S    
C1    C43   S    
Cr4   O6    S    
C5    O43   D    
C77   C88   A    
C51   O48   S    
C59   C62   S    
C30   C36   S    
C86   H7    S    
H50   O57   S    
C23   C24   S    
Cr4   O56   S    
C16   H34   S    
C45   C49   S    
Cr1   O45   S    
C42   C43   T    
C45   C109  S    
C108  O38   D    
C19   C93   S    
Cr6   O3    S    
C6    O46   D    
C45   H4    S    
H51   O58   S    
C12   O63   D    
C59   C60   A    
C10   H47   S    
C10   O53   D    
C30   H56   S    
C31   C105  S    
C85   H11   S    
C34   C41   T    
C34   C95   S    
C6    C54   S    
C50   O12   A    
C16   H1    S    
Cr3   O23   S    
H14   O20   S    
C85   C92   A    
C75   C96   S    
Cr6   O9    S    
C108  H31   S    
C45   C51   S    
C85   C87   A    
C83   C89   A    
C24   O26   S    
C63   C64   A    
C67   C68   A    
C50   C58   S    
C54   O44   S    
C24   C25   S    
C39   H60   S    
C76   C82   A    
C39   C40   S    
C97   O8    A    
Cr6   O11   S    
C78   C79   A    
C17   H12   S    
C4    C46   S    
C83   O54   S    
C69   H9    S    
H48   O54   S    
C53   O47   S    
Cr5   O7    S    
C15   C66   A    
C12   C21   S    
H17   O24   S    
C51   C52   S    
C60   C61   A    
C18   C101  S    
C14   O15   A    
C103  H21   S    
C9    C67   S    
C18   C23   S    
C95   O3    A    
C83   C84   A    
C26   O1    A    
C16   C20   S    
Cr4   O5    S    
Cr1   O18   S    
C17   C18   S    
Cr3   O45   S    
C57   C58   T    
C39   O36   S    
Cr6   O2    S    
C32   C37   S    
C74   C86   A    
C32   O32   S    
C44   C74   A    
C2    C13   T    
C6    H39   S    
C65   H6    S    
C11   H55   S    
H53   O60   S    
C21   C102  S    
C101  H16   S    
C51   O39   S    
C2    C99   S    
Cr2   O14   S    
H18   O25   S    
C23   C27   S    
C81   O55   S    
C11   C98   S    
Cr4   O64   S    
C31   C35   S    
C10   C61   S    
C44   H3    S    
C7    C53   S    
C69   C75   A    
C107  H28   S    
C100  O5    A    
C14   C74   S    
C55   C66   A    
C19   C27   T    
C52   C53   S    
C92   C100  S    
C97   O9    A    
C40   C106  S    
C1    O13   A    
C84   H10   S    
C48   C56   T    
C22   C33   A    
C82   O57   S    
C46   C47   S    
C28   C29   T    
C3    H35   S    
C17   O21   S    
C33   C44   A    
C31   C32   S    
C95   O56   A    
C72   C73   T    
C109  O40   D    
C64   H5    S    
C62   O17   A    
C8    O50   D    
C24   H45   S    
C8    C68   S    
C47   C52   S    
C7    H42   S    
C26   O16   A    
Cr1   O1    S    
Cr3   O16   S    
C11   O62   D    
C20   C28   S    
C32   H58   S    
C3    C46   S    
Cr2   O12   S    
Cr5   O11   S    
C38   O18   A    
C96   O7    A    
C36   C104  S    
C60   O52   S    
C64   C65   A    
H30   O37   S    
C80   C91   S    
C21   C23   S    
C35   C40   S    
C3    O41   D    
C79   O60   S    
C71   C72   S    
C37   C39   S    
C25   O25   S    
C59   C65   A    
C105  H25   S    
C7    O49   D    
C1    O4    A    
C90   C91   T    
C15   C77   A    
C52   C56   S    
Cr1   O4    S    
C4    H36   S    
C78   O58   S    
Cr6   O10   S    
Cr4   O11   S    
Cr1   O17   S    
C62   O34   A    
C30   H59   S    
C13   C22   S    
C25   H23   S    
C67   C71   A    
C77   O61   S    
C102  O27   D    
C69   C70   A    
C86   C98   A    
C103  O28   D    
C93   O64   A    
H38   O44   S    
C88   C99   A    
C70   C71   A    
C66   O20   S    
Cr2   O19   S    
Cr3   O15   S    
C79   C80   A    
C109  H33   S    
C38   O19   A    
C47   H2    S    
Cr5   O66   S    
C26   C29   S    
C88   H13   S    
C4    O42   D    
Cr2   O45   S    
C55   C99   A    
C18   O24   S    
C87   C89   A    
C9    O51   D    
H40   O47   S    
C84   C92   A    
C106  H27   S    
C89   C90   S    
C94   O2    A    
H29   O36   S    
C49   C54   S    
H46   O52   S    
