data_mof_unit_898.cif
_audit_creation_date              2013-03-05T15:51:02-0500
_audit_creation_method            fapswitch 2.2
_symmetry_space_group_name_H-M    P1
_symmetry_Int_Tables_number       1
_space_group_crystal_system       triclinic
_cell_length_a                    8.363519
_cell_length_b                    16.619245
_cell_length_c                    17.447145
_cell_angle_alpha                 108.93235
_cell_angle_beta                  83.3803
_cell_angle_gamma                 98.24751
_cell_volume                      2264.02937492

loop_
_atom_site_label
_atom_site_type_symbol
_atom_site_description
_atom_site_fract_x
_atom_site_fract_y
_atom_site_fract_z
_atom_type_partial_charge
P1    P     P_3+3 0.397200 0.301470 0.401420 0.448340
O1    O     O_2   0.563480 0.287900 0.421550 -0.383459
O2    O     O_3   0.344560 0.396140 0.441010 -0.394099
O3    O     O_3   0.805120 0.340890 0.569250 -0.394820
O4    O     O_2   0.649018 0.190887 0.485399 -0.402299
O5    O     O_3   0.416549 0.285146 0.296202 -0.571390
O6    O     O_3   0.724404 0.198680 0.627747 -0.525333
H1    H     H_    0.948172 0.269387 0.667994 0.029679
C1    C     C_3   0.756299 0.295343 0.761870 -0.790457
H2    H     H_    0.725599 0.349995 0.745342 0.265053
H3    H     H_    0.643769 0.262837 0.784114 0.268650
P2    P     P_3+3 0.862850 0.568080 0.686620 0.480386
P3    P     P_3+3 0.360697 0.392165 0.719384 0.447283
O7    O     O_2   0.681260 0.541920 0.693290 -0.362087
O8    O     O_3   0.399420 0.384560 0.615960 -0.400940
O9    O     O_2   0.503755 0.449844 0.765494 -0.374950
O10   O     O_3   0.883251 0.679557 0.730215 -0.545094
O11   O     O_3   0.368798 0.291679 0.730278 -0.519736
C2    C     C_3   0.329270 0.227988 0.657157 0.462518
H4    H     H_    0.421557 0.232555 0.607231 0.171582
H5    H     H_    0.208437 0.233556 0.640197 0.000827
C3    C     C_3   0.325922 0.140077 0.667088 -0.905563
H6    H     H_    0.291845 0.089529 0.609957 0.222440
H7    H     H_    0.446969 0.131197 0.681209 0.282224
C4    C     C_3   0.321776 0.648712 0.724343 0.440064
H8    H     H_    0.202526 0.625436 0.698738 0.091081
H9    H     H_    0.403359 0.597514 0.701680 0.108975
C5    C     C_3   0.299098 0.671999 0.816390 -0.924119
H10   H     H_    0.210213 0.719434 0.840732 0.290728
H11   H     H_    0.254128 0.614345 0.834373 0.211958
H12   H     H_    0.416606 0.699630 0.843281 0.260106
Ba1   Ba    Ba6+2 0.638770 0.457640 0.528600 1.532146
C6    C     C_3   0.514225 0.219297 0.254704 0.299746
H13   H     H_    0.543476 0.180843 0.291770 0.095927
H14   H     H_    0.630471 0.249898 0.234148 0.094536
C7    C     C_3   0.433382 0.158781 0.179366 -0.373636
H15   H     H_    0.528453 0.133909 0.130646 0.189008
H16   H     H_    0.357019 0.193983 0.156062 0.242796
C8    C     C_3   0.839344 0.717734 0.676348 0.261421
H17   H     H_    0.712788 0.693644 0.661082 0.057062
H18   H     H_    0.921672 0.704092 0.620010 0.119203
C9    C     C_3   0.849620 0.814590 0.717817 -0.122287
H19   H     H_    0.783321 0.828750 0.778850 0.141407
H20   H     H_    0.790409 0.844174 0.681706 0.071948
P4    P     P_3+3 0.413100 0.698540 0.598650 0.484363
O12   O     O_2   0.246830 0.712160 0.578490 -0.329097
O13   O     O_3   0.465730 0.603870 0.559050 -0.440250
O14   O     O_3   0.005180 0.659120 0.430820 -0.374105
O15   O     O_3   0.389521 0.722002 0.704388 -0.530029
P5    P     P_3+3 0.439605 0.607216 0.280592 0.517544
O16   O     O_3   0.867570 0.455870 0.400730 -0.408636
O17   O     O_3   0.410870 0.615450 0.384100 -0.417632
O18   O     O_2   0.276631 0.569439 0.242484 -0.370659
O19   O     O_3   0.472256 0.711934 0.274431 -0.508362
Ba2   Ba    Ba6+2 0.171410 0.542370 0.471460 1.593633
P6    P     P_3+3 0.789982 0.228799 0.540997 0.429645
C10   C     C_3   0.837126 0.233436 0.687568 0.693529
H21   H     H_    0.839570 0.320452 0.811550 0.198857
O20   O     O_3   0.942720 0.544140 0.599330 -0.417825
C11   C     C_3   0.964750 0.278675 0.313660 0.415098
H22   H     H_    0.091337 0.301436 0.329915 0.119497
H23   H     H_    0.879303 0.294612 0.368725 0.112000
C12   C     C_3   0.948809 0.181848 0.275271 -1.007461
H24   H     H_    0.027320 0.164567 0.217883 0.286824
H25   H     H_    0.984415 0.150865 0.317146 0.227722
H26   H     H_    0.821829 0.156958 0.261157 0.242907
P7    P     P_3+3 0.942577 0.426020 0.298244 0.513596
O21   O     O_2   0.129060 0.458130 0.306750 -0.330961
O22   O     O_3   0.927339 0.314523 0.256700 -0.540205
H27   H     H_    0.236420 0.133274 0.717335 0.266652
C13   C     C_3   0.469177 0.771001 0.353548 0.534992
H28   H     H_    0.350606 0.762674 0.386598 0.129120
H29   H     H_    0.563593 0.762519 0.388741 0.115164
C14   C     C_3   0.500085 0.862530 0.350383 -0.965572
H30   H     H_    0.500836 0.907917 0.413183 0.221703
H31   H     H_    0.619195 0.872912 0.317702 0.292697
H32   H     H_    0.403787 0.876673 0.319635 0.265749
P8    P     P_3+3 0.020396 0.771194 0.455051 0.464098
C15   C     C_3   0.047670 0.739798 0.296863 0.803610
O23   O     O_2   0.154966 0.810850 0.514518 -0.387055
O24   O     O_3   0.087405 0.804810 0.369509 -0.604881
H33   H     H_    0.091833 0.679207 0.294208 0.078267
H34   H     H_    0.101175 0.829086 0.226484 0.264785
C16   C     C_3   0.132330 0.765511 0.224161 -0.936264
H35   H     H_    0.094720 0.717066 0.166454 0.248007
H36   H     H_    0.265092 0.768836 0.223580 0.264078
C17   C     C_2   0.712222 0.752832 0.522960 -0.491933
C18   C     C_R   0.097745 0.245206 0.466689 -0.533007
C19   C     C_2   0.528553 0.860819 0.591916 -0.280377
C20   C     C_2   0.555963 0.778107 0.565978 0.253471
C21   C     C_2   0.826309 0.810035 0.503543 0.294226
C22   C     C_3   0.778650 0.896451 0.507997 -0.048489
C23   C     C_3   0.657464 0.930189 0.580666 0.050071
C24   C     C_2   0.915487 0.964413 0.502360 -0.107939
C25   C     C_2   0.884348 0.035391 0.488339 -0.161843
C26   C     C_R   0.167102 0.079560 0.441458 0.060962
C27   C     C_R   0.012677 0.102126 0.475188 -0.036516
C28   C     C_R   0.285645 0.139443 0.421521 -0.331353
C29   C     C_R   0.250395 0.222758 0.433761 0.327571
C30   C     C_R   0.979808 0.187061 0.489358 0.195178
H37   H     H_    0.417866 0.879782 0.628290 0.218722
H38   H     H_    0.402388 0.119790 0.394538 0.174643
H39   H     H_    0.737007 0.687502 0.511555 0.176763
H40   H     H_    0.068872 0.308120 0.472399 0.153360
H41   H     H_    0.038621 0.956353 0.509880 0.179273
H42   H     H_    0.759192 0.043542 0.484701 0.180971
H43   H     H_    0.185486 0.433268 0.882757 0.193904
C31   C     C_R   0.075093 0.460902 0.711496 -0.185725
C32   C     C_R   0.948370 0.511838 0.745883 0.317736
C33   C     C_R   0.899326 0.527971 0.828975 -0.295982
C34   C     C_R   0.979798 0.496433 0.877928 0.039696
C35   C     C_R   0.117432 0.453868 0.844658 -0.290029
C36   C     C_R   0.167824 0.438073 0.762116 0.214403
C37   C     C_R   0.904835 0.477805 0.158651 0.208101
C38   C     C_R   0.837898 0.472563 0.235790 0.134481
C39   C     C_R   0.606968 0.542996 0.225146 0.374207
C40   C     C_R   0.675235 0.549825 0.149989 -0.237326
C41   C     C_R   0.819631 0.514576 0.114808 -0.119601
C42   C     C_1   0.874845 0.512424 0.031884 0.125941
C43   C     C_1   0.922010 0.507053 0.962079 0.049815
C44   C     C_R   0.681273 0.497698 0.264120 -0.198651
H44   H     H_    0.615723 0.582775 0.118934 0.182887
H45   H     H_    0.799373 0.565437 0.855454 0.171497
C45   C     C_3   0.330319 0.082510 0.197459 -0.896182
H46   H     H_    0.409000 0.040821 0.210656 0.254667
H47   H     H_    0.243480 0.104608 0.250755 0.265948
H48   H     H_    0.262041 0.044293 0.144007 0.274157
N1    N     N_R   0.017904 0.852388 0.725925 0.281930
O25   O     O_R   0.076587 0.909146 0.690361 -0.389553
O26   O     O_R   0.106303 0.834604 0.773650 -0.339896
C46   C     C_3   0.889286 0.160338 0.710489 -0.952739
H49   H     H_    0.781967 0.122133 0.730275 0.270769
H50   H     H_    0.954390 0.117555 0.657239 0.243433
H51   H     H_    0.971826 0.186057 0.760522 0.238841
N2    N     N_R   0.872665 0.725477 0.290982 0.199178
O27   O     O_R   0.785489 0.680237 0.331962 -0.506334
O28   O     O_R   0.804684 0.750015 0.240111 -0.412468
N3    N     N_R   0.054000 0.442897 0.123254 0.255373
O29   O     O_R   0.073877 0.365579 0.119824 -0.360543
O30   O     O_R   0.162999 0.484315 0.086271 -0.391549
C47   C     C_3   0.118017 0.430645 0.621810 -0.673647
H52   H     H_    0.132628 0.362105 0.604984 0.183668
H53   H     H_    0.029214 0.425640 0.580870 0.264112
H54   H     H_    0.222318 0.472766 0.605435 0.245125
C48   C     C_3   0.588494 0.472913 0.333498 -0.536353
H55   H     H_    0.456645 0.461906 0.325738 0.243007
H56   H     H_    0.619032 0.410851 0.333888 0.221337
H57   H     H_    0.615227 0.522781 0.392040 0.246638

loop_
_geom_bond_atom_site_label_1
_geom_bond_atom_site_label_2
_geom_bond_distance
_ccdc_geom_bond_type
O14   Ba2   2.845047 S    
C12   H25   1.107178 S    
C24   H41   1.085282 S    
C38   C44   1.417201 A    
Ba2   O20   2.761533 S    
O3    Ba1   2.845756 S    
H43   C35   1.083435 S    
O4    P6    1.543313 D    
C2    H4    1.109652 S    
C46   H51   1.110597 S    
N1    O25   1.300917 A    
P1    C29   1.842704 S    
C48   H55   1.108274 S    
N2    O27   1.295935 A    
C8    H18   1.111661 S    
P4    O12   1.537359 D    
C31   C32   1.407504 A    
C4    C5    1.520639 S    
P5    O19   1.758744 S    
C14   H31   1.109430 S    
P3    O11   1.752412 S    
C11   C12   1.521675 S    
O1    Ba1   2.860989 S    
C5    H10   1.110199 S    
C7    C45   1.527340 S    
C16   H36   1.102820 S    
O11   C2    1.406354 S    
C45   H47   1.107359 S    
C17   C21   1.342825 D    
C47   H53   1.065258 S    
C15   C16   1.533220 S    
H1    C10   1.111865 S    
P8    O23   1.546038 D    
C6    C7    1.532430 S    
C39   C40   1.401302 A    
C11   H23   1.111191 S    
P1    O1    1.536945 D    
O10   C8    1.397865 S    
O14   P8    1.760001 S    
P7    C38   1.874384 S    
C41   C42   1.457684 S    
P2    C32   1.855746 S    
C18   H40   1.077405 S    
C33   C34   1.407621 A    
P2    O20   1.540269 S    
O2    Ba2   2.877482 S    
P3    C36   1.856531 S    
O19   C13   1.410492 S    
C34   C35   1.405525 A    
C14   H32   1.107895 S    
C26   C28   1.398712 A    
O12   Ba2   2.861650 S    
P5    O17   1.756939 S    
C1    H2    1.108144 S    
C32   C33   1.408550 A    
Ba1   Ba2   4.652287 S    
P5    C39   1.865639 S    
O17   Ba2   2.758395 S    
C9    N1    1.459492 S    
C12   H26   1.108048 S    
O3    P6    1.755036 S    
O2    Ba1   2.926878 S    
C9    H20   1.107574 S    
O6    P6    1.750325 S    
C35   C36   1.402492 A    
C48   H56   1.099837 S    
Ba2   O21   2.797402 S    
C8    C9    1.529976 S    
P4    O13   1.603030 S    
P5    O18   1.544882 D    
C14   H30   1.110615 S    
P1    O5    1.758043 S    
O8    Ba1   2.757845 S    
C2    C3    1.522100 S    
C16   H35   1.111386 S    
C39   C44   1.406826 A    
C47   H54   1.108927 S    
C8    H17   1.107144 S    
C15   O24   1.410581 S    
C44   C48   1.500760 S    
O16   Ba2   2.927589 S    
C4    H8    1.106262 S    
C28   H38   1.080452 S    
P1    Ba1   3.396160 S    
P7    O21   1.581929 D    
C11   H22   1.108648 S    
P1    O2    1.603049 S    
C31   C36   1.408968 A    
P2    O10   1.750669 S    
C40   H44   1.083560 S    
Ba1   O16   2.762087 S    
C25   H42   1.086109 S    
C33   H45   1.083326 S    
C15   H33   1.106819 S    
H34   C16   1.111147 S    
C37   C41   1.421377 A    
P4    O15   1.750910 S    
C26   C27   1.405545 A    
C22   C24   1.506798 S    
C6    H13   1.111761 S    
O16   P7    1.758393 S    
P4    C20   1.838472 S    
C1    H3    1.110932 S    
C18   C30   1.395611 A    
N3    O30   1.301444 A    
C45   H48   1.110663 S    
C17   H39   1.084547 S    
P2    O7    1.520444 D    
P3    O8    1.762375 S    
Ba1   O13   2.876929 S    
C3    H7    1.109670 S    
C17   C20   1.474604 S    
C9    H19   1.111511 S    
P6    C30   1.842286 S    
C46   H49   1.111404 S    
C21   C22   1.520581 S    
C48   H57   1.109178 S    
O13   Ba2   2.927660 S    
N2    O28   1.301947 A    
C1    H21   1.109748 S    
C27   C30   1.413636 A    
C19   H37   1.085135 S    
C10   C46   1.527606 S    
C5    H12   1.110800 S    
O7    Ba1   2.797397 S    
C46   H50   1.109487 S    
N1    O26   1.300617 A    
C13   C14   1.523856 S    
C42   C43   1.214761 T    
C25   C27   1.483738 S    
C37   C38   1.421524 A    
P8    C21   1.843106 S    
C4    H9    1.109929 S    
C15   N2    1.458876 S    
C31   C47   1.497308 S    
O5    C6    1.412500 S    
C5    H11   1.105662 S    
C13   H28   1.102557 S    
C47   H52   1.101493 S    
P8    O24   1.764095 S    
C11   O22   1.396362 S    
C7    H16   1.112152 S    
C22   C23   1.534476 S    
C6    H14   1.108425 S    
C3    H27   1.109237 S    
C1    C10   1.525801 S    
C37   N3    1.439390 S    
C19   C23   1.507144 S    
C24   C25   1.345067 D    
C4    O15   1.399120 S    
C18   C29   1.388391 A    
N3    O29   1.300561 A    
C12   H24   1.109987 S    
P4    Ba2   3.396805 S    
C7    H15   1.111793 S    
C28   C29   1.400167 A    
P3    O9    1.545983 D    
C13   H29   1.104677 S    
C3    H6    1.110822 S    
C34   C43   1.453637 S    
Ba1   O20   2.928366 S    
P7    O22   1.748480 S    
C19   C20   1.345266 D    
C40   C41   1.406093 A    
O6    C10   1.411083 S    
P2    Ba1   3.376810 S    
C45   H46   1.111459 S    
C2    H5    1.109478 S    
