data_mof_unit_1884.cif
_audit_creation_date              2012-12-10T18:35:25-0500
_audit_creation_method            fapswitch 2.2
_symmetry_space_group_name_H-M    P1
_symmetry_Int_Tables_number       1
_space_group_crystal_system       triclinic
_cell_length_a                    15.128218
_cell_length_b                    14.048466
_cell_length_c                    10.76961
_cell_angle_alpha                 90.005664
_cell_angle_beta                  93.749052
_cell_angle_gamma                 90.000968
_cell_volume                      2283.94830225

loop_
_atom_site_label
_atom_site_type_symbol
_atom_type_description
_atom_site_fract_x
_atom_site_fract_y
_atom_site_fract_z
_atom_type_partial_charge
C1    C     C_R   0.330128 0.500085 0.498895 0.744571
C2    C     C_R   0.669870 0.500087 0.501109 0.744534
C3    C     C_R   0.048565 0.501196 0.499639 0.105655
C4    C     C_R   0.951427 0.501197 0.500378 0.105524
C5    C     C_R   0.539140 0.107109 0.599091 -0.257838
C6    C     C_R   0.441517 0.893057 0.420937 -0.278803
C7    C     C_R   0.460869 0.107090 0.400919 -0.257867
C8    C     C_R   0.558480 0.893061 0.579105 -0.278792
C9    C     C_R   0.547121 0.207314 0.592878 0.324149
C10   C     C_R   0.444073 0.792503 0.417061 0.328284
C11   C     C_R   0.452882 0.207296 0.407126 0.324203
C12   C     C_R   0.555918 0.792505 0.582962 0.328175
C13   C     C_R   0.500006 0.054294 0.500007 0.065179
C14   C     C_R   0.500005 0.945810 0.500015 0.077555
C15   C     C_R   0.500496 0.500019 0.263266 0.795352
C16   C     C_R   0.499509 0.500036 0.736734 0.795461
C17   C     C_R   0.336724 0.501602 0.115465 -0.170105
C18   C     C_R   0.663285 0.498844 0.884527 -0.170099
C19   C     C_R   0.336022 0.502871 0.856814 -0.143357
C20   C     C_R   0.664008 0.499675 0.143186 -0.143256
C21   C     C_R   0.256640 0.502972 0.043810 -0.142627
C22   C     C_R   0.743379 0.498652 0.956183 -0.142371
C23   C     C_R   0.256284 0.503718 0.914695 -0.141863
C24   C     C_R   0.743747 0.499161 0.085302 -0.141651
C25   C     C_R   0.418200 0.501405 0.927666 0.066754
C26   C     C_R   0.581817 0.499803 0.072332 0.066706
C27   C     C_R   0.418547 0.501026 0.058469 0.065617
C28   C     C_R   0.581465 0.499567 0.941528 0.065443
C29   C     C_R   0.499669 0.500219 0.870673 -0.180035
C30   C     C_R   0.500342 0.500146 0.129326 -0.180148
C31   C     C_R   0.097290 0.582279 0.537785 -0.179105
C32   C     C_R   0.906819 0.419994 0.539274 -0.175218
C33   C     C_R   0.902692 0.582195 0.461940 -0.178990
C34   C     C_R   0.093183 0.419906 0.461033 -0.175159
C35   C     C_R   0.189154 0.582161 0.536718 -0.201378
C36   C     C_R   0.814950 0.419534 0.538705 -0.195846
C37   C     C_R   0.810827 0.582079 0.463002 -0.200618
C38   C     C_R   0.185051 0.419446 0.461598 -0.195192
C39   C     C_R   0.233562 0.500557 0.499006 -0.025550
C40   C     C_R   0.766432 0.500559 0.501002 -0.025675
Cu1   Cu    Cu3+1 0.500000 0.596430 0.500000 0.913549
Cu2   Cu    Cu3+1 0.500000 0.403570 0.500000 0.916104
H1    H     H_    0.806007 0.499109 0.140933 0.141135
H2    H     H_    0.194033 0.504872 0.859064 0.141152
H3    H     H_    0.805349 0.498160 0.911291 0.135785
H4    H     H_    0.194669 0.503491 0.088699 0.135905
H5    H     H_    0.333730 0.501105 0.215565 0.110368
H6    H     H_    0.666272 0.498557 0.784424 0.110241
H7    H     H_    0.332541 0.503405 0.756393 0.128712
H8    H     H_    0.667496 0.499999 0.243609 0.128757
H9    H     H_    0.064503 0.645306 0.569949 0.126733
H10   H     H_    0.942964 0.357189 0.571399 0.127558
H11   H     H_    0.935472 0.645149 0.429553 0.126740
H12   H     H_    0.057045 0.357028 0.429138 0.127487
H13   H     H_    0.225434 0.645366 0.567125 0.152612
H14   H     H_    0.782003 0.356287 0.569140 0.157961
H15   H     H_    0.774536 0.645213 0.432369 0.152640
H16   H     H_    0.218003 0.356125 0.431400 0.157971
H17   H     H_    0.566536 0.070989 0.681179 0.142782
H18   H     H_    0.392616 0.929148 0.360362 0.137658
H19   H     H_    0.433468 0.070954 0.318833 0.142768
H20   H     H_    0.607365 0.929154 0.639718 0.137632
N1    N     N_R   0.500000 0.258690 0.500000 -0.213784
N2    N     N_R   0.500000 0.741310 0.500000 -0.203336
O1    O     O_R   0.371460 0.581430 0.500010 -0.605557
O2    O     O_R   0.628540 0.418570 0.499990 -0.589899
O3    O     O_R   0.628540 0.581430 0.499990 -0.605265
O4    O     O_R   0.371460 0.418570 0.500010 -0.589624
O5    O     O_R   0.499990 0.581440 0.319660 -0.579876
O6    O     O_R   0.500010 0.418560 0.680340 -0.599109
O7    O     O_R   0.500010 0.581440 0.680340 -0.580010
O8    O     O_R   0.499990 0.418560 0.319660 -0.599246
C41   C     C_3   0.608980 0.252754 0.692893 -0.352280
C42   C     C_3   0.700677 0.205847 0.703982 -0.930734
H21   H     H_    0.698216 0.135227 0.749709 0.252449
H22   H     H_    0.726878 0.197312 0.610644 0.260284
H23   H     H_    0.747271 0.251098 0.762080 0.249022
H24   H     H_    0.622127 0.327539 0.674694 0.256107
H25   H     H_    0.578776 0.247983 0.784018 0.193255
C43   C     C_3   0.382561 0.747364 0.316855 -0.368481
C44   C     C_3   0.415018 0.764868 0.187204 -0.840281
H26   H     H_    0.413830 0.842010 0.164732 0.238046
H27   H     H_    0.483588 0.737731 0.181558 0.272354
H28   H     H_    0.371111 0.727241 0.116525 0.248372
H29   H     H_    0.373125 0.671017 0.327335 0.253174
H30   H     H_    0.315208 0.778417 0.321073 0.164725
C45   C     C_3   0.391005 0.252713 0.307128 -0.352383
C46   C     C_3   0.299301 0.205812 0.296132 -0.930651
H31   H     H_    0.301737 0.135181 0.250411 0.252417
H32   H     H_    0.273148 0.197296 0.389500 0.260267
H33   H     H_    0.252683 0.251052 0.238074 0.249060
H34   H     H_    0.377882 0.327517 0.325279 0.256197
H35   H     H_    0.421177 0.247885 0.215984 0.193091
C47   C     C_3   0.617371 0.747362 0.683222 -0.368323
C48   C     C_3   0.584770 0.764773 0.812813 -0.840235
H36   H     H_    0.586064 0.841889 0.835455 0.238062
H37   H     H_    0.516135 0.737763 0.818220 0.272385
H38   H     H_    0.628521 0.726972 0.883505 0.248009
H39   H     H_    0.626875 0.671025 0.672676 0.253229
H40   H     H_    0.684716 0.778471 0.679172 0.164707

loop_
_geom_bond_atom_site_label_1
_geom_bond_atom_site_label_2
_ccdc_geom_bond_type
C45   C46   S    
Cu1   Cu2   S    
C19   C23   A    
C48   H36   S    
C44   H26   S    
C48   H38   S    
Cu1   O3    S    
C7    C11   A    
C15   O8    A    
C42   H22   S    
C32   C36   A    
C28   C29   A    
C37   C40   A    
C11   N1    A    
C38   C39   A    
C12   N2    A    
Cu2   O6    S    
C1    O4    A    
C25   C29   A    
C41   C42   S    
C7    H19   S    
C43   H30   S    
C38   H16   S    
C32   H10   S    
C20   C24   A    
C11   C45   S    
C42   H23   S    
C1    O1    A    
C41   H24   S    
C5    C13   A    
Cu1   O7    S    
C9    N1    A    
C45   H34   S    
C27   C30   A    
Cu2   O4    S    
C12   C47   S    
C16   O7    A    
C9    C41   S    
C44   H27   S    
C33   H11   S    
C15   O5    A    
C42   H21   S    
C5    H17   S    
C35   H13   S    
C17   C27   A    
C6    H18   S    
C36   C40   A    
C16   O6    A    
C2    O3    A    
C10   C43   S    
Cu1   O1    S    
C3    C34   A    
C16   C29   S    
C33   C37   A    
C23   H2    S    
C34   C38   A    
C35   C39   A    
C5    C9    A    
C43   H29   S    
C36   H14   S    
C6    C14   A    
C19   H7    S    
C46   H33   S    
C47   H40   S    
C8    C12   A    
Cu2   O8    S    
C41   H25   S    
C18   C28   A    
C3    C31   A    
C4    C32   A    
C46   H32   S    
C34   H12   S    
C21   C23   A    
C22   C24   A    
C3    C4    S    
C44   H28   S    
C15   C30   S    
Cu1   O5    S    
C21   H4    S    
C4    C33   A    
C8    C14   A    
C18   C22   A    
C10   N2    A    
C17   H5    S    
C31   H9    S    
C43   C44   S    
C2    O2    A    
C18   H6    S    
C6    C10   A    
C48   H37   S    
C26   C30   A    
C25   C27   A    
C26   C28   A    
C20   C26   A    
C47   H39   S    
C45   H35   S    
C31   C35   A    
C47   C48   S    
C19   C25   A    
C17   C21   A    
C1    C39   S    
C2    C40   S    
C7    C13   A    
C22   H3    S    
C46   H31   S    
C20   H8    S    
Cu2   O2    S    
C24   H1    S    
Cu1   N2    S    
C13   C14   S    
Cu2   N1    S    
C37   H15   S    
C8    H20   S    
