data_mof_unit_2634.cif
_audit_creation_date              2012-12-10T19:07:34-0500
_audit_creation_method            fapswitch 2.2
_symmetry_space_group_name_H-M    P1
_symmetry_Int_Tables_number       1
_space_group_crystal_system       triclinic
_cell_length_a                    10.79062
_cell_length_b                    10.812429
_cell_length_c                    9.588281
_cell_angle_alpha                 90.294109
_cell_angle_beta                  90.685117
_cell_angle_gamma                 90.900242
_cell_volume                      1118.45782181

loop_
_atom_site_label
_atom_site_type_symbol
_atom_type_description
_atom_site_fract_x
_atom_site_fract_y
_atom_site_fract_z
_atom_type_partial_charge
C1    C     C_R   0.501653 0.262488 0.499831 0.832995
C2    C     C_R   0.938484 0.455385 0.610319 0.042982
C3    C     C_3   0.935144 0.328097 0.671408 -0.002851
C4    C     C_3   0.076189 0.334360 0.673175 -0.456383
C5    C     C_R   0.513721 0.064492 0.625277 0.147379
C6    C     C_R   0.512965 0.129470 0.499807 -0.081636
C7    C     C_R   0.529946 0.064300 0.374531 -0.152312
C8    C     C_R   0.529583 0.935503 0.374723 -0.182218
C9    C     C_R   0.513505 0.870956 0.500359 -0.091155
C10   C     C_R   0.514208 0.937225 0.625594 0.112319
C11   C     C_3   0.427496 0.929786 0.745694 -0.437016
C12   C     C_R   0.262751 0.503995 0.499348 0.836383
C13   C     C_3   0.427059 0.070232 0.745409 -0.458412
C14   C     C_R   0.545675 0.599140 0.075372 0.198152
C15   C     C_R   0.433310 0.413652 0.070631 0.237643
C16   C     C_R   0.435808 0.413011 0.922595 -0.098836
C17   C     C_R   0.548284 0.598436 0.929345 0.228944
C18   C     C_3   0.674877 0.660846 0.932500 -0.109089
C19   C     C_3   0.668260 0.661028 0.091532 -0.478777
C20   C     C_R   0.502000 0.737571 0.500212 0.800432
C21   C     C_R   0.737414 0.500455 0.500585 0.830376
C22   C     C_R   0.065518 0.459927 0.610528 0.060311
C23   C     C_R   0.129692 0.513440 0.500198 -0.112441
C24   C     C_R   0.063008 0.580869 0.398874 0.158688
C25   C     C_R   0.933464 0.577783 0.401081 -0.216323
C26   C     C_R   0.870749 0.508249 0.502245 -0.101851
Cu1   Cu    Cu3+1 0.499990 0.499980 0.640670 0.956375
Cu2   Cu    Cu3+1 0.500010 0.500020 0.359330 0.998971
H1    H     H_    0.472419 0.890763 0.840310 0.193955
H2    H     H_    0.335617 0.109308 0.716328 0.201252
H3    H     H_    0.471920 0.112021 0.839797 0.208545
H4    H     H_    0.384500 0.342709 0.864471 0.154970
H5    H     H_    0.672935 0.755989 0.888920 0.169345
H6    H     H_    0.736138 0.600680 0.144626 0.223387
H7    H     H_    0.661411 0.755367 0.136647 0.172981
H8    H     H_    0.882242 0.628291 0.322946 0.161838
H9    H     H_    0.895360 0.326851 0.777738 0.148805
H10   H     H_    0.116675 0.338522 0.780313 0.194637
H11   H     H_    0.120933 0.267379 0.602038 0.214233
H12   H     H_    0.537685 0.111976 0.275913 0.182303
H13   H     H_    0.535746 0.887222 0.276029 0.161988
H14   H     H_    0.336315 0.887027 0.716649 0.212548
N1    N     N_R   0.500790 0.500930 0.147930 -0.195836
N2    N     N_R   0.500790 0.500890 0.852020 -0.198887
O1    O     O_R   0.500000 0.319640 0.618810 -0.586975
O2    O     O_R   0.500010 0.319680 0.381230 -0.559558
O3    O     O_R   0.319650 0.499970 0.618810 -0.585082
O4    O     O_R   0.319660 0.500010 0.381230 -0.529620
O5    O     O_R   0.499990 0.680320 0.618770 -0.585213
O6    O     O_R   0.500000 0.680360 0.381190 -0.577718
O7    O     O_R   0.680340 0.499990 0.618770 -0.582165
O8    O     O_R   0.680350 0.500030 0.381190 -0.581918
I1    I     I_    0.147507 0.689908 0.241194 -0.346668
I2    I     I_    0.308247 0.281859 0.156086 -0.351701
C27   C     C_3   0.784265 0.585465 0.881147 -0.716944
H15   H     H_    0.810108 0.618077 0.776156 0.236368
H16   H     H_    0.867356 0.602436 0.948573 0.232591
H17   H     H_    0.762279 0.484782 0.880606 0.239785
I3    I     I_    0.862431 0.187475 0.532479 -0.373895

loop_
_geom_bond_atom_site_label_1
_geom_bond_atom_site_label_2
_ccdc_geom_bond_type
C2    C22   A    
C23   C24   A    
C6    C7    A    
C8    C9    A    
C16   H4    S    
C4    C22   S    
C9    C10   A    
C16   N2    A    
C9    C20   S    
C5    C13   S    
C14   C17   A    
C4    H11   S    
C21   O7    A    
C12   O4    A    
Cu2   O2    S    
Cu1   O1    S    
C27   H15   S    
C17   C18   S    
C24   I1    S    
C17   N2    A    
C15   N1    A    
C5    C10   A    
C2    C26   A    
C19   H7    S    
C24   C25   A    
Cu2   O8    S    
C12   C23   S    
C1    O1    A    
C20   O5    A    
C18   C27   S    
C12   O3    A    
Cu1   N2    S    
C21   C26   S    
C4    H10   S    
C2    C3    S    
C27   H16   S    
C5    C6    A    
C18   H5    S    
C1    O2    A    
C7    C8    A    
C10   C11   S    
C25   H8    S    
C1    C6    S    
C15   I2    S    
Cu1   O5    S    
C13   H2    S    
C11   C13   S    
C8    H13   S    
C11   H1    S    
C11   H14   S    
C18   C19   S    
C27   H17   S    
Cu1   O3    S    
Cu1   Cu2   S    
C22   C23   A    
Cu2   O4    S    
C20   O6    A    
Cu2   N1    S    
C25   C26   A    
C7    H12   S    
Cu2   O6    S    
C14   C19   S    
C13   H3    S    
C21   O8    A    
C3    C4    S    
C15   C16   A    
C3    H9    S    
Cu1   O7    S    
C14   N1    A    
C19   H6    S    
C3    I3    S    
