data_mof_unit_2140.cif
_audit_creation_date              2012-12-10T19:47:25-0500
_audit_creation_method            fapswitch 2.2
_symmetry_space_group_name_H-M    P1
_symmetry_Int_Tables_number       1
_space_group_crystal_system       triclinic
_cell_length_a                    14.984452
_cell_length_b                    14.150421
_cell_length_c                    10.701361
_cell_angle_alpha                 92.527635
_cell_angle_beta                  92.780939
_cell_angle_gamma                 89.922689
_cell_volume                      2264.19904969

loop_
_atom_site_label
_atom_site_type_symbol
_atom_type_description
_atom_site_fract_x
_atom_site_fract_y
_atom_site_fract_z
_atom_type_partial_charge
C1    C     C_R   0.327292 0.500024 0.500271 0.996428
C2    C     C_R   0.949979 0.491836 0.437282 -0.060328
C3    C     C_R   0.428825 0.103520 0.443891 -0.457446
C4    C     C_R   0.570664 0.107605 0.559117 -0.446761
C5    C     C_R   0.431400 0.203492 0.438774 0.539019
C6    C     C_R   0.567221 0.207829 0.564374 0.513351
C7    C     C_R   0.500261 0.053605 0.500570 0.130871
C8    C     C_R   0.551321 0.897370 0.590078 -0.422116
C9    C     C_R   0.451173 0.891570 0.407484 -0.419985
C10   C     C_R   0.553667 0.797142 0.586320 0.560034
C11   C     C_R   0.449413 0.791209 0.410188 0.556482
C12   C     C_R   0.672150 0.499424 0.490180 0.932978
C13   C     C_R   0.501196 0.946304 0.499035 0.118847
C14   C     C_R   0.511026 0.497995 0.261097 0.897907
C15   C     C_R   0.493074 0.502648 0.740548 0.915482
C16   C     C_R   0.596556 0.652855 0.136462 -0.258623
C17   C     C_R   0.514247 0.682685 0.904106 -0.190199
C18   C     C_R   0.602381 0.741956 0.086164 0.363355
C19   C     C_R   0.554391 0.758604 0.973196 0.389659
C20   C     C_R   0.518136 0.589618 0.947536 -0.050338
C21   C     C_R   0.548641 0.578189 0.071180 -0.040429
C22   C     C_R   0.526235 0.494078 0.128290 -0.292758
C23   C     C_R   0.230380 0.498931 0.490484 -0.327928
C24   C     C_R   0.487332 0.508459 0.875468 -0.242049
C25   C     C_R   0.496265 0.413547 0.056107 0.353091
C26   C     C_R   0.468070 0.423783 0.931835 0.358851
C27   C     C_R   0.094271 0.558715 0.395090 -0.398889
C28   C     C_R   0.908962 0.576705 0.471122 -0.402712
C29   C     C_R   0.184685 0.569350 0.423889 0.461006
C30   C     C_R   0.817087 0.581695 0.474829 0.464601
C31   C     C_3   0.577352 0.288090 0.120716 0.114756
C32   C     C_3   0.573885 0.188644 0.168172 -0.811178
C33   C     C_3   0.426536 0.275540 0.842612 0.249164
C34   C     C_R   0.766802 0.497472 0.462213 -0.334870
C35   C     C_3   0.352905 0.206664 0.869732 -0.882026
C36   C     C_3   0.686437 0.787156 0.709816 0.168495
C37   C     C_3   0.743759 0.715266 0.779169 -0.774034
C38   C     C_3   0.374418 0.771501 0.212962 0.106998
C39   C     C_3   0.332665 0.695184 0.123962 -0.743465
C40   C     C_3   0.724053 0.839098 0.103728 0.110153
C41   C     C_3   0.762890 0.927280 0.172349 -0.864005
C42   C     C_3   0.490118 0.904351 0.981216 0.104841
C43   C     C_3   0.483821 0.997518 0.916682 -0.888027
C44   C     C_3   0.206603 0.727292 0.455297 -0.236763
C45   C     C_R   0.183409 0.424182 0.540811 0.321441
C46   C     C_3   0.787709 0.726596 0.396981 -0.302541
C47   C     C_3   0.211374 0.266699 0.578086 -0.123683
C48   C     C_3   0.781226 0.251355 0.429060 -0.129407
C49   C     C_3   0.021556 0.396786 0.706434 0.102284
C50   C     C_3   0.974511 0.322649 0.778094 -0.862728
C51   C     C_3   0.947503 0.342101 0.219367 0.089281
C52   C     C_3   0.993206 0.254890 0.164267 -0.848400
C53   C     C_3   0.323144 0.210104 0.273600 0.075109
C54   C     C_3   0.271120 0.283126 0.199279 -0.748397
C55   C     C_3   0.670753 0.226282 0.734744 0.060980
C56   C     C_R   0.806885 0.412302 0.417128 0.325746
C57   C     C_3   0.713295 0.306558 0.816024 -0.853304
C58   C     C_R   0.089726 0.422743 0.525984 0.416906
C59   C     C_R   0.899288 0.411921 0.398720 0.441230
C60   C     C_R   0.046565 0.487713 0.447954 -0.030995
H1    H     H_    0.586113 0.936810 0.665836 0.163989
H2    H     H_    0.609530 0.283677 0.029264 0.102511
H3    H     H_    0.524287 0.145413 0.110855 0.242233
H4    H     H_    0.640613 0.154920 0.162669 0.203658
H5    H     H_    0.555462 0.191283 0.266981 0.250687
H6    H     H_    0.490231 0.252701 0.888828 0.119961
H7    H     H_    0.434509 0.271102 0.740191 0.163456
H8    H     H_    0.286574 0.235307 0.840010 0.278870
H9    H     H_    0.362649 0.138484 0.816978 0.198634
H10   H     H_    0.353936 0.194670 0.971483 0.256356
H11   H     H_    0.679022 0.849555 0.774753 0.142843
H12   H     H_    0.413414 0.927032 0.335348 0.129777
H13   H     H_    0.721893 0.809475 0.627186 0.150897
H14   H     H_    0.746185 0.647180 0.724152 0.287794
H15   H     H_    0.812683 0.743063 0.796592 0.184247
H16   H     H_    0.715502 0.701201 0.870297 0.212203
H17   H     H_    0.436543 0.796026 0.172835 0.116232
H18   H     H_    0.325310 0.830186 0.220233 0.107921
H19   H     H_    0.264337 0.678194 0.151647 0.271017
H20   H     H_    0.328165 0.720563 0.027150 0.169952
H21   H     H_    0.373533 0.629914 0.125289 0.269663
H22   H     H_    0.713969 0.855403 0.003374 0.174603
H23   H     H_    0.629271 0.642570 0.227191 0.180093
H24   H     H_    0.773116 0.780342 0.112330 0.116002
H25   H     H_    0.776043 0.914435 0.273092 0.243619
H26   H     H_    0.826632 0.946715 0.131289 0.202235
H27   H     H_    0.715218 0.987045 0.163297 0.260721
H28   H     H_    0.510663 0.920091 0.081288 0.178715
H29   H     H_    0.422717 0.870772 0.973575 0.116601
H30   H     H_    0.459253 0.985504 0.817683 0.263677
H31   H     H_    0.436357 0.044063 0.966301 0.207103
H32   H     H_    0.550313 0.032394 0.919439 0.255640
H33   H     H_    0.242710 0.789257 0.422955 0.187225
H34   H     H_    0.475236 0.700009 0.820985 0.207472
H35   H     H_    0.227416 0.718964 0.555523 0.146667
H36   H     H_    0.134059 0.743829 0.445658 0.120634
H37   H     H_    0.735874 0.782540 0.399649 0.206010
H38   H     H_    0.778829 0.687522 0.304519 0.152302
H39   H     H_    0.854152 0.761635 0.405497 0.149366
H40   H     H_    0.272676 0.224482 0.596087 0.160948
H41   H     H_    0.192172 0.256906 0.476400 0.155311
H42   H     H_    0.158767 0.237308 0.634683 0.172764
H43   H     H_    0.722835 0.203629 0.430366 0.166033
H44   H     H_    0.808973 0.262156 0.527150 0.160119
H45   H     H_    0.060135 0.609617 0.336894 0.182582
H46   H     H_    0.829562 0.213534 0.369703 0.181430
H47   H     H_    0.976545 0.459088 0.697860 0.136023
H48   H     H_    0.083807 0.418424 0.761533 0.161722
H49   H     H_    0.020447 0.262666 0.796619 0.249854
H50   H     H_    0.953295 0.354295 0.868705 0.204174
H51   H     H_    0.914725 0.295645 0.722527 0.256726
H52   H     H_    0.988183 0.405237 0.200152 0.141256
H53   H     H_    0.879953 0.348025 0.171949 0.143570
H54   H     H_    0.952860 0.190829 0.178621 0.249109
H55   H     H_    0.000311 0.261983 0.062355 0.209112
H56   H     H_    0.948411 0.639380 0.496686 0.184333
H57   H     H_    0.060596 0.246762 0.210434 0.257507
H58   H     H_    0.274634 0.156117 0.300361 0.108674
H59   H     H_    0.373677 0.176865 0.212603 0.160416
H60   H     H_    0.317233 0.337457 0.167436 0.297743
H61   H     H_    0.235699 0.248083 0.116291 0.194555
H62   H     H_    0.221063 0.318593 0.258567 0.231958
H63   H     H_    0.723982 0.174623 0.711206 0.133421
H64   H     H_    0.619561 0.191740 0.789552 0.118291
H65   H     H_    0.661282 0.358097 0.844452 0.240571
H66   H     H_    0.747115 0.278112 0.901019 0.202083
H67   H     H_    0.370773 0.065371 0.405884 0.143104
H68   H     H_    0.763188 0.343969 0.762833 0.258669
H69   H     H_    0.628745 0.072552 0.598600 0.142722
H70   H     H_    0.620442 0.331985 0.188058 0.189875
N1    N     N_R   0.500000 0.252470 0.500000 -0.157511
N2    N     N_R   0.500000 0.747550 0.500000 -0.162175
O1    O     O_R   0.369060 0.579480 0.500010 -0.574628
O2    O     O_3   0.399000 0.367965 0.877966 -0.584522
O3    O     O_3   0.602461 0.746022 0.674364 -0.566018
O4    O     O_3   0.393578 0.733899 0.331199 -0.535412
O5    O     O_3   0.643288 0.815098 0.157248 -0.624281
O6    O     O_3   0.553649 0.846665 0.922425 -0.618199
O7    O     O_3   0.228883 0.646318 0.381192 -0.551186
O8    O     O_3   0.776775 0.668057 0.498572 -0.590431
O9    O     O_3   0.229297 0.361751 0.617520 -0.584464
O10   O     O_3   0.752880 0.336340 0.375100 -0.616882
O11   O     O_3   0.040563 0.357832 0.586950 -0.587013
O12   O     O_R   0.630940 0.579480 0.499990 -0.566219
O13   O     O_3   0.940981 0.332518 0.349289 -0.586994
O14   O     O_3   0.363554 0.255886 0.381725 -0.569199
O15   O     O_3   0.633495 0.264267 0.624212 -0.569384
O16   O     O_R   0.369050 0.420520 0.500010 -0.538525
O17   O     O_R   0.630950 0.420520 0.499990 -0.534349
O18   O     O_R   0.500000 0.579490 0.316770 -0.588337
O19   O     O_R   0.500000 0.579490 0.683230 -0.612517
O20   O     O_R   0.499990 0.420540 0.316770 -0.564554
O21   O     O_R   0.500010 0.420540 0.683230 -0.608310
O22   O     O_3   0.489855 0.325942 0.107843 -0.588799
Zn1   Zn    Zn3+2 0.500000 0.606140 0.500000 1.039672
Zn2   Zn    Zn3+2 0.500000 0.393860 0.500000 1.059029

loop_
_geom_bond_atom_site_label_1
_geom_bond_atom_site_label_2
_ccdc_geom_bond_type
C37   H14   S    
C34   C56   A    
C51   H52   S    
C23   C45   A    
C54   H60   S    
C27   C29   A    
C40   H24   S    
C9    H12   S    
C46   H39   S    
C11   N2    A    
N2    Zn1   S    
C57   H68   S    
C15   O19   A    
C49   H47   S    
C53   C54   S    
C46   H38   S    
C41   H26   S    
C51   H53   S    
C44   H36   S    
C23   C29   A    
N1    Zn2   S    
O17   Zn2   S    
C24   C26   A    
C31   H70   S    
C3    C7    A    
C27   C60   A    
C57   H65   S    
C38   C39   S    
C3    H67   S    
C42   O6    S    
C27   H45   S    
C58   C60   A    
C48   H44   S    
C50   H50   S    
C17   C20   A    
C18   C19   A    
C9    C13   A    
C50   H51   S    
C44   H33   S    
C28   H56   S    
C17   C19   A    
C58   O11   S    
C48   H46   S    
O20   Zn2   S    
C35   H10   S    
C22   C25   A    
C36   C37   S    
C38   O4    S    
C36   H11   S    
C8    H1    S    
C56   O10   S    
C52   H57   S    
C37   H15   S    
C47   H42   S    
O1    Zn1   S    
C21   C22   A    
C45   O9    S    
C31   H2    S    
C4    C7    A    
C29   O7    S    
C33   O2    S    
C33   H6    S    
C49   H48   S    
C41   H27   S    
C55   H63   S    
C45   C58   A    
C1    O1    A    
C43   H30   S    
C30   O8    S    
C30   C34   A    
C51   C52   S    
C40   H22   S    
C10   O3    S    
C32   H4    S    
C4    C6    A    
C57   H66   S    
C2    C59   A    
C38   H18   S    
C25   C26   A    
C48   H43   S    
C16   H23   S    
C43   H31   S    
C47   H40   S    
C12   O12   A    
C39   H19   S    
C18   O5    S    
C26   O2    S    
C55   O15   S    
C31   C32   S    
C7    C13   S    
C40   O5    S    
C14   O18   A    
C48   O10   S    
O21   Zn2   S    
C9    C11   A    
C39   H21   S    
C37   H16   S    
C59   O13   S    
C16   C18   A    
C15   C24   S    
C54   H61   S    
C1    C23   S    
C44   O7    S    
O19   Zn1   S    
O18   Zn1   S    
C55   C57   S    
C42   H28   S    
C42   C43   S    
C12   C34   S    
C36   O3    S    
C31   O22   S    
C33   H7    S    
C46   O8    S    
C52   H55   S    
C55   H64   S    
C40   C41   S    
C5    O14   S    
C25   O22   S    
C53   H58   S    
C12   O17   A    
C46   H37   S    
C32   H3    S    
C6    N1    A    
C3    C5    A    
C53   H59   S    
C16   C21   A    
C4    H69   S    
C38   H17   S    
C52   H54   S    
C41   H25   S    
C47   O9    S    
C43   H32   S    
C56   C59   A    
C42   H29   S    
C39   H20   S    
C14   C22   S    
O12   Zn1   S    
C28   C30   A    
C44   H35   S    
C11   O4    S    
C6    O15   S    
C35   H8    S    
C19   O6    S    
C49   O11   S    
C53   O14   S    
C33   C35   S    
C2    C60   S    
C47   H41   S    
C50   H49   S    
C54   H62   S    
C10   N2    A    
C15   O21   A    
C36   H13   S    
C8    C13   A    
C5    N1    A    
C20   C21   A    
C35   H9    S    
C8    C10   A    
C49   C50   S    
C14   O20   A    
C51   O13   S    
C1    O16   A    
C2    C28   A    
C17   H34   S    
O16   Zn2   S    
C20   C24   A    
C32   H5    S    
