data_mof_unit_270.cif
_audit_creation_date              2012-12-10T17:46:22-0500
_audit_creation_method            fapswitch 2.2
_symmetry_space_group_name_H-M    P1
_symmetry_Int_Tables_number       1
_space_group_crystal_system       triclinic
_cell_length_a                    14.11092
_cell_length_b                    10.659829
_cell_length_c                    10.011047
_cell_angle_alpha                 91.281579
_cell_angle_beta                  91.818898
_cell_angle_gamma                 91.529252
_cell_volume                      1504.16071014

loop_
_atom_site_label
_atom_site_type_symbol
_atom_type_description
_atom_site_fract_x
_atom_site_fract_y
_atom_site_fract_z
_atom_type_partial_charge
C1    C     C_R   0.512713 0.262110 0.499420 0.963729
C2    C     C_R   0.543024 0.062793 0.381511 -0.283461
C3    C     C_R   0.551217 0.934455 0.390106 0.480726
C4    C     C_R   0.329566 0.501701 0.498619 0.912524
C5    C     C_R   0.527999 0.876580 0.510445 -0.206217
C6    C     C_R   0.394265 0.306424 0.121996 0.462562
C7    C     C_R   0.374499 0.195218 0.046356 0.358641
C8    C     C_R   0.367906 0.204601 0.908010 -0.413442
C9    C     C_R   0.396201 0.315015 0.848936 -0.216464
C10   C     C_R   0.448079 0.409069 0.922331 0.094400
C11   C     C_R   0.448133 0.407071 0.066082 -0.064636
C12   C     C_1   0.772210 0.506724 0.504384 -0.141061
C13   C     C_R   0.553465 0.582766 0.075545 -0.069845
C14   C     C_R   0.554372 0.581757 0.933359 -0.098655
C15   C     C_R   0.506115 0.741358 0.503089 0.857081
C16   C     C_R   0.670521 0.503031 0.501613 0.897411
C17   C     C_1   0.228093 0.506430 0.497084 -0.223652
C18   C     C_1   0.142813 0.509297 0.498368 -0.018352
C19   C     C_1   0.042917 0.510826 0.500745 0.004418
C20   C     C_1   0.957583 0.510709 0.502660 0.010890
C21   C     C_1   0.857614 0.509114 0.504303 0.007905
C22   C     C_3   0.645219 0.223711 0.018569 0.147119
C23   C     C_R   0.625892 0.138392 0.722223 0.262737
C24   C     C_3   0.706255 0.281785 0.133876 -0.361710
C25   C     C_3   0.784665 0.368761 0.084364 -0.737735
C26   C     C_3   0.685323 0.835089 0.327442 0.189209
C27   C     C_3   0.756648 0.946094 0.322017 -0.364660
C28   C     C_3   0.857305 0.905158 0.355276 -0.917728
C29   C     C_3   0.246263 0.331356 0.208617 0.126400
C30   C     C_3   0.220764 0.454606 0.140329 -0.412308
C31   C     C_3   0.113698 0.464247 0.118634 -0.928733
C32   C     C_3   0.376630 0.978694 0.068790 0.109969
C33   C     C_3   0.297733 0.881452 0.033443 -0.358452
C34   C     C_R   0.639210 0.082683 0.845977 0.424707
C35   C     C_3   0.337476 0.752493 0.003635 -0.901313
C36   C     C_R   0.600104 0.963740 0.864789 0.258464
C37   C     C_R   0.550898 0.898716 0.761312 -0.320541
C38   C     C_R   0.545003 0.948483 0.631914 -0.029411
C39   C     C_R   0.569392 0.076357 0.620042 -0.061082
C40   C     C_R   0.542817 0.133453 0.499777 -0.143960
Cl1   Cl    Cl    0.704370 0.262511 0.686104 -0.617784
Cl2   Cl    Cl    0.624654 0.887045 0.012129 -0.683084
H1    H     H_    0.543100 0.106715 0.285083 0.176896
H2    H     H_    0.738151 0.206629 0.194071 0.224663
H3    H     H_    0.833063 0.315765 0.019970 0.297413
H4    H     H_    0.826437 0.409905 0.171279 0.225089
H5    H     H_    0.753599 0.446369 0.026720 0.248007
H6    H     H_    0.708292 0.760701 0.257371 0.170350
H7    H     H_    0.688695 0.792947 0.428248 0.081223
H8    H     H_    0.754492 0.985394 0.220314 0.280119
H9    H     H_    0.738197 0.020941 0.394887 0.225597
H10   H     H_    0.861626 0.866852 0.457530 0.266969
H11   H     H_    0.907198 0.987191 0.350958 0.273946
H12   H     H_    0.334505 0.129698 0.846960 0.192578
H13   H     H_    0.878941 0.832312 0.282103 0.266433
H14   H     H_    0.209430 0.326134 0.304487 0.156656
H15   H     H_    0.216471 0.250282 0.147891 0.172949
H16   H     H_    0.247757 0.536432 0.202026 0.250772
H17   H     H_    0.253677 0.458772 0.041230 0.216505
H18   H     H_    0.085609 0.385950 0.052420 0.271035
H19   H     H_    0.097623 0.554467 0.070591 0.270836
H20   H     H_    0.077664 0.460963 0.215451 0.268570
H21   H     H_    0.420038 0.944723 0.154328 0.209190
H22   H     H_    0.424263 0.986741 0.982656 0.149478
H23   H     H_    0.376228 0.323423 0.746145 0.236069
H24   H     H_    0.249079 0.873915 0.118273 0.236816
H25   H     H_    0.256380 0.912497 0.944388 0.221920
H26   H     H_    0.386502 0.757223 0.919333 0.272064
H27   H     H_    0.278397 0.685329 0.975412 0.256584
H28   H     H_    0.375719 0.717615 0.093484 0.282482
H29   H     H_    0.600906 0.646674 0.884186 0.181044
H30   H     H_    0.521947 0.809378 0.786952 0.222529
H31   H     H_    0.597588 0.649959 0.131870 0.202503
H32   H     H_    0.583052 0.174881 0.062162 0.082958
H33   H     H_    0.619642 0.300251 0.954218 0.158854
H34   H     H_    0.660191 0.336579 0.199793 0.205265
N1    N     N_R   0.499190 0.498800 0.142780 -0.110452
N2    N     N_R   0.499160 0.498720 0.857170 -0.098681
O1    O     O_R   0.500000 0.316780 0.614690 -0.617437
O2    O     O_3   0.591955 0.869395 0.286984 -0.597908
O3    O     O_3   0.345593 0.322908 0.237711 -0.580308
O4    O     O_3   0.335267 0.092375 0.109376 -0.646609
O5    O     O_R   0.499990 0.316750 0.385360 -0.589455
O6    O     O_R   0.373720 0.500010 0.614690 -0.620171
O7    O     O_R   0.373710 0.499990 0.385360 -0.542737
O8    O     O_R   0.500010 0.683250 0.614640 -0.634281
O9    O     O_R   0.500000 0.683220 0.385310 -0.576815
O10   O     O_R   0.626290 0.500010 0.614640 -0.546513
O11   O     O_R   0.626280 0.499990 0.385310 -0.643696
O12   O     O_3   0.698538 0.138360 0.944129 -0.553734
Zn1   Zn    Zn3+2 0.500010 0.500020 0.653130 0.951860
Zn2   Zn    Zn3+2 0.499990 0.499980 0.346870 0.957968

loop_
_geom_bond_atom_site_label_1
_geom_bond_atom_site_label_2
_ccdc_geom_bond_type
N1    Zn2   S    
C14   H29   S    
C31   H19   S    
C36   Cl2   S    
C19   C20   T    
C10   N2    A    
C7    C8    A    
O5    Zn2   S    
C26   C27   S    
C29   C30   S    
C36   C37   A    
O8    Zn1   S    
C38   C39   A    
C23   C39   A    
C18   C19   S    
C11   N1    A    
C1    C40   S    
C28   H13   S    
C12   C16   S    
C35   H28   S    
C8    C9    A    
O6    Zn1   S    
C9    C10   A    
C25   H5    S    
O1    Zn1   S    
C27   H8    S    
C26   H6    S    
C16   O11   A    
C6    O3    S    
C13   C14   A    
C31   H20   S    
C22   H33   S    
C3    O2    S    
O7    Zn2   S    
C27   H9    S    
C33   H24   S    
C13   N1    A    
C24   C25   S    
C32   H22   S    
C26   H7    S    
C8    H12   S    
C39   C40   A    
C24   H34   S    
C4    O7    A    
C12   C21   T    
C26   O2    S    
C31   H18   S    
C34   O12   S    
C29   O3    S    
C37   C38   A    
C4    O6    A    
O10   Zn1   S    
C2    H1    S    
C23   C34   A    
C30   H17   S    
C17   C18   T    
C22   O12   S    
O11   Zn2   S    
C15   O8    A    
C4    C17   S    
C29   H15   S    
C1    O1    A    
C22   C24   S    
C22   H32   S    
C25   H3    S    
C6    C11   A    
O9    Zn2   S    
C33   H25   S    
C15   O9    A    
C32   H21   S    
C13   H31   S    
C3    C5    A    
C28   H11   S    
C6    C7    A    
C29   H14   S    
N2    Zn1   S    
C1    O5    A    
C32   O4    S    
C23   Cl1   S    
C32   C33   S    
C2    C3    A    
C28   H10   S    
C30   C31   S    
C35   H26   S    
C24   H2    S    
C30   H16   S    
C33   C35   S    
C34   C36   A    
C14   N2    A    
C9    H23   S    
C5    C15   S    
C10   C11   A    
C2    C40   A    
C7    O4    S    
C20   C21   S    
C35   H27   S    
C37   H30   S    
C27   C28   S    
C16   O10   A    
C5    C38   A    
C25   H4    S    
