data_mof_unit_4519.cif
_audit_creation_date              2012-12-11T15:29:30-0500
_audit_creation_method            fapswitch 2.2
_symmetry_space_group_name_H-M    P1
_symmetry_Int_Tables_number       1
_space_group_crystal_system       triclinic
_cell_length_a                    13.485696
_cell_length_b                    13.503864
_cell_length_c                    27.562008
_cell_angle_alpha                 90.574992
_cell_angle_beta                  89.996843
_cell_angle_gamma                 60.024158
_cell_volume                      4347.59689785

loop_
_atom_site_label
_atom_site_type_symbol
_atom_type_description
_atom_site_fract_x
_atom_site_fract_y
_atom_site_fract_z
_atom_type_partial_charge
C1    C     C_R   0.620359 0.101225 0.569868 0.546476
C2    C     C_1   0.631323 0.731637 0.615876 -0.014133
C3    C     C_3   0.699414 0.560827 0.766952 -0.101482
C4    C     C_3   0.679669 0.654364 0.804370 0.052645
C5    C     C_3   0.590208 0.648377 0.740006 -0.099100
C6    C     C_3   0.663736 0.682891 0.709916 0.052698
C7    C     C_3   0.570680 0.741448 0.778153 -0.102108
C8    C     C_3   0.644009 0.776439 0.747325 -0.103238
C9    C     C_1   0.688441 0.633576 0.856582 -0.059182
C10   C     C_1   0.649782 0.704300 0.657769 -0.057874
C11   C     C_3   0.090731 0.133000 0.737352 -0.101529
C12   C     C_R   0.599773 0.779221 0.568434 0.548528
C13   C     C_3   0.182879 0.059360 0.775199 -0.100377
C14   C     C_1   0.097880 0.199941 0.900295 -0.016137
C15   C     C_1   0.229429 0.137818 0.617046 -0.014325
C16   C     C_3   0.055508 0.241283 0.768912 -0.101394
C17   C     C_3   0.148090 0.167473 0.805901 0.052649
C18   C     C_3   0.144155 0.262168 0.742106 -0.098903
C19   C     C_3   0.178980 0.154173 0.711322 0.052589
C20   C     C_3   0.236263 0.188621 0.779801 -0.101946
C21   C     C_3   0.271591 0.080318 0.748287 -0.103221
C22   C     C_1   0.125691 0.180692 0.858212 -0.058818
C23   C     C_R   0.277684 0.121698 0.569355 0.546618
C24   C     C_1   0.201450 0.146648 0.659065 -0.058024
C25   C     C_3   0.628844 0.276739 0.738976 -0.101405
C26   C     C_3   0.554879 0.258042 0.776871 -0.100016
C27   C     C_1   0.691530 0.206614 0.901408 -0.015861
C28   C     C_1   0.635611 0.133376 0.617785 -0.014844
C29   C     C_3   0.736918 0.204247 0.769909 -0.101446
C30   C     C_3   0.662795 0.185278 0.806965 0.052736
C31   C     C_3   0.758725 0.094530 0.742459 -0.099155
C32   C     C_3   0.650902 0.167169 0.712299 0.052566
C33   C     C_3   0.684844 0.075779 0.780234 -0.102086
C34   C     C_R   0.622071 0.100270 0.431587 0.540839
C35   C     C_3   0.576743 0.148204 0.749330 -0.103210
C36   C     C_1   0.674488 0.195741 0.859311 -0.058617
C37   C     C_1   0.643942 0.152335 0.659940 -0.058180
C38   C     C_R   0.639615 0.724500 0.382478 0.033529
C39   C     C_R   0.719879 0.742193 0.357240 -0.081842
C40   C     C_R   0.731662 0.725979 0.307539 -0.080183
C41   C     C_R   0.666578 0.687765 0.282523 0.064042
C42   C     C_R   0.595137 0.658656 0.308411 -0.094664
C43   C     C_R   0.580744 0.678116 0.358188 -0.118949
C44   C     C_R   0.573898 0.706100 0.202572 -0.131337
C45   C     C_R   0.601927 0.777132 0.430335 0.538354
C46   C     C_R   0.583054 0.682018 0.153167 -0.130121
C47   C     C_R   0.785871 0.619293 0.156220 -0.117851
C48   C     C_R   0.777102 0.641344 0.205602 -0.082674
C49   C     C_R   0.672251 0.679665 0.229510 0.038723
C50   C     C_R   0.690439 0.632643 0.130364 0.020078
C51   C     C_R   0.224797 0.137307 0.383908 -0.023565
C52   C     C_R   0.264414 0.043676 0.352012 -0.142405
C53   C     C_R   0.233055 0.060612 0.303735 -0.179719
C54   C     C_R   0.159264 0.170892 0.286806 0.011499
C55   C     C_R   0.110143 0.264773 0.319714 0.284414
C56   C     C_R   0.278944 0.120054 0.431135 0.545326
C57   C     C_R   0.146403 0.247198 0.367984 -0.100954
C58   C     C_R   0.099019 0.119550 0.210591 -0.110934
C59   C     C_R   0.078577 0.132063 0.161146 -0.123820
C60   C     C_R   0.143498 0.270388 0.158640 -0.121312
C61   C     C_R   0.166306 0.255779 0.208131 -0.059028
C62   C     C_R   0.139480 0.183975 0.234534 0.073157
C63   C     C_R   0.096499 0.210829 0.135093 0.020753
C64   C     C_R   0.641706 0.139779 0.385239 0.021909
C65   C     C_R   0.549600 0.232507 0.362244 -0.120431
C66   C     C_R   0.557273 0.253011 0.313570 -0.118221
C67   C     C_3   0.772821 0.595739 0.736072 -0.101160
C68   C     C_R   0.657815 0.182429 0.287402 0.038695
C69   C     C_R   0.753470 0.096350 0.311475 -0.112121
C70   C     C_R   0.745327 0.074734 0.360101 -0.126060
C71   C     C_R   0.717071 0.098211 0.204531 -0.121277
C72   C     C_R   0.728562 0.110241 0.155177 -0.128510
C73   C     C_R   0.619315 0.316591 0.164938 -0.120222
C74   C     C_R   0.609529 0.304587 0.214381 -0.108972
C75   C     C_R   0.661225 0.195357 0.234739 0.037651
C76   C     C_R   0.682794 0.219537 0.135412 0.023754
C77   C     C_R   0.049963 0.234799 0.947994 0.545157
C78   C     C_3   0.753323 0.688853 0.774354 -0.100299
C79   C     C_R   0.711993 0.561854 0.946420 0.544544
C80   C     C_R   0.722569 0.224070 0.949122 0.544930
C81   C     C_R   0.046612 0.244387 0.086741 0.545439
C82   C     C_R   0.708893 0.572859 0.084078 0.543493
C83   C     C_R   0.719804 0.233495 0.087507 0.542339
C84   C     C_1   0.697412 0.607393 0.898628 -0.016312
Cr1   Cr    Cr6+3 0.417550 0.169090 0.500530 1.028946
Cr2   Cr    Cr6+3 0.669180 0.913420 0.499920 1.029030
Cr3   Cr    Cr6+3 0.413260 0.917540 0.499520 1.026972
Cr4   Cr    Cr6+3 0.909770 0.175810 0.018240 1.021487
Cr5   Cr    Cr6+3 0.913300 0.427650 0.016090 1.023589
Cr6   Cr    Cr6+3 0.657770 0.431010 0.016900 1.022631
H1    H     H_    0.819982 0.705932 0.789119 0.104227
H2    H     H_    0.296316 0.211047 0.797690 0.103251
H3    H     H_    0.127762 0.345681 0.727958 0.104833
H4    H     H_    0.966263 0.307850 0.777992 0.099419
H5    H     H_    0.470991 0.324895 0.791625 0.104447
H6    H     H_    0.510573 0.125074 0.740244 0.100408
H7    H     H_    0.707430 0.993380 0.797627 0.103235
H8    H     H_    0.842684 0.027645 0.727766 0.104671
H9    H     H_    0.803171 0.227284 0.778962 0.099452
H10   H     H_    0.766721 0.777998 0.375025 0.133779
H11   H     H_    0.855622 0.535639 0.718271 0.104040
H12   H     H_    0.491017 0.740554 0.220023 0.097545
H13   H     H_    0.507954 0.694752 0.133619 0.126462
H14   H     H_    0.787204 0.749273 0.288568 0.081222
H15   H     H_    0.854179 0.620980 0.225335 0.147145
H16   H     H_    0.869775 0.581865 0.139428 0.139688
H17   H     H_    0.547461 0.624651 0.289981 0.103531
H18   H     H_    0.519259 0.662917 0.377094 0.125474
H19   H     H_    0.326087 0.958120 0.363543 0.145678
H20   H     H_    0.080199 0.062013 0.230486 0.108781
H21   H     H_    0.621150 0.865469 0.738611 0.100583
H22   H     H_    0.270305 0.987822 0.279033 0.114788
H23   H     H_    0.202474 0.302119 0.226032 0.158820
H24   H     H_    0.158495 0.331125 0.139276 0.126280
H25   H     H_    0.114887 0.319075 0.393041 0.161802
H26   H     H_    0.754395 0.012996 0.219265 0.102122
H27   H     H_    0.777569 0.034401 0.132898 0.122843
H28   H     H_    0.482323 0.319921 0.295859 0.110961
H29   H     H_    0.566363 0.380799 0.236933 0.110188
H30   H     H_    0.487817 0.801546 0.795916 0.103215
H31   H     H_    0.584587 0.401964 0.150610 0.136401
H32   H     H_    0.833231 0.043234 0.292269 0.106443
H33   H     H_    0.817907 0.003493 0.377172 0.128922
H34   H     H_    0.523503 0.631269 0.725310 0.104793
H35   H     H_    0.722185 0.471820 0.775659 0.098896
H36   H     H_    0.199229 0.975933 0.789424 0.104243
H37   H     H_    0.030675 0.110648 0.719419 0.103674
H38   H     H_    0.360851 0.013843 0.739173 0.100486
O1    O     O_R   0.301780 0.195490 0.553940 -0.505762
O2    O     O_R   0.658840 0.818280 0.449970 -0.503906
O3    O     O_R   0.503160 0.801780 0.445740 -0.522586
O4    O     O_R   0.319320 0.022190 0.450230 -0.500303
O5    O     O_3   0.499990 0.000010 0.499990 -0.249408
O6    O     O_R   0.819250 0.149410 0.965240 -0.507571
O7    O     O_R   0.006940 0.180310 0.968270 -0.494645
O8    O     O_R   0.028420 0.332670 0.963010 -0.507194
O9    O     O_R   0.810130 0.520390 0.966030 -0.495416
O10   O     O_R   0.636050 0.541380 0.962520 -0.507532
O11   O     O_R   0.666480 0.323610 0.968170 -0.494282
O12   O     O_R   0.522450 0.158840 0.550250 -0.494064
O13   O     O_R   0.817280 0.156800 0.072180 -0.519889
O14   O     O_R   0.005110 0.187160 0.067410 -0.505560
O15   O     O_R   0.026450 0.340060 0.069950 -0.517258
O16   O     O_R   0.808300 0.527240 0.065170 -0.504400
O17   O     O_R   0.634070 0.548770 0.069460 -0.521802
O18   O     O_R   0.664650 0.330470 0.067300 -0.503582
O19   O     O_3   0.826940 0.344820 0.017080 -0.244372
O20   O     O_R   0.694460 0.003360 0.553820 -0.505729
O21   O     O_R   0.657750 0.819520 0.549120 -0.492327
O22   O     O_R   0.501990 0.803120 0.552700 -0.505697
O23   O     O_R   0.318230 0.023430 0.549370 -0.493880
O24   O     O_R   0.302950 0.194150 0.446980 -0.514048
O25   O     O_R   0.523540 0.157600 0.451100 -0.503742
O26   O     O_R   0.695630 0.002030 0.446860 -0.521802
H39   H     H_    0.606325 0.359078 0.721545 0.103308
H40   H     H_    0.042030 0.085079 0.144077 0.136338
S1    S     S_3+6 0.002636 0.403593 0.302694 -0.027909
O27   O     O_2   0.930232 0.397245 0.262675 -0.275481
O28   O     O_2   0.927533 0.464281 0.345826 -0.303313
O29   O     O_3   0.065466 0.477084 0.283683 -0.568445
H41   H     H_    0.006892 0.558655 0.288232 0.350696
H42   H     H_    0.468590 0.284430 0.380773 0.139588

loop_
_geom_bond_atom_site_label_1
_geom_bond_atom_site_label_2
_ccdc_geom_bond_type
C44   C49   A    
C58   C62   A    
C66   C68   A    
S1    O27   D    
C25   H39   S    
C41   C42   A    
Cr3   O5    S    
C60   H24   S    
C72   C76   A    
C2    C12   S    
Cr6   O11   S    
C6    C67   S    
C7    C8    S    
C57   H25   S    
C35   H6    S    
C68   C75   S    
C74   H29   S    
C20   H2    S    
C5    H34   S    
C11   C19   S    
Cr6   O19   S    
C63   C81   S    
C60   C63   A    
C52   H19   S    
C19   C21   S    
C18   C19   S    
Cr6   O17   S    
C5    C6    S    
C31   H8    S    
C17   C20   S    
C80   O6    A    
C23   O1    A    
C51   C56   S    
C73   C74   A    
C14   C77   S    
Cr3   O3    S    
C38   C45   S    
Cr1   O1    S    
C68   C69   A    
C70   H33   S    
C41   C49   S    
C47   C48   A    
C28   C37   T    
C16   C17   S    
Cr3   O22   S    
C72   H27   S    
C1    C28   S    
C31   C33   S    
C51   C57   A    
C77   O8    A    
C64   C70   A    
C56   O24   A    
C42   H17   S    
C18   C20   S    
C25   C32   S    
C15   C23   S    
C45   O2    A    
S1    O28   D    
Cr5   O8    S    
Cr3   O23   S    
C8    C78   S    
C69   C70   A    
C67   C78   S    
C4    C7    S    
C12   O21   A    
C76   C83   S    
Cr4   O14   S    
Cr6   O10   S    
C44   C46   A    
C47   C50   A    
C34   O26   A    
C25   C29   S    
C38   C39   A    
C74   C75   A    
C29   H9    S    
C51   C52   A    
C32   C35   S    
C12   O22   A    
C82   O16   A    
C27   C80   S    
Cr2   O21   S    
C39   C40   A    
C5    C7    S    
C44   H12   S    
Cr2   O2    S    
C6    C8    S    
C54   C62   S    
C50   C82   S    
C25   C26   S    
C53   C54   A    
C60   C61   A    
Cr3   O4    S    
C65   H42   S    
C11   H37   S    
C4    C78   S    
C29   C30   S    
C40   H14   S    
C83   O18   A    
C11   C16   S    
Cr2   O5    S    
C31   C32   S    
C55   S1    S    
C47   H16   S    
C34   C64   S    
C13   C21   S    
Cr1   O25   S    
C32   C37   S    
C21   H38   S    
Cr1   O12   S    
C56   O4    A    
C1    O12   A    
C13   H36   S    
C53   H22   S    
C16   C18   S    
C40   C41   A    
C79   O9    A    
C26   C30   S    
S1    O29   S    
C73   H31   S    
C55   C57   A    
C61   H23   S    
C27   C36   T    
C73   C76   A    
C59   C63   A    
C8    H21   S    
C42   C43   A    
C3    C4    S    
Cr5   O16   S    
Cr4   O13   S    
C82   O17   A    
C52   C53   A    
C67   H11   S    
C83   O13   A    
C34   O25   A    
C26   H5    S    
Cr5   O19   S    
C23   O23   A    
C54   C55   A    
C81   O14   A    
C30   C33   S    
C58   H20   S    
C16   H4    S    
C7    H30   S    
C3    C67   S    
Cr4   O7    S    
C3    C5    S    
Cr2   O20   S    
C6    C10   S    
C59   H40   S    
C3    H35   S    
C45   O3    A    
C13   C17   S    
C78   H1    S    
C80   O11   A    
C46   H13   S    
C46   C50   A    
Cr5   O9    S    
C17   C22   S    
C30   C36   S    
O29   H41   S    
C14   C22   T    
C19   C24   S    
C58   C59   A    
Cr1   O24   S    
Cr4   O6    S    
C38   C43   A    
Cr6   O18   S    
Cr5   O15   S    
C64   C65   A    
C15   C24   T    
C71   C75   A    
C11   C13   S    
C39   H10   S    
C79   C84   S    
C69   H32   S    
C48   C49   A    
C33   C35   S    
Cr4   O19   S    
C71   H26   S    
C33   H7    S    
C43   H18   S    
Cr2   O26   S    
C61   C62   A    
C9    C84   T    
C26   C35   S    
C81   O15   A    
C79   O10   A    
C71   C72   A    
C20   C21   S    
C29   C31   S    
C65   C66   A    
C66   H28   S    
C18   H3    S    
C1    O20   A    
C77   O7    A    
C48   H15   S    
C4    C9    S    
Cr1   O5    S    
C2    C10   T    
