data_mof_unit_2600.cif
_audit_creation_date              2012-12-10T19:09:30-0500
_audit_creation_method            fapswitch 2.2
_symmetry_space_group_name_H-M    P1
_symmetry_Int_Tables_number       1
_space_group_crystal_system       triclinic
_cell_length_a                    15.482806
_cell_length_b                    14.948993
_cell_length_c                    9.71502
_cell_angle_alpha                 89.489658
_cell_angle_beta                  90.226006
_cell_angle_gamma                 90.007412
_cell_volume                      2248.45759261

loop_
_atom_site_label
_atom_site_type_symbol
_atom_type_description
_atom_site_fract_x
_atom_site_fract_y
_atom_site_fract_z
_atom_type_partial_charge
C1    C     C_R   0.123836 0.381332 0.500508 0.832660
C2    C     C_R   0.883615 0.625415 0.499568 0.963903
C3    C     C_R   0.382879 0.875385 0.500107 0.964513
C4    C     C_R   0.383615 0.125415 0.499570 0.963987
C5    C     C_3   0.837814 0.231806 0.613649 -0.252557
C6    C     C_3   0.814061 0.259497 0.353314 -0.258796
C7    C     C_3   0.827575 0.759079 0.370435 -0.257643
C8    C     C_3   0.824709 0.752372 0.635672 -0.269657
C9    C     C_3   0.337831 0.731752 0.613555 -0.252450
C10   C     C_3   0.313955 0.759589 0.353262 -0.258785
C11   C     C_3   0.327671 0.259171 0.370572 -0.257478
C12   C     C_R   0.124755 0.617648 0.499574 0.831574
C13   C     C_3   0.324618 0.252274 0.635781 -0.269619
C14   C     C_3   0.273696 0.652880 0.596101 -0.253421
C15   C     C_3   0.237671 0.692948 0.349860 -0.232979
C16   C     C_3   0.254356 0.329231 0.369992 -0.263615
C17   C     C_3   0.255643 0.327070 0.631849 -0.248388
C18   C     C_3   0.773648 0.152952 0.596328 -0.253066
C19   C     C_3   0.737830 0.192790 0.349935 -0.232997
C20   C     C_3   0.754228 0.829097 0.369811 -0.263764
C21   C     C_3   0.755778 0.827215 0.631675 -0.248192
C22   C     C_3   0.729641 0.347291 0.531830 1.188033
C23   C     C_R   0.623837 0.881333 0.500509 0.832666
C24   C     C_3   0.728703 0.650073 0.494860 1.202631
C25   C     C_3   0.229642 0.847290 0.532029 1.188110
C26   C     C_3   0.228707 0.150079 0.494619 1.202702
C27   C     C_3   0.819061 0.303591 0.499277 -0.317713
C28   C     C_3   0.819110 0.696861 0.499992 -0.349965
C29   C     C_3   0.319041 0.803604 0.499286 -0.317842
C30   C     C_3   0.319109 0.196860 0.499998 -0.349950
C31   C     C_3   0.196571 0.683148 0.498509 -0.094718
C32   C     C_3   0.195140 0.315520 0.501038 -0.088579
C33   C     C_3   0.696597 0.183128 0.498514 -0.094551
C34   C     C_R   0.624775 0.117626 0.499576 0.831603
C35   C     C_3   0.695141 0.815522 0.501043 -0.088585
C36   C     C_3   0.160690 0.774138 0.547610 -0.438157
C37   C     C_3   0.156364 0.220231 0.500451 -0.449445
C38   C     C_3   0.660665 0.274159 0.547327 -0.438166
C39   C     C_3   0.656365 0.720226 0.500815 -0.449323
C40   C     C_3   0.998877 0.407785 0.082141 -0.386053
C41   C     C_3   0.996034 0.407810 0.920049 -0.346302
C42   C     C_3   0.076631 0.543525 0.919444 -0.371324
C43   C     C_3   0.074776 0.546756 0.080753 -0.412201
C44   C     C_3   0.498869 0.907786 0.082137 -0.386097
C45   C     C_3   0.920630 0.545369 0.080185 1.098774
C46   C     C_3   0.496076 0.907810 0.920044 -0.346138
C47   C     C_3   0.576602 0.043564 0.919444 -0.371527
C48   C     C_3   0.574771 0.046757 0.080752 -0.412323
C49   C     C_2   0.929810 0.198251 0.622573 0.382490
C50   C     C_2   0.898011 0.218203 0.304413 0.396266
C51   C     C_2   0.913746 0.805108 0.353224 0.435768
C52   C     C_2   0.913658 0.788274 0.670997 0.529846
C53   C     C_2   0.429841 0.698240 0.622436 0.382777
C54   C     C_2   0.397861 0.718252 0.304252 0.396362
C55   C     C_2   0.413881 0.305152 0.353569 0.435111
C56   C     C_3   0.922263 0.548083 0.917238 1.073071
C57   C     C_2   0.413534 0.288213 0.671246 0.530064
C58   C     C_2   0.250099 0.615265 0.735728 0.505993
C59   C     C_2   0.179119 0.721313 0.232651 0.532363
C60   C     C_2   0.209884 0.327022 0.230434 0.529955
C61   C     C_2   0.211914 0.328980 0.771394 0.554963
C62   C     C_2   0.749973 0.115588 0.736069 0.505500
C63   C     C_2   0.679380 0.220971 0.232504 0.532143
C64   C     C_2   0.709630 0.826679 0.230355 0.530330
C65   C     C_2   0.712183 0.829342 0.771324 0.554611
C66   C     C_3   0.420626 0.045365 0.080193 1.098866
C67   C     C_3   0.422241 0.048049 0.917244 1.072985
C68   C     C_R   0.882887 0.375380 0.500105 0.964577
F1    F     F_    0.733279 0.395626 0.653143 -0.557855
F2    F     F_    0.847068 0.510741 0.865078 -0.540710
F3    F     F_    0.924454 0.636570 0.873948 -0.641342
F4    F     F_    0.916678 0.632248 0.127121 -0.602972
F5    F     F_    0.346679 0.002087 0.125950 -0.565817
F6    F     F_    0.347061 0.010656 0.865118 -0.540791
F7    F     F_    0.424380 0.136528 0.873929 -0.641368
F8    F     F_    0.416683 0.132255 0.127105 -0.602834
F9    F     F_    0.705821 0.406121 0.427134 -0.549317
F10   F     F_    0.719950 0.601255 0.374700 -0.540717
F11   F     F_    0.719544 0.590938 0.604885 -0.548426
F12   F     F_    0.233357 0.895592 0.653367 -0.557923
F13   F     F_    0.205746 0.906147 0.427415 -0.549322
F14   F     F_    0.220061 0.101297 0.374406 -0.540738
F15   F     F_    0.219449 0.090912 0.604579 -0.548472
F16   F     F_    0.846681 0.502078 0.125904 -0.565774
H1    H     H_    0.825592 0.265698 0.713414 0.269730
H2    H     H_    0.261142 0.625116 0.321570 0.146580
H3    H     H_    0.282036 0.397911 0.377966 0.096465
H4    H     H_    0.287967 0.393289 0.619759 0.113387
H5    H     H_    0.807229 0.096841 0.543891 0.099588
H6    H     H_    0.761381 0.124943 0.321896 0.146396
H7    H     H_    0.781882 0.897808 0.377506 0.096535
H8    H     H_    0.788136 0.893400 0.619300 0.113351
H9    H     H_    0.141128 0.768217 0.657377 0.224128
H10   H     H_    0.101268 0.793366 0.490315 0.199290
H11   H     H_    0.111101 0.211765 0.412650 0.202289
H12   H     H_    0.801739 0.314453 0.277253 0.246594
H13   H     H_    0.117040 0.209034 0.593764 0.244139
H14   H     H_    0.640953 0.268335 0.657033 0.224265
H15   H     H_    0.601317 0.293341 0.489798 0.199456
H16   H     H_    0.610954 0.711669 0.413218 0.202072
H17   H     H_    0.617199 0.709117 0.594329 0.244426
H18   H     H_    0.943045 0.369309 0.122909 0.228176
H19   H     H_    0.936823 0.372653 0.884558 0.252714
H20   H     H_    0.081507 0.612747 0.878203 0.269752
H21   H     H_    0.071605 0.617443 0.111664 0.237314
H22   H     H_    0.443013 0.869324 0.122861 0.228153
H23   H     H_    0.820059 0.715070 0.279410 0.309769
H24   H     H_    0.436899 0.872613 0.884505 0.252732
H25   H     H_    0.581403 0.112797 0.878247 0.269996
H26   H     H_    0.571597 0.117440 0.111690 0.237612
H27   H     H_    0.057011 0.371661 0.117960 0.235267
H28   H     H_    0.050889 0.368530 0.880504 0.253227
H29   H     H_    0.134928 0.506979 0.886391 0.183595
H30   H     H_    0.135219 0.518372 0.124784 0.183196
H31   H     H_    0.556976 0.871641 0.118000 0.235113
H32   H     H_    0.550970 0.868571 0.880540 0.253343
H33   H     H_    0.634915 0.007073 0.886347 0.183474
H34   H     H_    0.809777 0.704920 0.721238 0.295913
H35   H     H_    0.635219 0.018352 0.124751 0.183067
H36   H     H_    0.955624 0.153829 0.545459 0.085061
H37   H     H_    0.959240 0.239486 0.347426 0.067361
H38   H     H_    0.935552 0.854918 0.425776 0.065266
H39   H     H_    0.970534 0.763124 0.619621 0.028775
H40   H     H_    0.455691 0.653902 0.545237 0.084853
H41   H     H_    0.459120 0.739499 0.347199 0.067518
H42   H     H_    0.435601 0.355021 0.426097 0.065265
H43   H     H_    0.470450 0.263144 0.619880 0.028906
H44   H     H_    0.252237 0.543498 0.752197 0.023446
H45   H     H_    0.325587 0.765566 0.713374 0.269751
H46   H     H_    0.191103 0.693962 0.131543 0.097774
H47   H     H_    0.213488 0.385160 0.163242 0.034013
H48   H     H_    0.220209 0.386747 0.836503 0.025647
H49   H     H_    0.752434 0.043877 0.753024 0.023661
H50   H     H_    0.691430 0.193426 0.131545 0.097673
H51   H     H_    0.713248 0.884701 0.162894 0.033975
H52   H     H_    0.720514 0.887216 0.836177 0.025470
H53   H     H_    0.301647 0.814589 0.277269 0.246550
H54   H     H_    0.320183 0.215235 0.279460 0.309811
H55   H     H_    0.309682 0.204753 0.721253 0.295909
H56   H     H_    0.307285 0.596873 0.543418 0.099770
N1    N     N_3   0.998760 0.500000 0.138610 -0.173414
N2    N     N_3   0.998760 0.500000 0.861390 -0.188187
N3    N     N_3   0.498760 0.000000 0.138610 -0.173422
N4    N     N_3   0.498760 0.000000 0.861390 -0.188167
O1    O     O_R   0.092530 0.407440 0.616040 -0.637944
O2    O     O_R   0.907330 0.407420 0.383960 -0.605345
O3    O     O_R   0.907330 0.592580 0.383960 -0.509249
O4    O     O_R   0.907330 0.592580 0.616040 -0.539477
O5    O     O_R   0.407330 0.907420 0.616040 -0.541715
O6    O     O_R   0.407330 0.907420 0.383960 -0.605418
O7    O     O_R   0.407330 0.092580 0.383960 -0.509086
O8    O     O_R   0.407330 0.092580 0.616040 -0.539626
O9    O     O_2   0.974960 0.217693 0.721164 -0.503086
O10   O     O_2   0.898810 0.166860 0.207342 -0.502199
O11   O     O_2   0.957181 0.791109 0.251389 -0.396858
O12   O     O_R   0.092530 0.407440 0.383960 -0.654599
O13   O     O_2   0.923130 0.841447 0.764559 -0.484471
O14   O     O_2   0.474966 0.717618 0.721088 -0.503169
O15   O     O_2   0.398592 0.666926 0.207159 -0.502061
O16   O     O_2   0.457469 0.291015 0.251952 -0.396972
O17   O     O_2   0.422936 0.341321 0.764912 -0.484374
O18   O     O_2   0.229411 0.663968 0.830314 -0.571322
O19   O     O_2   0.127712 0.782380 0.243952 -0.432396
O20   O     O_2   0.173090 0.259937 0.189743 -0.481547
O21   O     O_2   0.171086 0.264882 0.814916 -0.475609
O22   O     O_2   0.728958 0.164458 0.830263 -0.571317
O23   O     O_R   0.092530 0.592560 0.383960 -0.633381
O24   O     O_2   0.627988 0.282080 0.243446 -0.432051
O25   O     O_2   0.672736 0.759546 0.190027 -0.481162
O26   O     O_2   0.671416 0.765305 0.815198 -0.476235
O27   O     O_R   0.092530 0.592560 0.616040 -0.640359
O28   O     O_R   0.592530 0.907440 0.616040 -0.637855
O29   O     O_R   0.592530 0.907440 0.383960 -0.654677
O30   O     O_R   0.592530 0.092560 0.383960 -0.633250
O31   O     O_R   0.592530 0.092560 0.616040 -0.640255
O32   O     O_R   0.907330 0.407420 0.616040 -0.541753
Zn1   Zn    Zn3+2 0.999890 0.500000 0.654960 1.040266
Zn2   Zn    Zn3+2 0.999890 0.500000 0.345040 1.027702
Zn3   Zn    Zn3+2 0.499890 0.000000 0.654960 1.040281
Zn4   Zn    Zn3+2 0.499890 0.000000 0.345040 1.027752

loop_
_geom_bond_atom_site_label_1
_geom_bond_atom_site_label_2
_ccdc_geom_bond_type
C48   H26   S    
C59   H46   S    
C58   H44   S    
O4    Zn1   S    
C25   F12   S    
C2    C28   S    
C1    O1    A    
C10   C29   S    
C14   C31   S    
C38   H14   S    
C12   O23   A    
C37   H13   S    
C68   O32   A    
C8    H34   S    
C6    C19   S    
C51   O11   D    
C53   O14   D    
C26   F15   S    
C13   H55   S    
C62   H49   S    
C49   O9    D    
C11   H54   S    
C10   C15   S    
C43   H30   S    
C16   C60   S    
C52   H39   S    
C49   H36   S    
C13   C57   S    
C2    O4    A    
C17   H4    S    
O5    Zn3   S    
C24   C39   S    
C37   H11   S    
C43   H21   S    
C64   O25   D    
C3    C29   S    
C27   C68   S    
C24   F11   S    
C61   H48   S    
C17   C61   S    
C54   O15   D    
C5    C27   S    
C20   C35   S    
O12   Zn2   S    
C36   H9    S    
C23   O28   A    
C47   C48   S    
C44   H31   S    
C19   C63   S    
C41   H28   S    
C46   H24   S    
C42   N2    S    
C16   H3    S    
N4    Zn3   S    
C34   O31   A    
C10   H53   S    
C40   H27   S    
C8    C52   S    
C22   F1    S    
C45   C56   S    
C9    C29   S    
C56   N2    S    
C66   C67   S    
C64   H51   S    
C26   F14   S    
C40   N1    S    
C45   F4    S    
C25   F13   S    
C5    C49   S    
C50   H37   S    
C14   C58   S    
C67   N4    S    
C60   H47   S    
C20   H7    S    
C44   C46   S    
C39   H17   S    
C12   O27   A    
C25   C29   S    
C4    O8    A    
C54   H41   S    
C3    O5    A    
N1    Zn2   S    
C63   H50   S    
C13   C30   S    
C11   C30   S    
C19   C33   S    
C18   C62   S    
O31   Zn3   S    
C5    C18   S    
O29   Zn4   S    
C2    O3    A    
C32   C37   S    
C66   F5    S    
C40   H18   S    
C47   N4    S    
C1    C32   S    
C7    C28   S    
C41   H19   S    
C48   N3    S    
C20   C64   S    
C1    O12   A    
C35   C39   S    
C9    C14   S    
C34   O30   A    
C11   C16   S    
C42   H29   S    
C6    C27   S    
C55   H42   S    
C21   H8    S    
C56   F3    S    
C66   F8    S    
C8    C21   S    
C57   O17   D    
C67   F6    S    
N3    Zn4   S    
C6    C50   S    
C45   N1    S    
C15   H2    S    
C23   O29   A    
O28   Zn3   S    
C24   F10   S    
C55   O16   D    
C62   O22   D    
C14   H56   S    
C26   C30   S    
C6    H12   S    
C22   C27   S    
C12   C31   S    
C63   O24   D    
C8    C28   S    
C7    H23   S    
C9    H45   S    
C43   N1    S    
C45   F16   S    
C9    C53   S    
C42   C43   S    
C58   O18   D    
C56   F2    S    
O30   Zn4   S    
C68   O2    A    
O6    Zn4   S    
C52   O13   D    
C51   H38   S    
C4    O7    A    
O32   Zn1   S    
C3    O6    A    
C21   C65   S    
C31   C36   S    
C18   H5    S    
C15   C59   S    
C24   C28   S    
C22   F9    S    
C38   H15   S    
C53   H40   S    
C42   H20   S    
C57   H43   S    
C46   N4    S    
C26   C37   S    
C15   C31   S    
C66   N3    S    
C44   H22   S    
C16   C32   S    
C23   C35   S    
C33   C38   S    
C46   H32   S    
C65   O26   D    
C11   C55   S    
O8    Zn3   S    
C21   C35   S    
C7    C51   S    
C41   N2    S    
C19   H6    S    
C47   H25   S    
O3    Zn2   S    
C39   H16   S    
C50   O10   D    
C44   N3    S    
C60   O20   D    
C33   C34   S    
C61   O21   D    
C10   C54   S    
C18   C33   S    
C65   H52   S    
C59   O19   D    
C25   C36   S    
O7    Zn4   S    
C13   C17   S    
N2    Zn1   S    
C36   H10   S    
C47   H33   S    
O23   Zn2   S    
C67   F7    S    
C7    C20   S    
O1    Zn1   S    
C17   C32   S    
C48   H35   S    
O27   Zn1   S    
C40   C41   S    
C5    H1    S    
C4    C30   S    
O2    Zn2   S    
C22   C38   S    
