data_mof_unit_496.cif
_audit_creation_date              2012-12-10T16:51:14-0500
_audit_creation_method            fapswitch 2.2
_symmetry_space_group_name_H-M    P1
_symmetry_Int_Tables_number       1
_space_group_crystal_system       triclinic
_cell_length_a                    27.780527
_cell_length_b                    8.667424
_cell_length_c                    7.43466
_cell_angle_alpha                 102.955435
_cell_angle_beta                  94.243457
_cell_angle_gamma                 92.395975
_cell_volume                      1736.66427721

loop_
_atom_site_label
_atom_site_type_symbol
_atom_type_description
_atom_site_fract_x
_atom_site_fract_y
_atom_site_fract_z
_atom_type_partial_charge
C1    C     C_R   0.498540 0.199649 0.453201 0.892857
C2    C     C_R   0.501460 0.800351 0.546799 0.892847
C3    C     C_R   0.101948 0.497737 0.499719 -0.048459
C4    C     C_R   0.898057 0.502362 0.500316 -0.048460
C5    C     C_R   0.124739 0.353822 0.457278 -0.060513
C6    C     C_R   0.875267 0.646278 0.542766 -0.060493
C7    C     C_R   0.096706 0.212130 0.394631 -0.248155
C8    C     C_R   0.903300 0.787969 0.605416 -0.248164
C9    C     C_R   0.130502 0.641477 0.540782 -0.002377
C10   C     C_R   0.869502 0.358625 0.459246 -0.002363
C11   C     C_R   0.354583 0.498614 0.506635 -0.036462
C12   C     C_R   0.645417 0.501441 0.493373 -0.036483
C13   C     C_R   0.971463 0.354358 0.459783 0.081479
C14   C     C_R   0.028542 0.645739 0.540249 0.081481
C15   C     C_R   0.977621 0.647970 0.552777 0.010220
C16   C     C_R   0.022385 0.352127 0.447259 0.010220
C17   C     C_R   0.949256 0.501819 0.502375 -0.013690
C18   C     C_R   0.050749 0.498279 0.497659 -0.013687
C19   C     C_R   0.941932 0.213886 0.443082 -0.132590
C20   C     C_R   0.058071 0.786212 0.556942 -0.132581
C21   C     C_R   0.891954 0.215518 0.436141 -0.181938
C22   C     C_R   0.108050 0.784583 0.563881 -0.181933
C23   C     C_R   0.407481 0.499589 0.502305 0.798735
C24   C     C_R   0.592519 0.500422 0.497696 0.798722
C25   C     C_R   0.046078 0.210501 0.376969 0.387299
C26   C     C_R   0.953928 0.789596 0.623073 0.387295
C27   C     C_2   0.497840 0.031727 0.426777 -0.363006
C28   C     C_2   0.502159 0.968273 0.573223 -0.363006
C29   C     C_R   0.175446 0.355735 0.466778 0.561262
C30   C     C_R   0.824560 0.644369 0.533265 0.561218
C31   C     C_R   0.181045 0.638319 0.548049 0.542328
C32   C     C_R   0.818959 0.361785 0.451983 0.542323
C33   C     C_R   0.274747 0.475124 0.343139 -0.100678
C34   C     C_R   0.716897 0.480814 0.322018 -0.098335
C35   C     C_R   0.324797 0.476464 0.340400 -0.203641
C36   C     C_R   0.666695 0.479951 0.324306 -0.212769
C37   C     C_R   0.333298 0.519408 0.675654 -0.212666
C38   C     C_R   0.675209 0.524322 0.659663 -0.203747
C39   C     C_R   0.283096 0.518564 0.677952 -0.098325
C40   C     C_R   0.725260 0.525694 0.656929 -0.100640
C41   C     C_R   0.253813 0.496260 0.511619 0.359048
C42   C     C_R   0.746189 0.503850 0.488404 0.358873
Cu1   Cu    Cu3+1 0.505380 0.517380 0.684380 0.956482
Cu2   Cu    Cu3+1 0.494620 0.482620 0.315620 0.956480
H1    H     H_    0.355350 0.536633 0.805751 0.158137
H2    H     H_    0.659929 0.541265 0.792064 0.158572
H3    H     H_    0.462180 0.377916 0.948358 0.225610
H4    H     H_    0.537819 0.622084 0.051641 0.225624
H5    H     H_    0.266931 0.535071 0.808580 0.135189
H6    H     H_    0.747877 0.543050 0.785740 0.136486
H7    H     H_    0.114181 0.102402 0.348660 0.181505
H8    H     H_    0.885825 0.897698 0.651393 0.181508
H9    H     H_    0.644636 0.462136 0.194165 0.158254
H10   H     H_    0.340082 0.460087 0.208037 0.158500
H11   H     H_    0.733055 0.463754 0.191356 0.135365
H12   H     H_    0.252134 0.458330 0.214374 0.136327
H13   H     H_    0.871026 0.103872 0.417479 0.198120
H14   H     H_    0.128977 0.896229 0.582537 0.198112
H15   H     H_    0.956377 0.100725 0.443563 0.211657
H16   H     H_    0.043625 0.899371 0.556457 0.211654
H17   H     H_    0.493773 0.960017 0.285701 0.179823
H18   H     H_    0.506227 0.039983 0.714298 0.179819
N1    N     N_R   0.202354 0.496690 0.512829 -0.475496
N2    N     N_R   0.797650 0.503415 0.487211 -0.475468
N3    N     N_2   0.486510 0.456430 0.038510 -0.218291
N4    N     N_2   0.513490 0.543570 0.961490 -0.218285
O1    O     O_R   0.503500 0.286120 0.619780 -0.582990
O2    O     O_R   0.496500 0.713880 0.380220 -0.582993
O3    O     O_R   0.494410 0.256780 0.308360 -0.583420
O4    O     O_R   0.505590 0.743220 0.691640 -0.583425
O5    O     O_R   0.434810 0.514700 0.655690 -0.591545
O6    O     O_R   0.565190 0.485300 0.344310 -0.591553
O7    O     O_R   0.425720 0.485350 0.344280 -0.584751
O8    O     O_R   0.574280 0.514650 0.655720 -0.584749
O9    O     O_2   0.197724 0.218101 0.429056 -0.514641
O10   O     O_2   0.802283 0.782008 0.570967 -0.514691
O11   O     O_2   0.791315 0.224668 0.412025 -0.510876
O12   O     O_2   0.208690 0.775436 0.588022 -0.510826
O13   O     O_3   0.020077 0.075771 0.274985 -0.742607
H19   H     H_    0.042189 0.990325 0.233767 0.332470
O14   O     O_3   0.979930 0.924324 0.725060 -0.742600
H20   H     H_    0.957819 0.009771 0.766281 0.332471

loop_
_geom_bond_atom_site_label_1
_geom_bond_atom_site_label_2
_ccdc_geom_bond_type
C29   N1    A    
C30   N2    A    
C8    C26   A    
C14   C18   A    
C34   C42   A    
O14   H20   S    
C39   C41   A    
C3    C18   A    
C19   C21   A    
C2    O2    A    
C9    C22   A    
C14   C20   A    
C11   C37   A    
C36   H9    S    
C27   H17   S    
C1    O1    A    
C32   O11   S    
C12   C36   A    
C8    H8    S    
C33   H12   S    
C40   C42   A    
C34   H11   S    
C35   H10   S    
Cu2   N3    S    
C23   O7    A    
C5    C29   A    
C10   C21   A    
C13   C19   A    
C31   N1    A    
C32   N2    A    
C4    C6    A    
C5    C7    A    
C15   C26   A    
C6    C8    A    
C19   H15   S    
C1    O3    A    
Cu1   Cu2   S    
C21   H13   S    
C3    C9    A    
C23   O5    A    
C30   O10   S    
Cu2   O3    S    
C4    C17   A    
C16   C18   A    
C39   H5    S    
C20   C22   A    
C26   O14   S    
Cu2   O2    S    
C20   H16   S    
C41   N1    S    
C4    C10   A    
C42   N2    S    
C24   O6    A    
C31   O12   S    
C16   C25   A    
C15   C17   A    
Cu1   O5    S    
C6    C30   A    
C25   O13   S    
C3    C5    A    
C22   H14   S    
C29   O9    S    
Cu1   O4    S    
C12   C24   S    
C7    C25   A    
C13   C17   A    
C33   C41   A    
C11   C35   A    
C7    H7    S    
C37   C39   A    
C38   C40   A    
C24   O8    A    
Cu1   O8    S    
Cu1   N4    S    
C40   H6    S    
C11   C23   S    
C33   C35   A    
Cu2   O6    S    
C34   C36   A    
C12   C38   A    
Cu2   O7    S    
C38   H2    S    
C9    C31   A    
O13   H19   S    
C10   C32   A    
Cu1   O1    S    
N3    N4    D    
C13   C16   A    
C27   C28   D    
C1    C27   S    
C14   C15   A    
C2    C28   S    
H4    N4    S    
C2    O4    A    
C37   H1    S    
H3    N3    S    
C28   H18   S    
