data_mof_unit_939.cif
_audit_creation_date              2012-12-10T16:57:04-0500
_audit_creation_method            fapswitch 2.2
_symmetry_space_group_name_H-M    P1
_symmetry_Int_Tables_number       1
_space_group_crystal_system       triclinic
_cell_length_a                    7.752
_cell_length_b                    8.561779
_cell_length_c                    16.44045
_cell_angle_alpha                 91.600501
_cell_angle_beta                  80.706643
_cell_angle_gamma                 93.779983
_cell_volume                      1074.33732058

loop_
_atom_site_label
_atom_site_type_symbol
_atom_type_description
_atom_site_fract_x
_atom_site_fract_y
_atom_site_fract_z
_atom_type_partial_charge
C1    C     C_R   0.546333 0.794903 0.497790 0.964119
C2    C     C_R   0.437593 0.664096 0.240195 -0.239489
C3    C     C_R   0.600713 0.724614 0.837322 -0.179524
C4    C     C_R   0.466800 0.731289 0.163342 -0.176455
C5    C     C_R   0.458247 0.685528 0.898470 0.188913
C6    C     C_R   0.600485 0.680681 0.102776 0.192050
C7    C     C_R   0.319959 0.583962 0.880123 -0.217684
C8    C     C_R   0.712044 0.569337 0.121501 -0.219815
C9    C     C_R   0.326086 0.514814 0.801673 -0.008710
C10   C     C_R   0.685172 0.501249 0.199273 -0.007644
C11   C     C_2   0.461439 0.729982 0.984684 -0.224607
C12   C     C_R   0.453689 0.205113 0.502079 0.968353
C13   C     C_2   0.609559 0.722771 0.016493 -0.223538
C14   C     C_R   0.802436 0.379441 0.215582 0.130429
C15   C     C_R   0.984977 0.411444 0.203449 -0.141802
C16   C     C_R   0.095252 0.298016 0.220633 -0.135322
C17   C     C_R   0.024468 0.151691 0.249490 -0.139154
C18   C     C_R   0.843286 0.118313 0.261008 -0.118151
C19   C     C_R   0.732493 0.231400 0.243970 -0.124580
C20   C     C_R   0.181265 0.400933 0.785883 0.127641
C21   C     C_R   0.005660 0.438838 0.807617 -0.154243
C22   C     C_R   0.869655 0.331359 0.793054 -0.120132
C23   C     C_2   0.570844 0.958366 0.496223 -0.393323
C24   C     C_R   0.907402 0.185478 0.756706 -0.119040
C25   C     C_R   0.081255 0.146276 0.735338 -0.126414
C26   C     C_R   0.217691 0.252921 0.750199 -0.123119
C27   C     C_2   0.429216 0.041655 0.503387 -0.397710
C28   C     C_R   0.478172 0.506211 0.654938 0.852040
C29   C     C_R   0.523471 0.502455 0.344917 0.846662
C30   C     C_R   0.473543 0.551834 0.741068 -0.085125
C31   C     C_R   0.544494 0.548461 0.258945 -0.089651
C32   C     C_R   0.608835 0.657178 0.759516 -0.238171
H1    H     H_    0.732971 0.707750 0.975978 0.143242
H2    H     H_    0.235585 0.323698 0.211769 0.137848
H3    H     H_    0.110037 0.064124 0.262828 0.121506
H4    H     H_    0.788610 0.004835 0.283207 0.134798
H5    H     H_    0.592363 0.203880 0.253104 0.097301
H6    H     H_    0.974033 0.551886 0.835227 0.120463
H7    H     H_    0.734871 0.361023 0.810031 0.146206
H8    H     H_    0.801923 0.102594 0.745389 0.122717
H9    H     H_    0.110366 0.032941 0.707528 0.126388
H10   H     H_    0.351594 0.219841 0.734157 0.099986
H11   H     H_    0.382482 0.820669 0.150880 0.131306
H12   H     H_    0.335696 0.728542 0.025020 0.145314
H13   H     H_    0.706949 0.805527 0.849936 0.133562
H14   H     H_    0.704512 0.009600 0.489178 0.180262
H15   H     H_    0.295550 0.990437 0.510396 0.177895
H16   H     H_    0.211612 0.551895 0.928376 0.125347
H17   H     H_    0.814365 0.529239 0.074042 0.126677
H18   H     H_    0.022839 0.380386 0.438947 0.198160
H19   H     H_    0.977108 0.619588 0.561039 0.185125
H20   H     H_    0.719468 0.690938 0.712839 0.153600
H21   H     H_    0.333804 0.706592 0.286007 0.165356
H22   H     H_    0.041624 0.524798 0.181826 0.124550
N1    N     N_2   0.953500 0.457650 0.478520 -0.167048
N2    N     N_2   0.046500 0.542350 0.521480 -0.170215
O1    O     O_R   0.388470 0.738640 0.505270 -0.613517
O2    O     O_R   0.611530 0.261360 0.494730 -0.605550
O3    O     O_R   0.679650 0.711510 0.491500 -0.632809
O4    O     O_R   0.320350 0.288490 0.508500 -0.623333
O5    O     O_R   0.337210 0.515200 0.623500 -0.596531
O6    O     O_R   0.662790 0.484800 0.376500 -0.595256
O7    O     O_R   0.628380 0.488060 0.609730 -0.620990
O8    O     O_R   0.371620 0.511940 0.390270 -0.625087
Zn1   Zn    Zn3+2 0.305580 0.518120 0.509190 0.941053
Zn2   Zn    Zn3+2 0.694420 0.481880 0.490810 0.944868

loop_
_geom_bond_atom_site_label_1
_geom_bond_atom_site_label_2
_ccdc_geom_bond_type
C2    C4    A    
N1    N2    D    
C28   O7    A    
C24   C25   A    
C13   H1    S    
C4    H11   S    
C23   C27   D    
C17   H3    S    
C9    C20   S    
H18   N1    S    
C12   O2    A    
C7    H16   S    
C28   C30   S    
C17   C18   A    
O7    Zn2   S    
C11   H12   S    
C29   C31   S    
C23   H14   S    
C21   C22   A    
C28   O5    A    
C6    C13   S    
C30   C32   A    
C5    C11   S    
C11   C13   D    
C16   C17   A    
C20   C26   A    
C9    C30   A    
C22   H7    S    
C10   C31   A    
O8    Zn1   S    
C4    C6    A    
C24   H8    S    
C3    H13   S    
O4    Zn1   S    
C1    C23   S    
C7    C9    A    
C1    O3    A    
O3    Zn2   S    
C3    C32   A    
C22   C24   A    
C29   O8    A    
C15   C16   A    
O6    Zn2   S    
C12   C27   S    
C25   H9    S    
N2    Zn1   S    
C12   O4    A    
C15   H22   S    
O5    Zn1   S    
N1    Zn2   S    
C20   C21   A    
C26   H10   S    
C8    C10   A    
C18   C19   A    
C10   C14   S    
C27   H15   S    
C5    C7    A    
C14   C15   A    
C32   H20   S    
C6    C8    A    
C8    H17   S    
C19   H5    S    
C16   H2    S    
C25   C26   A    
C29   O6    A    
C18   H4    S    
C14   C19   A    
O2    Zn2   S    
C21   H6    S    
H19   N2    S    
O1    Zn1   S    
C2    C31   A    
C3    C5    A    
C2    H21   S    
C1    O1    A    
