data_mof_unit_2625.cif
_audit_creation_date              2012-12-11T21:14:53-0500
_audit_creation_method            fapswitch 2.2
_symmetry_space_group_name_H-M    P1
_symmetry_Int_Tables_number       1
_space_group_crystal_system       triclinic
_cell_length_a                    8.212271
_cell_length_b                    18.778509
_cell_length_c                    26.996976
_cell_angle_alpha                 99.536489
_cell_angle_beta                  92.651361
_cell_angle_gamma                 88.228912
_cell_volume                      4100.24445273

loop_
_atom_site_label
_atom_site_type_symbol
_atom_type_description
_atom_site_fract_x
_atom_site_fract_y
_atom_site_fract_z
_atom_type_partial_charge
Ba1   Ba    Ba6+2 0.160810 0.465630 0.521640 1.639769
Ba2   Ba    Ba6+2 0.649380 0.534380 0.478400 1.636806
C1    C     C_3   0.417376 0.283034 0.700255 -0.353122
C2    C     C_R   0.076983 0.094853 0.451862 0.031974
C3    C     C_R   0.223632 0.070906 0.429141 -0.081625
C4    C     C_3   0.958704 0.270630 0.624236 0.374777
C5    C     C_R   0.285027 0.000973 0.430574 -0.087182
C6    C     C_R   0.199601 0.953129 0.454035 0.033839
C7    C     C_R   0.052300 0.976433 0.477023 0.014326
C8    C     C_R   0.258601 0.882283 0.454203 -0.098549
C9    C     C_R   0.170475 0.832768 0.475853 -0.037320
C10   C     C_R   0.023383 0.856308 0.499799 -0.003846
C11   C     C_R   0.965528 0.928486 0.500472 -0.008422
C12   C     C_3   0.429535 0.306549 0.649455 0.340013
C13   C     C_R   0.223095 0.759943 0.473545 -0.003355
C14   C     C_R   0.126897 0.711568 0.492681 -0.294995
C15   C     C_R   0.986049 0.734103 0.518460 0.046525
C16   C     C_3   0.986099 0.197176 0.640280 -0.367811
C17   C     C_R   0.934005 0.807949 0.523054 -0.045004
C18   C     C_R   0.845603 0.071836 0.499792 -0.006649
C19   C     C_R   0.787895 0.144088 0.500637 -0.006739
C20   C     C_R   0.877154 0.192484 0.477437 -0.047156
C21   C     C_R   0.016076 0.165328 0.450829 -0.039358
C22   C     C_R   0.794267 0.834909 0.549237 -0.042573
C23   C     C_3   0.469178 0.313902 0.397548 0.309076
C24   C     C_R   0.733332 0.905314 0.548041 0.033279
C25   C     C_R   0.819043 0.952426 0.523689 0.006702
C26   C     C_R   0.758504 0.023782 0.523029 0.014893
C27   C     C_R   0.586012 0.929096 0.570360 -0.081640
C28   C     C_3   0.841135 0.620734 0.631226 0.299637
C29   C     C_R   0.524405 0.998910 0.568749 -0.088485
C30   C     C_R   0.610554 0.046902 0.545652 0.031932
C31   C     C_R   0.640429 0.167513 0.524382 -0.040925
C32   C     C_R   0.551530 0.117721 0.545503 -0.106819
C33   C     C_R   0.587545 0.240324 0.526712 -0.001080
C34   C     C_3   0.478161 0.232580 0.380785 -0.394452
C35   C     C_R   0.683146 0.288744 0.507361 -0.301637
C36   C     C_R   0.825133 0.266398 0.482165 0.050004
C37   C     C_R   0.302531 0.450707 0.175199 0.587987
C38   C     C_R   0.166478 0.565378 0.174592 0.579205
C39   C     C_2   0.026123 0.524402 0.269047 -0.069675
C40   C     C_3   0.840759 0.637966 0.688262 -0.361705
C41   C     C_3   0.990497 0.518900 0.323036 -0.050903
C42   C     C_1   0.278591 0.492409 0.336415 0.017435
C43   C     C_2   0.313839 0.496462 0.289696 -0.103412
C44   C     C_2   0.180198 0.511784 0.252591 0.194987
C45   C     C_3   0.858085 0.723403 0.378702 0.344729
C46   C     C_R   0.299701 0.505547 0.099240 -0.078690
C47   C     C_R   0.347853 0.448779 0.125255 -0.032395
C48   C     C_R   0.441890 0.391281 0.101108 -0.062813
C49   C     C_R   0.207165 0.563956 0.124032 -0.032037
C50   C     C_2   0.145508 0.523992 0.355731 -0.287337
C51   C     C_2   0.647237 0.470834 0.637165 -0.292546
C52   C     C_3   0.979350 0.368319 0.365583 0.297817
C53   C     C_R   0.475611 0.440731 0.972684 0.020875
C54   C     C_R   0.343046 0.560451 0.972073 0.020358
C55   C     C_R   0.430697 0.499403 0.947166 0.049100
C56   C     C_3   0.867491 0.798145 0.364501 -0.364759
C57   C     C_R   0.557863 0.380202 0.945666 -0.102908
C58   C     C_R   0.595886 0.377742 0.895881 -0.059793
C59   C     C_R   0.554906 0.435559 0.870549 -0.022914
C60   C     C_R   0.473649 0.496784 0.896098 -0.081151
C61   C     C_R   0.435093 0.555145 0.870537 -0.034409
C62   C     C_R   0.480604 0.551887 0.820144 0.596648
C63   C     C_R   0.592659 0.432416 0.819852 0.575127
C64   C     C_3   0.014884 0.337687 0.311196 -0.366704
C65   C     C_2   0.737877 0.453559 0.724566 -0.087405
C66   C     C_3   0.750110 0.426849 0.669131 -0.050457
C67   C     C_3   0.340201 0.697420 0.351643 0.308736
C68   C     C_1   0.519187 0.508577 0.656245 0.035655
C69   C     C_2   0.478362 0.511534 0.703819 -0.104004
C70   C     C_2   0.596602 0.485564 0.741811 0.186474
C71   C     C_R   0.436039 0.443912 0.023903 0.020990
C72   C     C_R   0.343916 0.503747 0.048365 0.049798
C73   C     C_R   0.295565 0.561680 0.022548 0.019966
C74   C     C_R   0.485939 0.389040 0.051852 -0.100740
C75   C     C_R   0.157557 0.619864 0.097848 -0.058799
C76   C     C_3   0.331365 0.685994 0.592837 0.318058
C77   C     C_R   0.306530 0.618316 0.945315 -0.099346
C78   C     C_3   0.353773 0.715994 0.299180 0.299885
C79   C     C_R   0.352148 0.615728 0.895926 -0.060292
C80   C     C_R   0.200010 0.618792 0.048344 -0.100779
C81   C     C_3   0.329336 0.767315 0.610041 -0.391762
C82   C     C_3   0.397007 0.838011 0.299143 0.194109
C83   C     C_R   0.991811 0.047826 0.476421 0.007070
H1    H     H_    0.365151 0.359728 0.650620 0.082180
H2    H     H_    0.205199 0.668321 0.583300 0.004903
H3    H     H_    0.406989 0.673080 0.559320 0.063029
H4    H     H_    0.288609 0.273232 0.707480 0.151449
H5    H     H_    0.246322 0.782064 0.641666 0.129392
H6    H     H_    0.286502 0.795615 0.578799 0.055280
H7    H     H_    0.454294 0.785221 0.622705 0.119029
H8    H     H_    0.560438 0.311476 0.642622 -0.051695
H9    H     H_    0.463278 0.326332 0.730032 0.133617
H10   H     H_    0.594415 0.333106 0.408075 0.023505
H11   H     H_    0.392224 0.325323 0.430854 0.060490
H12   H     H_    0.747090 0.680583 0.700073 0.135094
H13   H     H_    0.559869 0.219021 0.348709 0.133871
H14   H     H_    0.527153 0.205837 0.412245 0.055884
H15   H     H_    0.354501 0.212129 0.369029 0.114016
H16   H     H_    0.491316 0.232715 0.701554 0.114933
H17   H     H_    0.924441 0.155243 0.612651 0.071060
H18   H     H_    0.744306 0.721038 0.398738 0.115931
H19   H     H_    0.964213 0.715078 0.404081 -0.031176
H20   H     H_    0.854142 0.839900 0.398430 0.071658
H21   H     H_    0.987260 0.804405 0.348447 0.162309
H22   H     H_    0.768205 0.806199 0.336406 0.120338
H23   H     H_    0.812889 0.589060 0.703885 0.068682
H24   H     H_    0.211024 0.704988 0.362275 -0.020194
H25   H     H_    0.378379 0.639940 0.350306 0.005387
H26   H     H_    0.286567 0.674824 0.272374 0.066568
H27   H     H_    0.483831 0.710790 0.288232 0.022127
H28   H     H_    0.009738 0.268524 0.586664 0.084193
H29   H     H_    0.291809 0.106456 0.410547 0.062509
H30   H     H_    0.398814 0.984097 0.412878 0.061539
H31   H     H_    0.166192 0.655534 0.489187 0.066754
H32   H     H_    0.372360 0.866173 0.436519 0.105767
H33   H     H_    0.081255 0.198819 0.429982 0.099933
H34   H     H_    0.962544 0.656989 0.703630 0.134094
H35   H     H_    0.728549 0.801305 0.569853 0.097555
H36   H     H_    0.517483 0.893550 0.588812 0.063844
H37   H     H_    0.409974 0.015609 0.586099 0.071777
H38   H     H_    0.436984 0.133506 0.562743 0.110578
H39   H     H_    0.824878 0.280630 0.621262 -0.076736
H40   H     H_    0.642268 0.344497 0.509988 0.072696
H41   H     H_    0.438494 0.488118 0.278055 0.120234
H42   H     H_    0.483468 0.347627 0.120568 0.122833
H43   H     H_    0.832629 0.437396 0.750093 0.125175
H44   H     H_    0.658589 0.329696 0.877229 0.122969
H45   H     H_    0.092900 0.389620 0.385329 0.022504
H46   H     H_    0.592988 0.332670 0.961436 0.068949
H47   H     H_    0.561584 0.343476 0.037190 0.069481
H48   H     H_    0.925224 0.531960 0.242865 0.105375
H49   H     H_    0.084543 0.665132 0.115610 0.125419
H50   H     H_    0.244090 0.667371 0.961533 0.069478
H51   H     H_    0.118173 0.183007 0.642166 0.147695
H52   H     H_    0.320693 0.661693 0.877423 0.121904
H53   H     H_    0.358002 0.531581 0.715139 0.139000
H54   H     H_    0.153744 0.663510 0.031178 0.069857
H55   H     H_    0.146330 0.550525 0.394714 0.071066
H56   H     H_    0.885271 0.412085 0.366606 0.039573
H57   H     H_    0.659172 0.458063 0.596780 0.086476
H58   H     H_    0.935392 0.197783 0.677670 0.119861
H59   H     H_    0.717873 0.604779 0.616392 0.011560
H60   H     H_    0.929163 0.575437 0.620558 0.081230
H61   H     H_    0.481029 0.825626 0.267561 0.033158
H62   H     H_    0.466954 0.844595 0.335754 0.057284
H63   H     H_    0.333622 0.890293 0.296030 0.059743
H64   H     H_    0.101445 0.290774 0.309933 0.147393
H65   H     H_    0.070703 0.378530 0.292576 0.080065
H66   H     H_    0.899962 0.319833 0.290112 0.118423
N1    N     N_R   0.215499 0.509276 0.199865 -0.427059
N2    N     N_R   0.557243 0.490471 0.794781 -0.420963
O1    O     O_2   0.106080 0.324280 0.466820 -0.469374
O2    O     O_2   0.659401 0.565562 0.332073 -0.499270
O3    O     O_3   0.860066 0.671203 0.335047 -0.592397
O4    O     O_3   0.859130 0.413620 0.470620 -0.482351
O5    O     O_3   0.459240 0.537930 0.559910 -0.490729
O6    O     O_2   0.583120 0.462390 0.379940 -0.464505
O7    O     O_3   0.401216 0.346604 0.357949 -0.632760
O8    O     O_2   0.564159 0.756870 0.477274 -0.499138
O9    O     O_3   0.442839 0.741868 0.385610 -0.628073
O10   O     O_2   0.339212 0.399650 0.196625 -0.598604
O11   O     O_2   0.655629 0.377041 0.797873 -0.621379
O12   O     O_3   0.395978 0.652863 0.632255 -0.623124
O13   O     O_2   0.089083 0.616978 0.196219 -0.587833
O14   O     O_2   0.453487 0.604178 0.799191 -0.599276
O15   O     O_3   0.376230 0.370290 0.556910 -0.484040
O16   O     O_2   0.248834 0.243386 0.519915 -0.491076
O17   O     O_3   0.920156 0.312653 0.387364 -0.643765
O18   O     O_3   0.356768 0.254752 0.612362 -0.606170
O19   O     O_2   0.227190 0.537650 0.620070 -0.464722
O20   O     O_3   0.971110 0.406970 0.583250 -0.483739
O21   O     O_2   0.084863 0.463895 0.675090 -0.496046
O22   O     O_3   0.278780 0.784326 0.296215 -0.627931
O23   O     O_3   0.036354 0.324142 0.659335 -0.590113
O24   O     O_2   0.704230 0.675760 0.533200 -0.468586
O25   O     O_3   0.951180 0.586390 0.529420 -0.489911
O26   O     O_3   0.434080 0.629720 0.443130 -0.469165
O27   O     O_3   0.885310 0.682525 0.612932 -0.639442
O28   O     O_3   0.351080 0.462080 0.440130 -0.476975
O29   O     O_3   0.839200 0.593040 0.416790 -0.485989
P1    P     P_3+3 0.929380 0.335110 0.452880 0.977221
P2    P     P_3+3 0.398530 0.559060 0.613740 0.995556
P3    P     P_3+3 0.962014 0.408388 0.647694 0.949819
P4    P     P_3+3 0.880940 0.664900 0.547160 0.975651
P5    P     P_3+3 0.835080 0.585684 0.351327 0.971379
P6    P     P_3+3 0.393025 0.276695 0.553476 0.935794
P7    P     P_3+3 0.399690 0.440392 0.376884 0.961819
P8    P     P_3+3 0.415799 0.723020 0.445871 0.926312

loop_
_geom_bond_atom_site_label_1
_geom_bond_atom_site_label_2
_ccdc_geom_bond_type
C76   H2    S    
C44   N1    S    
C32   H38   S    
O15   P6    S    
C53   C57   A    
C3    H29   S    
C71   C72   A    
C52   O17   S    
C4    H39   S    
C21   H33   S    
C39   H48   S    
Ba2   O26   S    
Ba1   P1    S    
O28   P7    S    
O23   P3    S    
C43   C44   S    
C79   H52   S    
C81   H7    S    
O20   P3    S    
C24   C25   A    
C35   C36   A    
C54   C77   A    
O18   P6    S    
C61   C79   A    
C16   H58   S    
C33   C35   A    
C22   C24   A    
O7    P7    S    
C64   H65   S    
C62   O14   D    
O21   P3    D    
Ba2   O29   S    
O17   P1    S    
C41   C50   S    
O3    P5    S    
C19   C31   A    
C45   O3    S    
C13   C14   A    
C20   C36   A    
C28   H59   S    
C54   C55   A    
C78   H26   S    
C51   H57   S    
C16   H17   S    
C5    H30   S    
C51   C66   S    
C7    C11   A    
C63   N2    Am   
C7    C83   A    
C67   H24   S    
C76   C81   S    
C46   C49   A    
C38   N1    Am   
Ba2   O6    S    
O9    P8    S    
C27   H36   S    
C39   C44   D    
C16   H51   S    
C68   C69   D    
C70   N2    S    
Ba2   O24   S    
C34   H14   S    
C82   O22   S    
C15   P4    S    
C12   H8    S    
C38   O13   D    
C1    H16   S    
C57   C58   A    
C54   C73   A    
C19   C20   A    
C18   C83   A    
C39   C41   S    
Ba1   O1    S    
Ba2   P4    S    
C9    C13   A    
C52   H45   S    
C51   C68   D    
C14   H31   S    
C26   C30   A    
Ba1   P2    S    
C40   H23   S    
C69   H53   S    
C35   H40   S    
C82   H63   S    
C4    C16   S    
C22   H35   S    
C45   H18   S    
C72   C73   A    
C65   C66   S    
C46   C72   A    
C55   C60   A    
C67   O9    S    
C12   H1    S    
C64   H64   S    
C40   H12   S    
C3    C5    A    
C2    C21   A    
Ba1   O28   S    
C80   H54   S    
C6    C7    A    
C2    C83   A    
C18   C26   A    
Ba1   O15   S    
C37   N1    Am   
C36   P1    S    
C58   C59   A    
C56   H21   S    
Ba2   O28   S    
C30   C32   A    
C49   C75   A    
C4    H28   S    
C60   C61   A    
C48   C74   A    
C42   P7    S    
Ba1   O25   S    
O19   P2    D    
C29   C30   A    
C41   P5    S    
C43   H41   S    
Ba2   O5    S    
C53   C71   A    
C57   H46   S    
O1    P1    D    
C78   H27   S    
C23   O7    S    
C31   C32   A    
C34   H15   S    
C12   O18   S    
C1    C12   S    
O27   P4    S    
C24   C27   A    
C68   P2    S    
C46   C47   A    
C37   C47   A    
C67   H25   S    
C66   P3    S    
C23   H10   S    
C53   C55   A    
C71   C74   A    
Ba1   O20   S    
C63   O11   D    
C75   H49   S    
C37   O10   D    
C56   H22   S    
C65   C70   D    
C81   H6    S    
C42   C43   D    
C28   H60   S    
C77   C79   A    
C82   H62   S    
C76   H3    S    
C81   H5    S    
Ba1   O5    S    
C76   O12   S    
C45   H19   S    
O12   P2    S    
O6    P7    D    
C13   P8    S    
C28   C40   S    
C78   O22   S    
O8    P8    D    
C58   H44   S    
C9    C10   A    
C73   C80   A    
O16   P6    D    
C52   C64   S    
C82   H61   S    
C50   H55   S    
C38   C49   A    
C77   H50   S    
Ba1   O19   S    
C1    H4    S    
C56   H20   S    
Ba1   O4    S    
C17   C22   A    
C64   H66   S    
C27   C29   A    
C8    H32   S    
O2    P5    D    
C65   H43   S    
C45   C56   S    
C74   H47   S    
C31   C33   A    
C42   C50   D    
C14   C15   A    
O26   P8    S    
C4    O23   S    
C75   C80   A    
Ba2   O4    S    
Ba1   Ba2   S    
C10   C17   A    
C29   H37   S    
C1    H9    S    
O29   P5    S    
C59   C60   A    
C40   H34   S    
C5    C6    A    
C8    C9    A    
O24   P4    D    
C23   C34   S    
C61   C62   A    
O25   P4    S    
C15   C17   A    
C59   C63   A    
C2    C3    A    
C52   H56   S    
C69   C70   S    
C18   C19   A    
C23   H11   S    
C6    C8    A    
C47   C48   A    
C33   P6    S    
C25   C26   A    
C28   O27   S    
C20   C21   A    
C11   C25   A    
C67   C78   S    
C34   H13   S    
C48   H42   S    
Ba2   O25   S    
C10   C11   A    
O5    P2    S    
O4    P1    S    
C62   N2    Am   
