data_mof_unit_1551.cif
_audit_creation_date              2012-12-10T18:59:15-0500
_audit_creation_method            fapswitch 2.2
_symmetry_space_group_name_H-M    P1
_symmetry_Int_Tables_number       1
_space_group_crystal_system       triclinic
_cell_length_a                    10.776118
_cell_length_b                    10.829612
_cell_length_c                    9.57197
_cell_angle_alpha                 90.325858
_cell_angle_beta                  90.577851
_cell_angle_gamma                 90.506436
_cell_volume                      1116.94108047

loop_
_atom_site_label
_atom_site_type_symbol
_atom_type_description
_atom_site_fract_x
_atom_site_fract_y
_atom_site_fract_z
_atom_type_partial_charge
C1    C     C_R   0.506407 0.262707 0.499577 0.746364
C2    C     C_R   0.065992 0.395679 0.578647 0.102768
C3    C     C_R   0.128968 0.485395 0.498309 -0.101471
C4    C     C_R   0.063721 0.569075 0.416025 -0.198707
C5    C     C_R   0.935818 0.569531 0.417419 -0.203426
C6    C     C_R   0.871124 0.486503 0.501344 -0.100717
C7    C     C_R   0.450537 0.064750 0.604364 0.014545
C8    C     C_R   0.510319 0.128975 0.497526 -0.192392
C9    C     C_R   0.560371 0.061642 0.383613 -0.021919
C10   C     C_R   0.550417 0.932526 0.383676 -0.184737
C11   C     C_R   0.498303 0.870274 0.497354 -0.127294
C12   C     C_R   0.262695 0.495265 0.499443 0.786006
C13   C     C_R   0.443228 0.937812 0.603524 0.090292
C14   C     C_3   0.457764 0.928652 0.758392 -0.497206
C15   C     C_3   0.468646 0.068914 0.760187 -0.171848
C16   C     C_R   0.560250 0.591246 0.074903 0.249249
C17   C     C_R   0.430634 0.415635 0.070846 0.065247
C18   C     C_R   0.431017 0.417528 0.922278 0.032573
C19   C     C_R   0.560288 0.591095 0.927834 0.237046
C20   C     C_3   0.695257 0.621936 0.923469 -0.469193
C21   C     C_3   0.695405 0.621895 0.082072 -0.483394
C22   C     C_R   0.499875 0.737295 0.500058 0.815481
C23   C     C_R   0.737322 0.495163 0.500578 0.773043
C24   C     C_R   0.130198 0.302811 0.652740 -0.185725
C25   C     C_R   0.065923 0.215421 0.730712 -0.125289
C26   C     C_R   0.937021 0.216817 0.733908 -0.118408
C27   C     C_R   0.871451 0.305165 0.658444 -0.192774
C28   C     C_R   0.934743 0.396570 0.580888 0.088326
Cu1   Cu    Cu3+1 0.499990 0.499980 0.640670 0.949277
Cu2   Cu    Cu3+1 0.500010 0.500020 0.359330 0.934219
H1    H     H_    0.112253 0.636662 0.353202 0.156838
H2    H     H_    0.751624 0.546356 0.878280 0.231540
H3    H     H_    0.712770 0.714801 0.878510 0.188506
H4    H     H_    0.751915 0.546236 0.127080 0.226285
H5    H     H_    0.229993 0.294799 0.649210 0.141919
H6    H     H_    0.116362 0.145290 0.787377 0.150920
H7    H     H_    0.887763 0.147904 0.793636 0.150845
H8    H     H_    0.771387 0.299242 0.659921 0.157391
H9    H     H_    0.886936 0.637213 0.355125 0.148944
H10   H     H_    0.591888 0.879867 0.299826 0.184164
H11   H     H_    0.371543 0.894137 0.808238 0.203389
N1    N     N_R   0.500790 0.500930 0.147930 -0.235441
N2    N     N_R   0.500790 0.500890 0.852020 -0.207215
O1    O     O_R   0.500000 0.319640 0.618810 -0.576367
O2    O     O_R   0.500010 0.319680 0.381230 -0.611339
O3    O     O_R   0.319640 0.499980 0.618820 -0.583307
O4    O     O_R   0.319650 0.500020 0.381230 -0.609564
O5    O     O_R   0.499990 0.680320 0.618770 -0.575294
O6    O     O_R   0.500000 0.680360 0.381190 -0.581104
O7    O     O_R   0.680350 0.499980 0.618770 -0.581093
O8    O     O_R   0.680360 0.500020 0.381180 -0.584272
H12   H     H_    0.543461 0.879107 0.790329 0.193749
H13   H     H_    0.390708 0.114941 0.814444 0.196040
C29   C     C_2   0.595782 0.113474 0.804548 0.498294
H14   H     H_    0.677644 0.074049 0.757326 0.023607
O9    O     O_2   0.607666 0.194090 0.893276 -0.511470
C30   C     C_2   0.354024 0.318017 0.136790 0.391491
H15   H     H_    0.318281 0.327395 0.240454 0.131889
O10   O     O_2   0.327240 0.223352 0.072910 -0.576255
H16   H     H_    0.376829 0.350856 0.862508 0.160076
H17   H     H_    0.713268 0.714695 0.128655 0.195453
C31   C     C_2   0.634634 0.121171 0.272038 0.429225
H18   H     H_    0.674249 0.212705 0.286761 0.087352
O11   O     O_2   0.655399 0.066828 0.162724 -0.525133

loop_
_geom_bond_atom_site_label_1
_geom_bond_atom_site_label_2
_ccdc_geom_bond_type
C22   O5    A    
Cu2   O8    S    
C26   H7    S    
C31   H18   S    
C3    C12   S    
C13   C14   S    
C1    C8    S    
C2    C28   A    
C9    C10   A    
Cu2   O2    S    
C21   H17   S    
C19   C20   S    
Cu1   O3    S    
C20   C21   S    
C7    C15   S    
C2    C3    A    
C26   C27   A    
C7    C8    A    
C25   H6    S    
C18   N2    A    
Cu1   N2    S    
C4    C5    A    
C11   C13   A    
C1    O2    A    
C30   H15   S    
C16   C21   S    
C14   H11   S    
C20   H3    S    
C15   H13   S    
C18   H16   S    
Cu2   O6    S    
C19   N2    A    
C17   C18   A    
C27   H8    S    
Cu1   O7    S    
C12   O4    A    
Cu1   O1    S    
C2    C24   A    
C5    C6    A    
C29   O9    D    
C30   O10   D    
C24   H5    S    
C10   C11   A    
C6    C23   S    
Cu1   O5    S    
Cu1   Cu2   S    
C3    C4    A    
C4    H1    S    
C15   C29   S    
C16   N1    A    
Cu2   O4    S    
C7    C13   A    
C14   H12   S    
C24   C25   A    
C11   C22   S    
C10   H10   S    
C17   N1    A    
C20   H2    S    
C22   O6    A    
C27   C28   A    
C5    H9    S    
C14   C15   S    
Cu2   N1    S    
C23   O7    A    
C31   O11   D    
C21   H4    S    
C1    O1    A    
C25   C26   A    
C29   H14   S    
C23   O8    A    
C6    C28   A    
C9    C31   S    
C17   C30   S    
C8    C9    A    
C12   O3    A    
C16   C19   A    
