data_mof_unit_684.cif
_audit_creation_date              2012-12-10T17:52:01-0500
_audit_creation_method            fapswitch 2.2
_symmetry_space_group_name_H-M    P1
_symmetry_Int_Tables_number       1
_space_group_crystal_system       triclinic
_cell_length_a                    14.667847
_cell_length_b                    14.859402
_cell_length_c                    19.370022
_cell_angle_alpha                 76.44575
_cell_angle_beta                  103.541729
_cell_angle_gamma                 115.025199
_cell_volume                      3674.98022324

loop_
_atom_site_label
_atom_site_type_symbol
_atom_type_description
_atom_site_fract_x
_atom_site_fract_y
_atom_site_fract_z
_atom_type_partial_charge
C1    C     C_R   0.879564 0.312493 0.511205 0.801698
C2    C     C_R   0.120052 0.687424 0.488167 0.805119
C3    C     C_R   0.810426 0.205599 0.521098 -0.100072
C4    C     C_R   0.187856 0.793730 0.488883 -0.091461
C5    C     C_R   0.786370 0.031034 0.563546 -0.199816
C6    C     C_R   0.215928 0.959565 0.508060 -0.202010
C7    C     C_R   0.850664 0.132081 0.551763 -0.243087
C8    C     C_R   0.150189 0.861496 0.498883 -0.245704
C9    C     C_R   0.703338 0.176072 0.502997 0.169780
C10   C     C_R   0.292686 0.826255 0.486517 0.189931
C11   C     C_R   0.638858 0.076730 0.526251 0.049467
C12   C     C_R   0.360823 0.919075 0.508106 0.050011
C13   C     C_R   0.680690 0.002674 0.550364 0.116077
C14   C     C_R   0.321062 0.988853 0.513014 0.114754
C15   C     C_R   0.532790 0.048004 0.522959 0.074043
C16   C     C_R   0.467667 0.945740 0.523160 0.071591
C17   C     C_R   0.511089 0.872935 0.545006 -0.176711
C18   C     C_R   0.491172 0.116863 0.525985 -0.175166
C19   C     C_R   0.616156 0.901273 0.560635 -0.225291
C20   C     C_R   0.386979 0.086807 0.523131 -0.226782
C21   C     C_R   0.719067 0.674280 0.382766 -0.018567
C22   C     C_R   0.279857 0.324385 0.616657 -0.020030
C23   C     C_R   0.001289 0.501479 0.632494 0.809424
C24   C     C_R   0.999104 0.499167 0.367434 0.799522
C25   C     C_R   0.799705 0.641381 0.402084 0.060633
C26   C     C_R   0.200855 0.359638 0.598842 0.061495
C27   C     C_R   0.713976 0.508676 0.488445 -0.018134
C28   C     C_R   0.283693 0.487494 0.509064 -0.020311
C29   C     C_R   0.628058 0.534922 0.471769 -0.041093
C30   C     C_R   0.369177 0.460561 0.525458 -0.039628
C31   C     C_R   0.631750 0.619392 0.417835 0.111285
C32   C     C_R   0.365930 0.376998 0.580082 0.114578
C33   C     C_R   0.539912 0.481257 0.507443 0.096685
C34   C     C_R   0.456634 0.513052 0.489044 0.089622
C35   C     C_R   0.463914 0.597002 0.435250 -0.232379
C36   C     C_R   0.532333 0.396923 0.561022 -0.233876
C37   C     C_R   0.548508 0.648181 0.400589 -0.203220
C38   C     C_R   0.448213 0.346764 0.596371 -0.220770
C39   C     C_R   0.095069 0.522617 0.758366 0.247105
C40   C     C_R   0.907436 0.482066 0.240638 0.246207
C41   C     C_R   0.094176 0.525360 0.829882 -0.222719
C42   C     C_R   0.909586 0.481462 0.168989 -0.221382
C43   C     C_R   0.003772 0.508250 0.853082 0.020898
C44   C     C_R   0.000416 0.499002 0.146232 0.020591
C45   C     C_R   0.913951 0.491053 0.803201 -0.160200
C46   C     C_R   0.089578 0.514870 0.196668 -0.159100
C47   C     C_R   0.914255 0.489688 0.731619 -0.248912
C48   C     C_R   0.088042 0.514071 0.268462 -0.249588
C49   C     C_R   0.004010 0.504371 0.708475 -0.068479
C50   C     C_R   0.997672 0.498441 0.291242 -0.069773
C51   C     C_R   0.001611 0.501444 0.069956 0.425890
C52   C     C_R   0.003219 0.506969 0.929274 0.426148
Cu1   Cu    Cu3+1 0.081740 0.475680 0.518680 0.939820
Cu2   Cu    Cu3+1 0.918260 0.524320 0.481320 0.935577
H1    H     H_    0.547245 0.711554 0.359884 0.140407
H2    H     H_    0.449281 0.283371 0.637117 0.138498
H3    H     H_    0.276128 0.544566 0.465286 0.126910
H4    H     H_    0.719450 0.448223 0.530013 0.120492
H5    H     H_    0.133938 0.322972 0.624757 0.124105
H6    H     H_    0.867787 0.679974 0.377543 0.126145
H7    H     H_    0.405268 0.626209 0.418387 0.134175
H8    H     H_    0.590551 0.366924 0.577460 0.120551
H9    H     H_    0.164591 0.539892 0.867334 0.155922
H10   H     H_    0.839681 0.468158 0.131082 0.155864
H11   H     H_    0.843046 0.478066 0.819420 0.158850
H12   H     H_    0.160809 0.528292 0.180742 0.158566
H13   H     H_    0.843586 0.475617 0.694458 0.158508
H14   H     H_    0.158216 0.527183 0.306092 0.158733
H15   H     H_    0.646911 0.843580 0.579459 0.147976
H16   H     H_    0.357870 0.140781 0.527806 0.148687
H17   H     H_    0.069842 0.838606 0.499869 0.167925
H18   H     H_    0.932137 0.152370 0.565317 0.160485
H19   H     H_    0.819302 0.975194 0.584143 0.142939
H20   H     H_    0.184903 0.011555 0.513621 0.143711
H21   H     H_    0.464727 0.793715 0.555569 0.153507
H22   H     H_    0.539111 0.192649 0.535751 0.145600
N1    N     N_R   0.915959 0.489429 0.952431 -0.246661
N2    N     N_R   0.088940 0.519097 0.046809 -0.246041
N3    N     N_R   0.915226 0.486815 0.021370 -0.247413
N4    N     N_R   0.089675 0.521715 0.977836 -0.246739
N5    N     N_R   0.795420 0.560800 0.453240 -0.186628
N6    N     N_R   0.204580 0.439200 0.546760 -0.187185
O1    O     O_R   0.977910 0.338110 0.524620 -0.592818
O2    O     O_R   0.022090 0.661890 0.475380 -0.596388
O3    O     O_R   0.839850 0.379180 0.493080 -0.583567
O4    O     O_R   0.160150 0.620820 0.506920 -0.581625
O5    O     O_R   0.069040 0.479450 0.615630 -0.548232
O6    O     O_R   0.930960 0.520550 0.384370 -0.547823
O7    O     O_R   0.930990 0.520520 0.584090 -0.590581
O8    O     O_R   0.069010 0.479480 0.415910 -0.588597
N7    N     N_2   0.188533 0.541484 0.736735 -0.414379
H23   H     H_    0.246993 0.605885 0.752486 0.243428
C53   C     C_3   0.218077 0.456388 0.756161 -0.653314
H24   H     H_    0.238512 0.440517 0.815429 0.209904
H25   H     H_    0.285145 0.473252 0.730764 0.227770
H26   H     H_    0.154897 0.388697 0.737058 0.224416
N8    N     N_2   0.813456 0.463042 0.261522 -0.424288
H27   H     H_    0.754621 0.400461 0.243450 0.238304
C54   C     C_3   0.785785 0.549219 0.244207 -0.651421
H28   H     H_    0.767081 0.568298 0.185044 0.210023
H29   H     H_    0.849330 0.615115 0.265343 0.225594
H30   H     H_    0.718093 0.531746 0.269090 0.227535
C55   C     C_3   0.725185 0.767294 0.326606 -0.431606
C56   C     C_3   0.825134 0.823920 0.295055 -0.370405
C57   C     C_3   0.822624 0.916671 0.241565 -0.818769
H31   H     H_    0.759195 0.894582 0.196388 0.252327
H32   H     H_    0.812714 0.969493 0.268527 0.252822
H33   H     H_    0.895435 0.955790 0.219509 0.243240
H34   H     H_    0.890168 0.848686 0.338891 0.219780
H35   H     H_    0.837071 0.774021 0.266513 0.212539
H36   H     H_    0.661826 0.744005 0.281486 0.204416
H37   H     H_    0.714116 0.821123 0.351900 0.210222
C58   C     C_3   0.273165 0.231163 0.672697 -0.431144
C59   C     C_3   0.173896 0.176285 0.705203 -0.371344
C60   C     C_3   0.175121 0.082530 0.757930 -0.821378
H38   H     H_    0.182518 0.029076 0.730099 0.252019
H39   H     H_    0.239557 0.103203 0.802663 0.253588
H40   H     H_    0.102861 0.044732 0.780724 0.242272
H41   H     H_    0.164378 0.226854 0.734567 0.213277
H42   H     H_    0.107882 0.152899 0.661788 0.213135
H43   H     H_    0.282051 0.176464 0.646910 0.203273
H44   H     H_    0.337552 0.253653 0.717307 0.205926
N9    N     N_2   0.328250 0.775316 0.451809 -0.438321
H45   H     H_    0.327535 0.706918 0.479098 0.255765
C61   C     C_3   0.293137 0.777521 0.375352 -0.679616
H46   H     H_    0.335999 0.748855 0.352031 0.214476
H47   H     H_    0.306521 0.855844 0.348433 0.241569
H48   H     H_    0.210804 0.729437 0.364820 0.210310
N10   N     N_2   0.659477 0.238693 0.451808 -0.432910
H49   H     H_    0.664332 0.302213 0.467617 0.263129
C62   C     C_3   0.673058 0.250142 0.378238 -0.616547
H50   H     H_    0.629488 0.293445 0.342564 0.220757
H51   H     H_    0.644150 0.175220 0.361247 0.223442
H52   H     H_    0.754728 0.291000 0.372401 0.228239

loop_
_geom_bond_atom_site_label_1
_geom_bond_atom_site_label_2
_ccdc_geom_bond_type
C15   C18   A    
Cu2   O6    S    
C53   H24   S    
C27   C29   A    
C2    O2    A    
C4    C8    A    
C62   H52   S    
Cu2   O2    S    
N8    H27   S    
N9    H45   S    
C39   C41   A    
C28   H3    S    
C21   C31   A    
C22   C32   A    
C35   C37   A    
C46   H12   S    
C3    C7    A    
C56   H34   S    
N2    N4    A    
C43   C52   S    
C23   C49   S    
N7    C53   S    
C15   C16   A    
C29   C33   A    
C33   C36   A    
C55   H36   S    
C34   C35   A    
C47   H13   S    
C55   C56   S    
C11   C15   A    
C22   C58   S    
C58   H44   S    
C12   C16   A    
C16   C17   A    
C60   H39   S    
C61   H48   S    
C23   O7    A    
Cu1   O4    S    
C25   H6    S    
C32   C38   A    
C26   H5    S    
C5    C13   A    
C59   H41   S    
C48   C50   A    
C53   H25   S    
C23   O5    A    
C25   N5    A    
C41   C43   A    
C20   H16   S    
C42   C44   A    
C36   H8    S    
C39   N7    S    
C56   C57   S    
N8    C54   S    
C44   C46   A    
C6    H20   S    
C45   C47   A    
C24   C50   S    
C57   H33   S    
C46   C48   A    
C30   C34   A    
C28   N6    A    
C14   C20   A    
C27   N5    A    
Cu2   O7    S    
Cu1   O5    S    
C10   N9    S    
C40   N8    S    
C5    C7    A    
C13   C19   A    
C6    C8    A    
Cu1   Cu2   S    
C31   C37   A    
C55   H37   S    
C1    C3    S    
C21   C55   S    
C2    C4    S    
C3    C9    A    
C6    C14   A    
C57   H32   S    
C54   H28   S    
C7    H18   S    
C60   H40   S    
C33   C34   A    
N1    N3    A    
C38   H2    S    
C35   H7    S    
C48   H14   S    
C43   C45   A    
C10   C12   A    
C44   C51   S    
C39   C49   A    
C12   C14   A    
C53   H26   S    
C9    C11   A    
C45   H11   S    
C61   H46   S    
C19   H15   S    
C1    O3    A    
C41   H9    S    
C4    C10   A    
C52   N1    A    
C42   H10   S    
N7    H23   S    
C56   H35   S    
C61   H47   S    
C58   C59   S    
C21   C25   A    
C8    H17   S    
C18   H22   S    
C54   H29   S    
C24   O6    A    
C62   H51   S    
C27   H4    S    
C24   O8    A    
Cu2   O3    S    
C59   C60   S    
C9    N10   S    
C1    O1    A    
C57   H31   S    
Cu1   O1    S    
C28   C30   A    
N10   H49   S    
C51   N2    A    
C29   C31   A    
C47   C49   A    
C36   C38   A    
C30   C32   A    
C11   C13   A    
C60   H38   S    
C40   C50   A    
C40   C42   A    
C17   C19   A    
C2    O4    A    
C18   C20   A    
C5    H19   S    
C51   N3    A    
N9    C61   S    
C37   H1    S    
C54   H30   S    
C58   H43   S    
C26   N6    A    
C22   C26   A    
Cu1   O8    S    
C17   H21   S    
Cu1   N6    S    
C52   N4    A    
Cu2   N5    S    
C59   H42   S    
C62   H50   S    
N10   C62   S    
