data_mof_unit_3831.cif
_audit_creation_date              2012-12-10T18:42:54-0500
_audit_creation_method            fapswitch 2.2
_symmetry_space_group_name_H-M    P1
_symmetry_Int_Tables_number       1
_space_group_crystal_system       triclinic
_cell_length_a                    18.143216
_cell_length_b                    18.087013
_cell_length_c                    18.057134
_cell_angle_alpha                 120.046782
_cell_angle_beta                  89.874892
_cell_angle_gamma                 60.042799
_cell_volume                      4185.15621405

loop_
_atom_site_label
_atom_site_type_symbol
_atom_type_description
_atom_site_fract_x
_atom_site_fract_y
_atom_site_fract_z
_atom_type_partial_charge
C1    C     C_R   0.891586 0.216646 0.608172 0.781293
C2    C     C_3   0.552182 0.897240 0.948045 -0.242720
C3    C     C_3   0.990023 0.698763 0.698085 -0.296439
C4    C     C_3   0.412221 0.034941 0.030851 -0.500391
C5    C     C_3   0.587394 0.965980 0.968865 -0.470306
C6    C     C_3   0.985357 0.429561 0.446791 0.662910
C7    C     C_3   0.015004 0.570333 0.553396 0.663684
C8    C     C_3   0.079896 0.403845 0.448309 -0.352654
C9    C     C_3   0.920553 0.596022 0.551860 -0.350104
C10   C     C_3   0.051505 0.500426 0.449492 -0.073239
C11   C     C_3   0.948802 0.499473 0.550677 -0.080066
C12   C     C_3   0.957496 0.524796 0.446360 -0.331784
C13   C     C_R   0.108287 0.783350 0.391833 0.786307
C14   C     C_3   0.042924 0.475044 0.553863 -0.329006
C15   C     C_3   0.982803 0.033437 0.446293 -0.127681
C16   C     C_3   0.016836 0.966550 0.553752 -0.131916
C17   C     C_R   0.608672 0.782976 0.891318 0.914536
C18   C     C_R   0.391304 0.217114 0.108512 0.907197
C19   C     C_3   0.956825 0.964617 0.447781 -0.172434
C20   C     C_3   0.042820 0.035360 0.552261 -0.176880
C21   C     C_3   0.050886 0.897912 0.449488 0.053566
C22   C     C_3   0.948775 0.102080 0.550552 0.056561
C23   C     C_3   0.077755 0.964926 0.447160 -0.183134
C24   C     C_3   0.523146 0.513815 0.439935 -0.532965
C25   C     C_3   0.921879 0.035081 0.552896 -0.182949
C26   C     C_3   0.932721 0.510304 0.037660 0.427626
C27   C     C_3   0.073629 0.484927 0.955088 0.457877
C28   C     C_3   0.958870 0.587210 0.078060 0.392407
C29   C     C_3   0.046793 0.407969 0.914735 0.502823
C30   C     C_3   0.058060 0.494473 0.044764 -0.258134
C31   C     C_3   0.948469 0.500129 0.948413 -0.187803
C32   C     C_3   0.031253 0.416347 0.003907 -0.481188
C33   C     C_3   0.974466 0.578229 0.988633 -0.448821
C34   C     C_3   0.566067 0.397140 0.929973 0.228021
C35   C     C_3   0.478078 0.480428 0.559707 -0.495725
C36   C     C_3   0.433262 0.598019 0.064669 0.280672
C37   C     C_3   0.463203 0.448680 0.947536 0.243957
C38   C     C_3   0.535056 0.547318 0.048080 0.259636
C39   C     C_3   0.448387 0.499067 0.050246 -0.305279
C40   C     C_3   0.551235 0.497009 0.945505 -0.315520
C41   C     C_R   0.608523 0.498796 0.890292 0.945761
C42   C     C_R   0.391437 0.500068 0.108524 0.948552
C43   C     C_3   0.551190 0.447926 0.032284 0.350532
C44   C     C_3   0.449075 0.547091 0.962119 0.368978
C45   C     C_R   0.891586 0.499815 0.608168 0.827601
C46   C     C_3   0.471746 0.965560 0.930103 0.477885
C47   C     C_R   0.108455 0.500179 0.391853 0.816316
C48   C     C_R   0.890581 0.500808 0.892382 0.915788
C49   C     C_R   0.111389 0.497382 0.105621 0.872536
C50   C     C_R   0.608750 0.499153 0.608275 0.862468
C51   C     C_R   0.391299 0.500065 0.391696 0.840017
C52   C     C_3   0.489199 0.589105 0.544923 0.438494
C53   C     C_3   0.511493 0.405075 0.454872 0.444131
C54   C     C_3   0.415223 0.572781 0.552911 0.535404
C55   C     C_3   0.585522 0.421658 0.447056 0.541092
C56   C     C_3   0.448405 0.497083 0.448431 -0.251922
C57   C     C_3   0.528279 0.034666 0.069361 0.483807
C58   C     C_3   0.552159 0.497362 0.550997 -0.211384
C59   C     C_3   0.309351 0.692398 0.696584 -0.257533
C60   C     C_3   0.690544 0.296953 0.302815 -0.219935
C61   C     C_3   0.828483 0.754070 0.179093 0.083598
C62   C     C_3   0.771291 0.826384 0.279538 -0.328133
C63   C     C_3   0.674211 0.909027 0.297318 -0.968787
C64   C     C_3   0.153634 0.226458 0.815111 0.104019
C65   C     C_3   0.241613 0.217497 0.822308 -0.380383
C66   C     C_3   0.314049 0.113542 0.806107 -0.874991
C67   C     C_3   0.859288 0.527894 0.156954 0.122309
C68   C     C_3   0.505608 0.034177 0.951311 0.514521
C69   C     C_3   0.865949 0.433151 0.141253 -0.374082
C70   C     C_3   0.848027 0.444390 0.230112 -0.964322
C71   C     C_3   0.182336 0.518042 0.944560 0.104453
C72   C     C_3   0.114496 0.637451 0.997515 -0.376911
C73   C     C_3   0.161875 0.691896 0.030356 -0.900402
C74   C     C_3   0.463432 0.309958 0.831058 0.061687
C75   C     C_3   0.403887 0.286534 0.777606 -0.342907
C76   C     C_3   0.458061 0.173719 0.693275 -0.968592
C77   C     C_3   0.537188 0.657662 0.187510 0.138845
C78   C     C_3   0.601111 0.680142 0.233256 -0.349882
C79   C     C_3   0.493974 0.966590 0.048754 0.462103
C80   C     C_3   0.559579 0.749846 0.336576 -1.011273
C81   C     C_3   0.659131 0.215487 0.859535 0.107149
C82   C     C_3   0.760163 0.144345 0.841062 -0.291978
C83   C     C_3   0.783366 0.050984 0.841489 -0.989978
C84   C     C_3   0.315188 0.771860 0.123608 0.103910
C85   C     C_3   0.369178 0.806163 0.101182 -0.282309
C86   C     C_3   0.316601 0.876980 0.070987 -0.940416
C87   C     C_3   0.681264 0.381506 0.067502 -0.252312
C88   C     C_3   0.416494 0.529621 0.832188 -0.222675
C89   C     C_3   0.522239 0.704013 0.557878 0.100102
C90   C     C_3   0.447817 0.102994 0.051467 -0.201915
C91   C     C_3   0.622644 0.643305 0.548000 -0.348706
C92   C     C_3   0.672522 0.672272 0.512001 -0.964391
C93   C     C_3   0.461203 0.295970 0.391354 0.111262
C94   C     C_3   0.385057 0.353757 0.478132 -0.411090
C95   C     C_3   0.313895 0.332264 0.455304 -0.928949
C96   C     C_3   0.576205 0.002096 0.822266 -0.319640
C97   C     C_3   0.431990 0.003322 0.184157 -0.326473
C98   C     C_3   0.383266 0.911258 0.865446 -0.271726
C99   C     C_3   0.635074 0.003587 0.139194 -0.318109
C100  C     C_3   0.022209 0.288635 0.303974 -0.314945
H1    H     H_    0.922757 0.933340 0.403873 0.140281
H2    H     H_    0.460959 0.466748 0.608626 0.166176
H3    H     H_    0.642110 0.978094 0.833796 0.162266
H4    H     H_    0.570367 0.036354 0.784241 0.168882
H5    H     H_    0.361769 0.044454 0.183748 0.162857
H6    H     H_    0.448773 0.060194 0.223056 0.193691
H7    H     H_    0.435015 0.967901 0.220484 0.182277
H8    H     H_    0.317091 0.988119 0.911160 0.145125
H9    H     H_    0.402231 0.864177 0.893408 0.187422
H10   H     H_    0.375312 0.868224 0.799477 0.211742
H11   H     H_    0.690126 0.972444 0.081918 0.168502
H12   H     H_    0.634764 0.938881 0.131808 0.191853
H13   H     H_    0.340889 0.065353 0.057752 0.181958
H14   H     H_    0.649732 0.040465 0.202207 0.190594
H15   H     H_    0.090718 0.230741 0.297695 0.157201
H16   H     H_    0.026369 0.330231 0.276788 0.165194
H17   H     H_    0.995550 0.244753 0.261293 0.191989
H18   H     H_    0.011824 0.645289 0.719586 0.163825
H19   H     H_    0.915437 0.745622 0.714960 0.157065
H20   H     H_    0.007819 0.754283 0.737784 0.189325
H21   H     H_    0.658711 0.935911 0.942546 0.181041
H22   H     H_    0.145595 0.326007 0.404855 0.157963
H23   H     H_    0.855025 0.674066 0.595356 0.155058
H24   H     H_    0.924352 0.544197 0.401135 0.156005
H25   H     H_    0.076100 0.455912 0.599264 0.164239
H26   H     H_    0.357807 0.711038 0.721941 0.181778
H27   H     H_    0.313389 0.635247 0.707242 0.141492
H28   H     H_    0.240349 0.765808 0.737691 0.179357
H29   H     H_    0.076884 0.066624 0.596182 0.138276
H30   H     H_    0.681886 0.352509 0.287372 0.151396
H31   H     H_    0.644647 0.272739 0.280120 0.193689
H32   H     H_    0.760864 0.225840 0.262960 0.174283
H33   H     H_    0.794610 0.718643 0.138966 0.162089
H34   H     H_    0.831918 0.800677 0.157876 0.141052
H35   H     H_    0.770660 0.779013 0.301299 0.214940
H36   H     H_    0.801762 0.865939 0.320838 0.225841
H37   H     H_    0.672796 0.961568 0.281653 0.262830
H38   H     H_    0.634020 0.956859 0.370047 0.269377
H39   H     H_    0.642817 0.871479 0.255234 0.268371
H40   H     H_    0.967927 0.062706 0.403115 0.157049
H41   H     H_    0.169199 0.159553 0.746524 0.158708
H42   H     H_    0.127065 0.217966 0.863747 0.122204
H43   H     H_    0.266676 0.223648 0.770889 0.249729
H44   H     H_    0.229210 0.281859 0.890866 0.224471
H45   H     H_    0.291056 0.107095 0.858309 0.275286
H46   H     H_    0.376904 0.109270 0.810782 0.298564
H47   H     H_    0.329271 0.046943 0.737505 0.254402
H48   H     H_    0.796182 0.600903 0.213412 0.151408
H49   H     H_    0.915956 0.529435 0.179819 0.148384
H50   H     H_    0.816094 0.424544 0.109205 0.230373
H51   H     H_    0.031668 0.937301 0.596946 0.157649
H52   H     H_    0.934457 0.361169 0.094112 0.214153
H53   H     H_    0.896309 0.454872 0.263942 0.268043
H54   H     H_    0.856494 0.372889 0.216030 0.270693
H55   H     H_    0.777989 0.512837 0.276345 0.265799
H56   H     H_    0.237602 0.493824 0.892355 0.188711
H57   H     H_    0.215583 0.493472 0.986961 0.172255
H58   H     H_    0.079573 0.656749 0.952904 0.220248
H59   H     H_    0.063366 0.668229 0.057877 0.246121
H60   H     H_    0.196880 0.674142 0.075503 0.302112
H61   H     H_    0.111367 0.777904 0.069126 0.244548
H62   H     H_    0.142721 0.933888 0.402696 0.140227
H63   H     H_    0.211805 0.665701 0.971628 0.272726
H64   H     H_    0.492474 0.256938 0.853037 0.160157
H65   H     H_    0.517038 0.296501 0.785514 0.166975
H66   H     H_    0.349557 0.300040 0.821920 0.237834
H67   H     H_    0.372357 0.340068 0.756261 0.214654
H68   H     H_    0.513145 0.158172 0.647908 0.263097
H69   H     H_    0.412906 0.160159 0.655468 0.270149
H70   H     H_    0.487498 0.118510 0.712901 0.262460
H71   H     H_    0.521382 0.618341 0.209995 0.154740
H72   H     H_    0.474127 0.733538 0.209726 0.178944
H73   H     H_    0.856918 0.066110 0.597366 0.138654
H74   H     H_    0.664437 0.605169 0.211982 0.226868
H75   H     H_    0.617834 0.719100 0.211380 0.241529
H76   H     H_    0.496489 0.826327 0.359949 0.271854
H77   H     H_    0.608076 0.764109 0.367260 0.270642
H78   H     H_    0.544253 0.711181 0.359969 0.262226
H79   H     H_    0.642867 0.167528 0.804021 0.121914
H80   H     H_    0.619537 0.240715 0.924739 0.183075
H81   H     H_    0.799024 0.115113 0.773676 0.220999
H82   H     H_    0.780996 0.189021 0.893277 0.218191
H83   H     H_    0.746213 0.078241 0.908679 0.276121
H84   H     H_    0.053645 0.353052 0.013142 0.176589
H85   H     H_    0.856994 0.000994 0.828008 0.265598
H86   H     H_    0.765465 0.003206 0.787802 0.258405
H87   H     H_    0.255464 0.842300 0.185354 0.142400
H88   H     H_    0.286910 0.743452 0.070231 0.197031
H89   H     H_    0.383484 0.849053 0.162324 0.199275
H90   H     H_    0.434724 0.737337 0.046066 0.264327
H91   H     H_    0.300788 0.835784 0.010348 0.274641
H92   H     H_    0.357863 0.898138 0.052560 0.287939
H93   H     H_    0.252761 0.949842 0.126747 0.240715
H94   H     H_    0.673356 0.448262 0.130520 0.175210
H95   H     H_    0.949138 0.644609 0.983098 0.176009
H96   H     H_    0.712508 0.371438 0.007009 0.190426
H97   H     H_    0.728695 0.310122 0.064481 0.162594
H98   H     H_    0.488342 0.460691 0.794768 0.142696
H99   H     H_    0.400061 0.570680 0.798865 0.163228
H100  H     H_    0.371433 0.503742 0.826027 0.176388
H101  H     H_    0.493276 0.788890 0.600698 0.181065
H102  H     H_    0.513189 0.685850 0.491394 0.124895
H103  H     H_    0.629009 0.660980 0.615176 0.220406
H104  H     H_    0.655296 0.557897 0.499912 0.237843
H105  H     H_    0.667127 0.655110 0.444766 0.266018
H106  H     H_    0.541444 0.524425 0.389011 0.177971
H107  H     H_    0.745059 0.625591 0.504018 0.278380
H108  H     H_    0.643908 0.756695 0.560181 0.258180
H109  H     H_    0.488172 0.211718 0.351154 0.190015
H110  H     H_    0.435269 0.321105 0.346994 0.142626
H111  H     H_    0.413780 0.327865 0.521655 0.231968
H112  H     H_    0.351038 0.439492 0.516875 0.242281
H113  H     H_    0.284156 0.358114 0.412077 0.253568
H114  H     H_    0.259030 0.376158 0.518920 0.276794
H115  H     H_    0.344371 0.247406 0.418905 0.250474
H116  H     H_    0.574551 0.932788 0.779278 0.196117
O1    O     O_3   0.750010 0.499980 0.749990 -0.512529
O2    O     O_R   0.305750 0.265450 0.132730 -0.662944
O3    O     O_R   0.867280 0.265410 0.571220 -0.636364
O4    O     O_R   0.132720 0.734590 0.428780 -0.636123
O5    O     O_R   0.571230 0.734580 0.867270 -0.628213
O6    O     O_R   0.428770 0.265420 0.132730 -0.609096
O7    O     O_R   0.694200 0.438470 0.867270 -0.608590
O8    O     O_R   0.305800 0.561530 0.132730 -0.641077
O9    O     O_R   0.867340 0.561470 0.694210 -0.658708
O10   O     O_R   0.132660 0.438530 0.305790 -0.663659
O11   O     O_R   0.867310 0.438430 0.867270 -0.614044
O12   O     O_3   0.249990 0.500020 0.250010 -0.509872
O13   O     O_R   0.132690 0.561570 0.132730 -0.648385
O14   O     O_R   0.694200 0.438520 0.571220 -0.607456
O15   O     O_R   0.305800 0.561480 0.428780 -0.596350
O16   O     O_R   0.867340 0.561440 0.867270 -0.656912
O17   O     O_R   0.132660 0.438560 0.132730 -0.646476
O18   O     O_R   0.571190 0.561530 0.694210 -0.648176
O19   O     O_R   0.428810 0.438470 0.305790 -0.649931
O20   O     O_3   0.323186 0.654774 0.604540 -0.565947
O21   O     O_3   0.677772 0.340437 0.395776 -0.570460
O22   O     O_3   0.916520 0.678732 0.167661 -0.648327
O23   O     O_R   0.571190 0.561490 0.867270 -0.638915
O24   O     O_3   0.088649 0.319093 0.823249 -0.629481
O25   O     O_3   0.854871 0.526261 0.077971 -0.642121
O26   O     O_3   0.146042 0.462024 0.897281 -0.654448
O27   O     O_3   0.409732 0.413862 0.908632 -0.655939
O28   O     O_3   0.578393 0.595171 0.092409 -0.636518
O29   O     O_3   0.641128 0.298722 0.855378 -0.644365
O30   O     O_3   0.365387 0.698443 0.143465 -0.664295
O31   O     O_3   0.597307 0.395680 0.071858 -0.591678
O32   O     O_3   0.399759 0.600813 0.924510 -0.612351
O33   O     O_3   0.472873 0.688719 0.602580 -0.638252
O34   O     O_R   0.428810 0.438510 0.132730 -0.613237
O35   O     O_3   0.534759 0.301911 0.408620 -0.629779
O36   O     O_3   0.503937 0.078814 0.905273 -0.602789
O37   O     O_3   0.494393 0.922775 0.095204 -0.607205
O38   O     O_3   0.450039 0.925316 0.850393 -0.603199
O39   O     O_3   0.550727 0.080652 0.146832 -0.615345
O40   O     O_3   0.963970 0.358088 0.394708 -0.579174
O41   O     O_3   0.034823 0.643498 0.605035 -0.582273
O42   O     O_R   0.867310 0.438490 0.571220 -0.596648
O43   O     O_R   0.132690 0.561510 0.428780 -0.593054
O44   O     O_R   0.867280 0.265380 0.694210 -0.641527
O45   O     O_R   0.132720 0.734620 0.305790 -0.637033
O46   O     O_R   0.694250 0.734550 0.867270 -0.662234
Zn1   Zn    Zn3+2 0.618190 0.587870 0.793920 0.978610
Zn2   Zn    Zn3+2 0.381810 0.412130 0.206080 1.001630
Zn3   Zn    Zn3+2 0.793940 0.412090 0.793920 1.010209
Zn4   Zn    Zn3+2 0.206060 0.587910 0.206080 0.971450
Zn5   Zn    Zn3+2 0.793970 0.587840 0.793920 0.955990
Zn6   Zn    Zn3+2 0.206030 0.412160 0.206080 0.942428
Zn7   Zn    Zn3+2 0.793940 0.412130 0.618200 1.013260
Zn8   Zn    Zn3+2 0.206060 0.587870 0.381800 1.015397

loop_
_geom_bond_atom_site_label_1
_geom_bond_atom_site_label_2
_ccdc_geom_bond_type
C24   C52   S    
C7    C10   S    
C89   H101  S    
C26   C32   S    
C93   C94   S    
C98   H10   S    
C35   C53   S    
C34   C37   S    
C36   O30   S    
C57   C79   S    
C53   C55   S    
C59   O20   S    
C100  H16   S    
C54   O20   S    
C20   H29   S    
C35   H2    S    
C8    H22   S    
C60   H32   S    
C99   H14   S    
C13   O45   A    
C81   C82   S    
C67   O25   S    
C26   O25   S    
C61   H33   S    
C45   O42   A    
C4    C46   S    
C77   C78   S    
C27   C33   S    
C24   C55   S    
C94   H112  S    
C82   H81   S    
C86   H91   S    
O19   Zn2   S    
C72   H59   S    
C89   O33   S    
C35   C58   S    
O1    Zn1   S    
C69   H50   S    
C88   H99   S    
C51   O19   A    
C19   C21   S    
C87   H96   S    
C29   C32   S    
C48   O11   A    
C86   H93   S    
C6    C12   S    
C65   H43   S    
C11   C14   S    
C78   C80   S    
C53   C56   S    
C67   H49   S    
C64   H41   S    
C71   H56   S    
C81   H79   S    
C59   H27   S    
C77   O28   S    
O15   Zn8   S    
C5    H21   S    
C64   O24   S    
C98   H8    S    
C27   C29   S    
C84   O30   S    
C51   C56   S    
C53   O35   S    
C62   H36   S    
C17   O46   A    
C50   O18   A    
O42   Zn7   S    
C66   H45   S    
C99   O39   S    
C2    C79   S    
O12   Zn6   S    
C28   O22   S    
C37   O27   S    
C15   C22   S    
C95   H115  S    
C47   O43   A    
C28   C30   S    
O1    Zn5   S    
C22   C25   S    
C35   C54   S    
C68   C90   S    
C31   C33   S    
C83   H86   S    
C50   O14   A    
C92   H105  S    
O45   Zn4   S    
C89   C91   S    
O4    Zn8   S    
C52   O33   S    
C29   O24   S    
C91   H104  S    
C91   C92   S    
C16   C20   S    
C1    O44   A    
C97   H5    S    
C68   O36   S    
C15   C23   S    
C89   H102  S    
C1    C22   S    
C93   O35   S    
C98   H9    S    
C27   C30   S    
C29   C31   S    
C63   H37   S    
O34   Zn2   S    
O23   Zn1   S    
C75   H66   S    
C69   C70   S    
C100  H15   S    
C5    C68   S    
C42   O8    A    
C10   C12   S    
C60   H31   S    
C52   C54   S    
C61   H34   S    
O6    Zn2   S    
C39   C42   S    
C4    C90   S    
C7    C14   S    
C71   H57   S    
C54   C56   S    
C74   H64   S    
O7    Zn3   S    
C74   C75   S    
C51   O15   A    
C70   H55   S    
C18   C90   S    
C81   O29   S    
C4    H13   S    
C3    H19   S    
C84   C85   S    
C81   H80   S    
C4    C79   S    
C57   C90   S    
C43   O31   S    
C6    C11   S    
C65   H44   S    
O11   Zn3   S    
C39   C43   S    
C8    C14   S    
C26   C31   S    
C85   H90   S    
C85   C86   S    
C2    C46   S    
C38   C43   S    
C73   H63   S    
C59   H26   S    
C50   C58   S    
C62   H35   S    
C57   O39   S    
C11   C45   S    
C15   C19   S    
C75   C76   S    
C46   C68   S    
C62   C63   S    
C92   H108  S    
C3    H18   S    
C88   O32   S    
C84   H88   S    
C9    C11   S    
C73   H61   S    
C12   H24   S    
C20   C23   S    
C40   C44   S    
C80   H78   S    
C77   H71   S    
C80   H77   S    
C99   H11   S    
C93   H110  S    
C34   O29   S    
C79   O37   S    
C83   H83   S    
C94   C95   S    
C1    O3    A    
C45   O9    A    
C55   O21   S    
C73   H60   S    
C14   H25   S    
C80   H76   S    
C66   H47   S    
C41   O7    A    
O43   Zn8   S    
C52   C58   S    
C74   O27   S    
C48   O16   A    
O18   Zn1   S    
O14   Zn7   S    
C30   C49   S    
C20   C22   S    
C28   C33   S    
C65   C66   S    
O1    Zn3   S    
C31   C48   S    
C21   C23   S    
C93   H109  S    
C78   H75   S    
C95   H113  S    
C63   H38   S    
C34   C40   S    
C36   C44   S    
C2    C5    S    
C87   H97   S    
C60   H30   S    
C36   C38   S    
C18   O2    A    
C27   O26   S    
C88   H98   S    
C10   C47   S    
C97   O37   S    
C15   H40   S    
C41   O23   A    
C72   H58   S    
C67   C69   S    
C16   C25   S    
C7    C9    S    
C84   H87   S    
C40   C41   S    
C30   C32   S    
C49   O17   A    
C70   H54   S    
C69   H52   S    
C63   H39   S    
C32   H84   S    
C36   C39   S    
C34   C43   S    
C71   O26   S    
C72   C73   S    
O5    Zn1   S    
C61   C62   S    
C6    C8    S    
O13   Zn4   S    
C16   C21   S    
C87   O31   S    
C60   O21   S    
C70   H53   S    
C24   C56   S    
C38   O28   S    
C82   H82   S    
C26   C28   S    
C96   H116  S    
O16   Zn5   S    
C5    C57   S    
C76   H70   S    
C6    O40   S    
C64   C65   S    
C23   H62   S    
C37   C44   S    
C96   H4    S    
C59   H28   S    
O2    Zn6   S    
C37   C39   S    
C92   H107  S    
O12   Zn8   S    
C13   C21   S    
O17   Zn6   S    
C38   C40   S    
C19   H1    S    
C88   H100  S    
C96   H3    S    
C47   O10   A    
C64   H42   S    
C33   H95   S    
O1    Zn7   S    
C77   H72   S    
C61   O22   S    
C99   H12   S    
O12   Zn4   S    
C24   H106  S    
C9    H23   S    
C18   O6    A    
O9    Zn5   S    
C76   H68   S    
C16   H51   S    
C13   O4    A    
C49   O13   A    
C76   H69   S    
C19   C25   S    
C9    C12   S    
C86   H92   S    
C66   H46   S    
C3    O41   S    
C17   O5    A    
C3    H20   S    
C44   O32   S    
C97   H7    S    
C25   H73   S    
C94   H111  S    
C71   C72   S    
O46   Zn5   S    
C42   O34   A    
C8    C10   S    
C82   C83   S    
C55   C58   S    
C67   H48   S    
C78   H74   S    
C95   H114  S    
C96   O36   S    
C83   H85   S    
O8    Zn4   S    
C75   H67   S    
C100  H17   S    
C98   O38   S    
O3    Zn7   S    
O44   Zn3   S    
C100  O40   S    
C7    O41   S    
C85   H89   S    
C46   O38   S    
C74   H65   S    
C91   H103  S    
O12   Zn2   S    
O10   Zn6   S    
C87   H94   S    
C2    C17   S    
C97   H6    S    
