data_mof_unit_1993.cif
_audit_creation_date              2013-03-05T15:44:41-0500
_audit_creation_method            fapswitch 2.2
_symmetry_space_group_name_H-M    P1
_symmetry_Int_Tables_number       1
_space_group_crystal_system       triclinic
_cell_length_a                    10.526471
_cell_length_b                    10.748001
_cell_length_c                    10.082564
_cell_angle_alpha                 90.702017
_cell_angle_beta                  89.417269
_cell_angle_gamma                 91.117718
_cell_volume                      1140.367448

loop_
_atom_site_label
_atom_site_type_symbol
_atom_site_description
_atom_site_fract_x
_atom_site_fract_y
_atom_site_fract_z
_atom_type_partial_charge
O1    O     O_R   0.499980 0.319060 0.613040 -0.584296
O2    O     O_R   0.500020 0.319100 0.386900 -0.563798
C1    C     C_R   0.496073 0.262841 0.498822 1.010662
O3    O     O_R   0.313930 0.499950 0.613050 -0.570634
O4    O     O_R   0.313970 0.499990 0.386910 -0.581024
C2    C     C_R   0.257733 0.496093 0.500344 0.968774
Zn1   Zn    Zn3+2 0.499970 0.499970 0.650990 1.092482
Zn2   Zn    Zn3+2 0.500030 0.500030 0.349010 1.188897
O5    O     O_R   0.499980 0.680900 0.613100 -0.567531
O6    O     O_R   0.500020 0.680940 0.386960 -0.580987
O7    O     O_R   0.686030 0.500010 0.613090 -0.632730
O8    O     O_R   0.686070 0.500050 0.386950 -0.545934
C3    C     C_R   0.488971 0.736783 0.500665 0.860917
C4    C     C_R   0.742330 0.501044 0.499846 0.958105
C5    C     C_3   0.035724 0.404579 0.578404 0.239242
C6    C     C_3   0.953873 0.386313 0.455667 0.386056
C7    C     C_3   0.877110 0.498168 0.500654 -0.165786
C8    C     C_3   0.957540 0.515545 0.626297 -0.226326
C9    C     C_3   0.045993 0.604691 0.546517 -0.189563
C10   C     C_3   0.963230 0.587359 0.421564 -0.144471
C11   C     C_3   0.041953 0.474136 0.375307 -0.140719
C12   C     C_3   0.122911 0.492145 0.500641 -0.170939
H1    H     H_    0.920717 0.531604 0.728561 0.226789
H2    H     H_    0.086536 0.694756 0.582589 0.232595
H3    H     H_    0.931963 0.664380 0.358359 0.232572
H4    H     H_    0.078592 0.456396 0.273324 0.250008
C13   C     C_2   0.453598 0.934370 0.393873 0.094728
C14   C     C_2   0.441673 0.862120 0.502602 0.056976
C15   C     C_2   0.428123 0.064895 0.403893 0.409836
C16   C     C_2   0.494704 0.130659 0.494145 -0.321694
H5    H     H_    0.556933 0.084903 0.562814 0.183787
C17   C     C_2   0.559009 0.582451 0.925027 -0.072050
N1    N     N_2   0.501360 0.501330 0.852150 -0.194758
H6    H     H_    0.602300 0.662794 0.877282 0.221356
H7    H     H_    0.474862 0.418820 0.896356 0.218634
C18   C     C_2   0.582092 0.561289 0.069617 0.487453
N2    N     N_2   0.501400 0.501360 0.147810 -0.063117
S1    S     S_3+6 0.886668 0.240645 0.401906 0.100987
O9    O     O_2   0.793253 0.195419 0.504932 -0.318862
O10   O     O_2   0.819881 0.256440 0.272413 -0.217474
O11   O     O_3   0.001949 0.135965 0.382945 -0.444883
H8    H     H_    0.957229 0.057310 0.358020 0.400176
S2    S     S_3+6 0.732764 0.615144 0.123511 0.061481
O12   O     O_2   0.719455 0.700537 0.241410 -0.278844
O13   O     O_2   0.811708 0.505432 0.157881 -0.281096
O14   O     O_3   0.807768 0.693793 0.001480 -0.550520
H9    H     H_    0.892784 0.715359 0.037294 0.400014
N3    N     N_R   0.376286 0.497189 0.103305 0.244776
O15   O     O_R   0.308045 0.396398 0.118518 -0.283226
O16   O     O_R   0.319167 0.599714 0.074597 -0.337531
N4    N     N_R   0.074179 0.303508 0.663522 0.260279
O17   O     O_R   0.988804 0.242198 0.731744 -0.269173
O18   O     O_R   0.192265 0.270784 0.668213 -0.301596
N5    N     N_R   0.509191 0.892437 0.270879 0.246304
O19   O     O_R   0.612623 0.947095 0.227552 -0.280590
O20   O     O_R   0.439083 0.829467 0.187287 -0.266902
S3    S     S_3+6 0.352737 0.908226 0.647035 0.061716
O21   O     O_2   0.440731 0.968923 0.746023 -0.235878
O22   O     O_2   0.250751 0.997565 0.611358 -0.212399
O23   O     O_3   0.283847 0.782501 0.717397 -0.536682
H10   H     H_    0.241205 0.814629 0.798504 0.408658
S4    S     S_3+6 0.323694 0.125802 0.285803 0.159495
O24   O     O_2   0.252497 0.233827 0.343338 -0.257250
O25   O     O_2   0.400742 0.166617 0.167279 -0.199767
O26   O     O_3   0.219668 0.013605 0.238244 -0.484161
H11   H     H_    0.173481 0.049429 0.163003 0.409440

loop_
_geom_bond_atom_site_label_1
_geom_bond_atom_site_label_2
_geom_bond_distance
_ccdc_geom_bond_type
C1    C16   1.420700 S    
S1    O10   1.502156 D    
C11   H4    1.110134 S    
C3    C14   1.445112 S    
C6    C11   1.541561 S    
C5    N4    1.458599 S    
O4    Zn2   1.991660 S    
S2    O13   1.501735 D    
O11   H8    0.990509 S    
N5    O19   1.301166 A    
C5    C8    1.532667 S    
C9    C10   1.546340 S    
Zn2   O8    1.999166 S    
C17   N1    1.281053 D    
C7    C10   1.531924 S    
S4    O24   1.501599 D    
N3    O16   1.302601 A    
C9    H2    1.109000 S    
C13   N5    1.437092 S    
N4    O17   1.300170 A    
O7    C4    1.281137 A    
O14   H9    0.990677 S    
C14   S3    1.793141 S    
N2    N3    1.395381 S    
Zn1   O7    1.991660 S    
Zn1   N1    2.028282 S    
C4    C7    1.419805 S    
S3    O21   1.502984 D    
C15   C16   1.340437 D    
O23   H10   0.990520 S    
O3    Zn1   1.999167 S    
O4    C2    1.283237 A    
C17   C18   1.501184 S    
Zn2   O6    1.977107 S    
N3    O15   1.297906 A    
N1    H7    1.029767 S    
O8    C4    1.288293 A    
C7    C8    1.538293 S    
O2    C1    1.286683 A    
O1    Zn1   1.977108 S    
S2    O12   1.499982 D    
C16   H5    1.086480 S    
S2    O14   1.682695 S    
N5    O20   1.300854 A    
S3    O22   1.503482 D    
C13   C15   1.435563 S    
Zn2   N2    2.028741 S    
N4    O18   1.299894 A    
C8    H1    1.110529 S    
C2    C12   1.418989 S    
C9    C12   1.532855 S    
S1    O9    1.501737 D    
C10   C11   1.550068 S    
S1    O11   1.678775 S    
O3    C2    1.286285 A    
O26   H11   0.991011 S    
C10   H3    1.107942 S    
C13   C14   1.354563 D    
Zn1   O5    1.986390 S    
C8    C9    1.549478 S    
O5    C3    1.296677 A    
C15   S4    1.768725 S    
C18   N2    1.317344 D    
C18   S2    1.766315 S    
S4    O25   1.502524 D    
S4    O26   1.681717 S    
O1    C1    1.294584 A    
C11   C12   1.539506 S    
C5    C12   1.520712 S    
O2    Zn2   1.986392 S    
C5    C6    1.523639 S    
C6    S1    1.785855 S    
C6    C7    1.523513 S    
S3    O23   1.682238 S    
O6    C3    1.292768 A    
C17   H6    1.084177 S    
