data_mof_unit_3067.cif
_audit_creation_date              2012-12-10T16:59:22-0500
_audit_creation_method            fapswitch 2.2
_symmetry_space_group_name_H-M    P1
_symmetry_Int_Tables_number       1
_space_group_crystal_system       triclinic
_cell_length_a                    7.736778
_cell_length_b                    8.55663
_cell_length_c                    27.712387
_cell_angle_alpha                 90.994859
_cell_angle_beta                  86.192181
_cell_angle_gamma                 93.714997
_cell_volume                      1826.52707946

loop_
_atom_site_label
_atom_site_type_symbol
_atom_type_description
_atom_site_fract_x
_atom_site_fract_y
_atom_site_fract_z
_atom_type_partial_charge
C1    C     C_R   0.545922 0.794855 0.498737 0.973266
C2    C     C_R   0.436007 0.626592 0.129465 -0.038752
C3    C     C_R   0.510925 0.503660 0.646402 -0.109311
C4    C     C_R   0.489069 0.496309 0.353598 -0.108873
C5    C     C_R   0.453868 0.635748 0.027276 0.047687
C6    C     C_R   0.546149 0.364200 0.972727 0.047681
C7    C     C_R   0.534318 0.360126 0.023976 0.047356
C8    C     C_R   0.465662 0.639811 0.976028 0.047357
C9    C     C_R   0.489107 0.496175 0.050893 0.074582
C10   C     C_R   0.510891 0.503767 0.949111 0.074543
C11   C     C_R   0.407119 0.766796 0.056045 -0.222608
C12   C     C_R   0.454078 0.205145 0.501263 0.973253
C13   C     C_R   0.592953 0.233168 0.943959 -0.222596
C14   C     C_R   0.399048 0.762073 0.106062 -0.140024
C15   C     C_R   0.601042 0.237896 0.893942 -0.140096
C16   C     C_R   0.503058 0.500497 0.593916 0.903472
C17   C     C_R   0.496942 0.499501 0.406084 0.903407
C18   C     C_R   0.434259 0.775994 0.950462 -0.224782
C19   C     C_R   0.565660 0.223926 0.049542 -0.224731
C20   C     C_2   0.570200 0.958326 0.498003 -0.373126
C21   C     C_2   0.429800 0.041674 0.501997 -0.373111
C22   C     C_R   0.491330 0.643662 0.823243 0.505329
C23   C     C_R   0.520438 0.507171 0.897864 -0.049102
C24   C     C_R   0.508569 0.356251 0.176762 0.506349
C25   C     C_R   0.568003 0.377874 0.820075 0.574357
C26   C     C_R   0.432059 0.622086 0.179929 0.574221
C27   C     C_R   0.364846 0.497467 0.726158 -0.185718
C28   C     C_R   0.635140 0.502605 0.273843 -0.186291
C29   C     C_R   0.357162 0.495229 0.676298 -0.201576
C30   C     C_R   0.642827 0.504846 0.323703 -0.201871
C31   C     C_R   0.672449 0.516200 0.666985 -0.313778
C32   C     C_R   0.327545 0.483633 0.333016 -0.314368
C33   C     C_R   0.680380 0.523125 0.717180 0.592618
C34   C     C_R   0.479557 0.492770 0.102140 -0.049118
C35   C     C_R   0.319609 0.476647 0.282815 0.592821
C36   C     C_R   0.525613 0.510548 0.746530 0.215618
C37   C     C_R   0.474377 0.489391 0.253472 0.216152
C38   C     C_3   0.912426 0.686793 0.733503 -0.306836
C39   C     C_3   0.086465 0.313394 0.267033 -0.306783
C40   C     C_R   0.485362 0.644080 0.873774 -0.017595
C41   C     C_R   0.514566 0.355841 0.126231 -0.017817
C42   C     C_R   0.443713 0.777590 0.900401 -0.143910
C43   C     C_R   0.556177 0.222322 0.099604 -0.143815
C44   C     C_R   0.564043 0.373365 0.870538 -0.038789
H1    H     H_    0.792304 0.521603 0.644354 0.171580
H2    H     H_    0.246011 0.488075 0.749152 0.185024
H3    H     H_    0.363708 0.865910 0.126366 0.193156
H4    H     H_    0.636422 0.134070 0.873638 0.193096
H5    H     H_    0.375151 0.875967 0.041396 0.141363
H6    H     H_    0.624964 0.124010 0.958609 0.141373
H7    H     H_    0.401593 0.884581 0.967736 0.139326
H8    H     H_    0.598285 0.115329 0.032267 0.139293
H9    H     H_    0.702742 0.009521 0.494187 0.180309
H10   H     H_    0.297258 0.990479 0.505812 0.180314
H11   H     H_    0.822395 0.773963 0.748959 0.200172
H12   H     H_    0.207718 0.478236 0.355657 0.171356
H13   H     H_    0.952854 0.714080 0.695150 0.160219
H14   H     H_    0.030457 0.698028 0.754244 0.213045
H15   H     H_    0.044451 0.288349 0.305432 0.159887
H16   H     H_    0.176301 0.224960 0.252319 0.199700
H17   H     H_    0.969259 0.301612 0.245958 0.213265
H18   H     H_    0.014097 0.383252 0.463395 0.189193
H19   H     H_    0.985903 0.616748 0.536605 0.189243
H20   H     H_    0.417087 0.884427 0.882626 0.191151
H21   H     H_    0.582757 0.115472 0.117378 0.191118
H22   H     H_    0.768798 0.515055 0.338766 0.185016
H23   H     H_    0.231188 0.485127 0.661235 0.185236
H24   H     H_    0.753969 0.512094 0.250849 0.185044
N1    N     N_R   0.530602 0.511331 0.797765 -0.339372
N2    N     N_R   0.469391 0.488609 0.202238 -0.339300
N3    N     N_2   0.950320 0.457960 0.486880 -0.174711
N4    N     N_2   0.049680 0.542040 0.513120 -0.174685
O1    O     O_R   0.389250 0.738570 0.503220 -0.611966
O2    O     O_2   0.542303 0.226050 0.200374 -0.557727
O3    O     O_2   0.393423 0.750278 0.206581 -0.527366
O4    O     O_2   0.606708 0.249700 0.793422 -0.527372
O5    O     O_3   0.838347 0.532348 0.737977 -0.610013
O6    O     O_3   0.161702 0.467286 0.261974 -0.609853
O7    O     O_R   0.610750 0.261430 0.496780 -0.611975
O8    O     O_R   0.678390 0.711630 0.494810 -0.630710
O9    O     O_R   0.321610 0.288370 0.505190 -0.630707
O10   O     O_R   0.355440 0.513440 0.575450 -0.623010
O11   O     O_R   0.644560 0.486560 0.424550 -0.623084
O12   O     O_R   0.644590 0.486500 0.567040 -0.629320
O13   O     O_R   0.355410 0.513500 0.432960 -0.629324
O14   O     O_2   0.457481 0.773833 0.799634 -0.558009
Zn1   Zn    Zn3+2 0.306940 0.517990 0.505620 0.947692
Zn2   Zn    Zn3+2 0.693060 0.482010 0.494380 0.947642

loop_
_geom_bond_atom_site_label_1
_geom_bond_atom_site_label_2
_ccdc_geom_bond_type
C27   C29   A    
C33   O5    S    
C24   N2    A    
C17   O13   A    
C35   C37   A    
C15   C44   A    
C5    C11   A    
C18   C42   A    
C21   H10   S    
C11   C14   A    
C23   C40   A    
C12   O7    A    
C16   O12   A    
C33   C36   A    
C3    C29   A    
O1    Zn1   S    
C10   C23   A    
C38   H14   S    
C14   H3    S    
C19   H8    S    
C38   H11   S    
H18   N3    S    
C31   C33   A    
C22   N1    A    
C2    C34   A    
C40   C42   A    
O11   Zn2   S    
C22   C40   A    
C29   H23   S    
C37   N2    S    
C24   C41   A    
C41   C43   A    
C34   C41   A    
C15   H4    S    
C25   C44   A    
O7    Zn2   S    
C19   C43   A    
C18   H7    S    
O13   Zn1   S    
C39   H17   S    
C32   C35   A    
C12   C21   S    
C8    C18   A    
C23   C44   A    
N3    Zn2   S    
C17   O11   A    
C39   O6    S    
C5    C9    A    
C11   H5    S    
C38   H13   S    
C43   H21   S    
C39   H15   S    
C16   O10   A    
C26   O3    S    
C2    C26   A    
C30   H22   S    
H19   N4    S    
C3    C31   A    
O9    Zn1   S    
C4    C17   S    
C27   H2    S    
C7    C19   A    
C13   C15   A    
C9    C34   A    
C26   N2    A    
C25   N1    A    
C42   H20   S    
N4    Zn1   S    
C36   N1    S    
C7    C9    A    
C1    C20   S    
C28   H24   S    
O12   Zn2   S    
C20   H9    S    
C6    C10   A    
C5    C8    A    
C6    C7    A    
C38   O5    S    
C27   C36   A    
C35   O6    S    
C25   O4    S    
C1    O1    A    
C28   C30   A    
N3    N4    D    
O8    Zn2   S    
C6    C13   A    
C24   O2    S    
C28   C37   A    
C39   H16   S    
C13   H6    S    
C12   O9    A    
C22   O14   S    
C2    C14   A    
C4    C32   A    
C20   C21   D    
C8    C10   A    
C31   H1    S    
C1    O8    A    
C32   H12   S    
C4    C30   A    
C3    C16   S    
O10   Zn1   S    
