data_mof_unit_1469.cif
_audit_creation_date              2012-12-11T14:41:06-0500
_audit_creation_method            fapswitch 2.2
_symmetry_space_group_name_H-M    P1
_symmetry_Int_Tables_number       1
_space_group_crystal_system       triclinic
_cell_length_a                    6.959414
_cell_length_b                    17.710015
_cell_length_c                    18.922938
_cell_angle_alpha                 90.00099
_cell_angle_beta                  90.002649
_cell_angle_gamma                 90.017806
_cell_volume                      2332.27709112

loop_
_atom_site_label
_atom_site_type_symbol
_atom_type_description
_atom_site_fract_x
_atom_site_fract_y
_atom_site_fract_z
_atom_type_partial_charge
O1    O     O_R   0.377350 0.828520 0.186660 -0.521766
O2    O     O_R   0.622650 0.171480 0.813340 -0.521760
O3    O     O_R   0.122650 0.171480 0.686660 -0.521799
O4    O     O_R   0.877350 0.828520 0.313340 -0.521791
O5    O     O_R   0.877350 0.671480 0.313340 -0.521915
O6    O     O_R   0.122650 0.328520 0.686660 -0.521914
O7    O     O_R   0.622650 0.328520 0.813340 -0.522015
O8    O     O_R   0.377350 0.671480 0.186660 -0.522018
O9    O     O_R   0.707090 0.671930 0.178410 -0.542960
O10   O     O_R   0.292910 0.328070 0.821590 -0.542960
O11   O     O_R   0.792910 0.328070 0.678410 -0.543050
O12   O     O_R   0.207090 0.671930 0.321590 -0.543056
O13   O     O_R   0.207090 0.828070 0.321590 -0.543029
O14   O     O_R   0.792910 0.171930 0.678410 -0.543022
O15   O     O_R   0.292910 0.171930 0.821590 -0.543062
O16   O     O_R   0.707090 0.828070 0.178410 -0.543056
C1    C     C_R   0.538770 0.645497 0.161870 0.874109
C2    C     C_R   0.461230 0.354504 0.838129 0.874128
C3    C     C_R   0.961225 0.354505 0.661872 0.874036
C4    C     C_R   0.038774 0.645496 0.338129 0.873995
C5    C     C_R   0.038828 0.854530 0.338108 0.873849
C6    C     C_R   0.961172 0.145470 0.661893 0.873862
C7    C     C_R   0.461179 0.145472 0.838110 0.873816
C8    C     C_R   0.538821 0.854528 0.161890 0.873815
O17   O     O_3   0.543850 0.750000 0.294270 -0.368406
O18   O     O_3   0.456150 0.250000 0.705730 -0.368408
O19   O     O_3   0.956150 0.250000 0.794270 -0.368427
O20   O     O_3   0.043850 0.750000 0.205730 -0.368426
V1    V     V_3+5 0.818700 0.750000 0.241790 1.661963
V2    V     V_3+5 0.181300 0.250000 0.758210 1.661959
V3    V     V_3+5 0.681300 0.250000 0.741790 1.661926
V4    V     V_3+5 0.318700 0.750000 0.258210 1.661913
C9    C     C_R   0.967217 0.418944 0.611484 -0.369325
C10   C     C_R   0.032781 0.581058 0.388519 -0.369357
C11   C     C_R   0.532777 0.581054 0.111487 -0.369349
C12   C     C_R   0.467228 0.418947 0.888512 -0.369325
C13   C     C_R   0.467005 0.081036 0.888516 -0.369535
C14   C     C_R   0.532997 0.918964 0.111484 -0.369537
C15   C     C_R   0.033015 0.918965 0.388516 -0.369561
C16   C     C_R   0.966984 0.081034 0.611485 -0.369557
C17   C     C_R   0.121043 0.452921 0.424133 0.752331
C18   C     C_R   0.878970 0.547083 0.575873 0.752316
C19   C     C_R   0.379052 0.547096 0.924115 0.752296
C20   C     C_R   0.620959 0.452907 0.075885 0.752288
C21   C     C_R   0.623123 0.046832 0.075565 0.752339
C22   C     C_R   0.376879 0.953167 0.924434 0.752341
C23   C     C_R   0.876957 0.953152 0.575570 0.752340
C24   C     C_R   0.123045 0.046846 0.424432 0.752341
C25   C     C_R   0.116737 0.510156 0.371903 -0.313119
C26   C     C_R   0.883290 0.489851 0.628106 -0.313124
C27   C     C_R   0.383363 0.489864 0.871875 -0.313347
C28   C     C_R   0.616669 0.510141 0.128120 -0.313357
C29   C     C_R   0.618441 0.989681 0.127871 -0.312967
C30   C     C_R   0.381563 0.010319 0.872129 -0.312952
C31   C     C_R   0.881600 0.010308 0.627875 -0.313051
C32   C     C_R   0.118407 0.989690 0.372128 -0.313036
C33   C     C_R   0.951565 0.592442 0.455751 0.699374
C34   C     C_R   0.048417 0.407558 0.544250 0.699350
C35   C     C_R   0.548374 0.407553 0.955756 0.699303
C36   C     C_R   0.451613 0.592447 0.044246 0.699312
C37   C     C_R   0.450474 0.907737 0.044439 0.699838
C38   C     C_R   0.549525 0.092263 0.955561 0.699837
C39   C     C_R   0.049454 0.092270 0.544437 0.699829
C40   C     C_R   0.950540 0.907729 0.455563 0.699834
C41   C     C_R   0.956782 0.535094 0.507914 -0.282724
C42   C     C_R   0.043210 0.464907 0.492088 -0.282721
C43   C     C_R   0.543180 0.464903 0.007919 -0.282698
C44   C     C_R   0.456816 0.535098 0.992083 -0.282708
C45   C     C_R   0.455970 0.965019 0.992215 -0.282344
C46   C     C_R   0.544030 0.034981 0.007784 -0.282342
C47   C     C_R   0.043989 0.034986 0.492214 -0.282353
C48   C     C_R   0.956007 0.965013 0.507787 -0.282352
F1    F     F_    0.128062 0.339219 0.529636 -0.549787
F2    F     F_    0.871903 0.660779 0.470362 -0.549787
F3    F     F_    0.372012 0.660793 0.029628 -0.549813
F4    F     F_    0.627955 0.339205 0.970376 -0.549816
F5    F     F_    0.630715 0.160397 0.969946 -0.549796
F6    F     F_    0.369283 0.839603 0.030054 -0.549798
F7    F     F_    0.869421 0.839584 0.469950 -0.549806
F8    F     F_    0.130567 0.160416 0.530050 -0.549804
C49   C     C_2   0.804732 0.506341 0.700134 0.947357
O21   O     O_2   0.692365 0.558613 0.708791 -0.454207
O22   O     O_R   0.861576 0.463582 0.758633 -0.676224
H1    H     H_    0.800724 0.481532 0.804317 0.298986
C50   C     C_2   0.195375 0.493675 0.299885 0.947400
O23   O     O_2   0.307856 0.441438 0.291248 -0.454262
O24   O     O_R   0.138490 0.536410 0.241376 -0.676200
H2    H     H_    0.199408 0.518470 0.195701 0.298995
C51   C     C_2   0.695214 0.493650 0.200158 0.947715
O25   O     O_2   0.807196 0.441258 0.208856 -0.453923
O26   O     O_R   0.638797 0.536549 0.258623 -0.676184
H3    H     H_    0.699559 0.518577 0.304316 0.299074
C52   C     C_2   0.304883 0.506365 0.799829 0.947635
O27   O     O_2   0.192966 0.558777 0.791121 -0.453889
O28   O     O_R   0.361298 0.463458 0.741369 -0.676211
H4    H     H_    0.300609 0.481448 0.695668 0.299062
C53   C     C_2   0.301939 0.993899 0.800240 0.947744
O29   O     O_2   0.188686 0.941855 0.791808 -0.454443
O30   O     O_R   0.358872 0.036430 0.741604 -0.675890
H5    H     H_    0.297418 0.018487 0.696021 0.299289
C54   C     C_2   0.698071 0.006100 0.199759 0.947773
O31   O     O_2   0.811310 0.058150 0.208191 -0.454430
O32   O     O_R   0.641161 0.963564 0.258395 -0.675884
H6    H     H_    0.702614 0.981508 0.303977 0.299299
C55   C     C_2   0.198022 0.006112 0.300241 0.947846
O33   O     O_2   0.311171 0.058191 0.291807 -0.454360
O34   O     O_R   0.141202 0.963544 0.241610 -0.675887
H7    H     H_    0.202597 0.981506 0.196026 0.299331
C56   C     C_2   0.802004 0.993883 0.699765 0.947859
O35   O     O_2   0.688904 0.941789 0.708206 -0.454327
O36   O     O_R   0.858790 0.036464 0.758392 -0.675892
H8    H     H_    0.797420 0.018498 0.803979 0.299334
F9    F     F_    0.198260 0.384544 0.408051 -0.509259
F10   F     F_    0.801775 0.615464 0.591956 -0.509246
F11   F     F_    0.301891 0.615484 0.908036 -0.509222
F12   F     F_    0.698119 0.384519 0.091966 -0.509230
F13   F     F_    0.701942 0.115012 0.091411 -0.509558
F14   F     F_    0.298062 0.884988 0.908587 -0.509554
F15   F     F_    0.798216 0.884960 0.591416 -0.509530
F16   F     F_    0.201787 0.115038 0.408585 -0.509537

loop_
_geom_bond_atom_site_label_1
_geom_bond_atom_site_label_2
_ccdc_geom_bond_type
O24   H2    S    
C9    C34   A    
C38   F5    S    
O28   H4    S    
O14   V3    S    
C12   C35   A    
C49   O21   D    
C24   F16   S    
O5    C4    A    
C50   O23   D    
O6    C3    A    
C55   O34   S    
O11   C3    A    
C52   O27   D    
C16   C39   A    
O20   V1    S    
C56   O36   S    
C37   C45   A    
C35   C43   A    
C38   C46   A    
C22   C45   A    
O13   V4    S    
C19   F11   S    
C34   C42   A    
O22   H1    S    
C29   C54   S    
C19   C44   A    
C18   C41   A    
C8    C14   S    
O34   H7    S    
C30   C53   S    
C51   O26   S    
O4    V1    S    
O9    V1    S    
C14   C37   A    
C4    C10   S    
C20   C28   A    
O17   V4    S    
O15   C7    A    
O11   V3    S    
O18   V3    S    
O16   C8    A    
C31   C56   S    
O19   V2    S    
C22   C30   A    
C28   C51   S    
C17   C25   A    
C49   O22   S    
C18   F10   S    
C53   O29   D    
O5    V1    S    
C39   F8    S    
C50   O24   S    
O17   V1    S    
C32   C55   S    
O7    V3    S    
O19   V3    S    
C43   C44   A    
O8    V4    S    
C54   O31   D    
C25   C50   S    
O20   V4    S    
C53   O30   S    
C17   F9    S    
O26   H3    S    
C9    C26   A    
C7    C13   S    
C34   F1    S    
O1    V4    S    
C11   C36   A    
C33   F2    S    
O3    V2    S    
C15   C40   A    
C10   C33   A    
O10   V2    S    
O30   H5    S    
C5    C15   S    
C37   F6    S    
O7    C2    A    
C6    C16   S    
O12   C4    A    
O13   C5    A    
C15   C32   A    
C20   F12   S    
C12   C27   A    
C18   C26   A    
C13   C30   A    
O9    C1    A    
O6    V2    S    
C39   C47   A    
O18   V2    S    
C3    C9    S    
C40   F7    S    
C22   F14   S    
C24   C47   A    
C11   C28   A    
O15   V2    S    
C23   C31   A    
C21   F13   S    
C24   C32   A    
C10   C25   A    
O36   H8    S    
C21   C46   A    
C33   C41   A    
C20   C43   A    
C16   C31   A    
C17   C42   A    
C55   O33   D    
C36   F3    S    
O8    C1    A    
C27   C52   S    
O14   C6    A    
O16   V1    S    
C47   C48   A    
C56   O35   D    
O4    C5    A    
C19   C27   A    
C52   O28   S    
C14   C29   A    
O10   C2    A    
C23   F15   S    
O2    C7    A    
C40   C48   A    
C45   C46   A    
C23   C48   A    
C21   C29   A    
C36   C44   A    
O1    C8    A    
C54   O32   S    
C41   C42   A    
O32   H6    S    
C13   C38   A    
O2    V3    S    
O3    C6    A    
C1    C11   S    
C51   O25   D    
C2    C12   S    
C35   F4    S    
O12   V4    S    
C26   C49   S    
