data_mof_unit_2612.cif
_audit_creation_date              2012-12-10T19:44:41-0500
_audit_creation_method            fapswitch 2.2
_symmetry_space_group_name_H-M    P1
_symmetry_Int_Tables_number       1
_space_group_crystal_system       triclinic
_cell_length_a                    8.588957
_cell_length_b                    15.011129
_cell_length_c                    14.14233
_cell_angle_alpha                 90.011328
_cell_angle_beta                  98.688436
_cell_angle_gamma                 90.097691
_cell_volume                      1802.44269826

loop_
_atom_site_label
_atom_site_type_symbol
_atom_type_description
_atom_site_fract_x
_atom_site_fract_y
_atom_site_fract_z
_atom_type_partial_charge
C1    C     C_R   0.499852 0.327727 0.499991 0.872120
C2    C     C_R   0.408775 0.435514 0.886099 0.402704
C3    C     C_R   0.502660 0.498481 0.053386 0.036366
C4    C     C_R   0.498936 0.497984 0.946605 0.018391
C5    C     C_R   0.200913 0.499908 0.475014 0.978551
C6    C     C_R   0.799090 0.499918 0.524978 0.976815
C7    C     C_2   0.035882 0.499847 0.461483 -0.372200
C8    C     C_2   0.964129 0.499687 0.538487 -0.377535
C9    C     C_R   0.442567 0.094220 0.574194 -0.155819
C10   C     C_R   0.442623 0.905762 0.415535 -0.167051
C11   C     C_R   0.444223 0.186183 0.574559 -0.161162
C12   C     C_R   0.499898 0.672281 0.500005 0.859301
C13   C     C_R   0.444346 0.813806 0.415378 -0.186143
C14   C     C_R   0.499104 0.231989 0.499959 -0.040967
C15   C     C_R   0.499149 0.768033 0.499996 -0.024929
C16   C     C_R   0.553069 0.185939 0.425283 -0.164550
C17   C     C_R   0.552897 0.814134 0.584656 -0.186411
C18   C     C_R   0.553159 0.093982 0.425550 -0.161173
C19   C     C_R   0.552913 0.906101 0.584508 -0.164944
C20   C     C_R   0.497530 0.048113 0.499864 0.098211
C21   C     C_R   0.497453 0.951920 0.500004 0.110069
C22   C     C_R   0.372914 0.531493 0.092286 -0.234292
C23   C     C_R   0.587952 0.560923 0.904000 -0.293854
C24   C     C_R   0.373912 0.531806 0.191826 0.026540
C25   C     C_R   0.587429 0.560638 0.804523 0.001074
C26   C     C_R   0.627689 0.467557 0.216917 -0.094923
C27   C     C_R   0.411290 0.438602 0.786462 -0.097908
C28   C     C_R   0.633054 0.466212 0.117553 0.394275
H1    H     H_    0.973934 0.500071 0.388451 0.188090
H2    H     H_    0.597623 0.941426 0.649823 0.144759
H3    H     H_    0.271159 0.557105 0.045709 0.197131
H4    H     H_    0.657953 0.610033 0.947675 0.187152
H5    H     H_    0.273273 0.557626 0.220546 0.155622
H6    H     H_    0.657137 0.609148 0.772771 0.141337
H7    H     H_    0.726099 0.442366 0.266258 0.171102
H8    H     H_    0.342461 0.391552 0.739466 0.172545
H9    H     H_    0.786958 0.383937 0.927587 0.384837
H10   H     H_    0.318908 0.272436 0.060596 0.393737
H11   H     H_    0.026133 0.499435 0.611517 0.189571
H12   H     H_    0.397322 0.059122 0.631248 0.148953
H13   H     H_    0.397467 0.940817 0.350195 0.143267
H14   H     H_    0.400847 0.221344 0.632211 0.174478
H15   H     H_    0.401074 0.778617 0.349727 0.156566
H16   H     H_    0.597049 0.220903 0.367681 0.172457
H17   H     H_    0.596760 0.779207 0.650313 0.152034
H18   H     H_    0.598012 0.058702 0.368518 0.145670
N1    N     N_R   0.500000 0.499980 0.252470 -0.124178
N2    N     N_R   0.500000 0.500020 0.747530 -0.118972
O1    O     O_R   0.500010 0.369070 0.579480 -0.622549
O2    O     O_2   0.903924 0.373548 0.154699 -0.264667
O3    O     O_3   0.750510 0.354776 0.983154 -0.472065
O4    O     O_2   0.147453 0.395134 0.957328 -0.257136
O5    O     O_2   0.249249 0.280835 0.859268 -0.300074
O6    O     O_3   0.397020 0.307416 0.031255 -0.510899
O7    O     O_R   0.499990 0.630930 0.420520 -0.624997
O8    O     O_R   0.500010 0.369060 0.420520 -0.609817
O9    O     O_R   0.499990 0.630940 0.579480 -0.629169
O10   O     O_R   0.271750 0.500000 0.560890 -0.617966
O11   O     O_R   0.728250 0.500000 0.439110 -0.625901
O12   O     O_R   0.271750 0.499990 0.401930 -0.619635
O13   O     O_R   0.728250 0.500010 0.598070 -0.615672
O14   O     O_2   0.896712 0.500491 0.045944 -0.331231
S1    S     S_3+6 0.802950 0.423819 0.076432 0.058701
S2    S     S_3+6 0.294273 0.352752 0.932327 0.047274
Zn1   Zn    Zn3+2 0.500000 0.500010 0.606140 0.961033
Zn2   Zn    Zn3+2 0.500000 0.499990 0.393860 0.968058

loop_
_geom_bond_atom_site_label_1
_geom_bond_atom_site_label_2
_ccdc_geom_bond_type
C27   N2    A    
C2    C4    A    
C2    C27   A    
C7    H1    S    
C8    H11   S    
N2    Zn1   S    
C5    C7    S    
C16   H16   S    
N1    Zn2   S    
C26   C28   A    
C24   H5    S    
H10   O6    S    
C12   C15   S    
C25   H6    S    
C18   H18   S    
C23   H4    S    
C24   N1    A    
C23   C25   A    
O12   Zn2   S    
C7    C8    D    
C10   C21   A    
C10   H13   S    
O2    S1    D    
C9    C11   A    
C25   N2    A    
O14   S1    D    
O1    Zn1   S    
C5    O10   A    
O8    Zn2   S    
C12   O9    A    
C26   N1    A    
C6    O13   A    
C3    C28   A    
C17   C19   A    
C1    O8    A    
C2    S2    S    
C18   C20   A    
C13   C15   A    
O11   Zn2   S    
C27   H8    S    
O5    S2    D    
C22   C24   A    
C12   O7    A    
C22   H3    S    
O10   Zn1   S    
C3    C4    S    
C28   S1    S    
O13   Zn1   S    
C26   H7    S    
C13   H15   S    
O7    Zn2   S    
O3    S1    S    
C20   C21   S    
O6    S2    S    
C11   H14   S    
C16   C18   A    
O4    S2    D    
O9    Zn1   S    
C11   C14   A    
C15   C17   A    
C4    C23   A    
C3    C22   A    
C6    C8    S    
C1    C14   S    
C9    C20   A    
C5    O12   A    
H9    O3    S    
C14   C16   A    
C19   H2    S    
C1    O1    A    
C6    O11   A    
C9    H12   S    
C17   H17   S    
C19   C21   A    
C10   C13   A    
