data_mof_unit_4108.cif
_audit_creation_date              2012-10-26T17:10:28-0400
_audit_creation_method            fapswitch 2.2
_symmetry_space_group_name_H-M    P1
_symmetry_Int_Tables_number       1
_space_group_crystal_system       triclinic
_cell_length_a                    16.873139
_cell_length_b                    16.890363
_cell_length_c                    16.851098
_cell_angle_alpha                 67.525175
_cell_angle_beta                  67.502065
_cell_angle_gamma                 67.561201
_cell_volume                      3940.99284885

loop_
_atom_site_label
_atom_site_type_symbol
_atom_type_description
_atom_site_fract_x
_atom_site_fract_y
_atom_site_fract_z
_atom_type_partial_charge
C1    C     C_R   0.594471 0.019196 0.599333 0.054499
C2    C     C_R   0.170052 0.432399 0.979378 0.580569
C3    C     C_R   0.564171 0.029656 0.828539 0.520520
C4    C     C_R   0.432104 0.979698 0.170140 0.572651
C5    C     C_R   0.434873 0.171162 0.972975 0.542551
C6    C     C_R   0.567538 0.829848 0.020988 0.578786
C7    C     C_R   0.970514 0.435746 0.171448 0.519368
C8    C     C_R   0.021079 0.567489 0.829724 0.575310
C9    C     C_R   0.171407 0.970252 0.435869 0.518297
C10   C     C_R   0.829891 0.020178 0.567955 0.575271
C11   C     C_R   0.544140 0.008612 0.550339 0.126010
C12   C     C_R   0.400515 0.979333 0.406091 0.052332
C13   C     C_R   0.449430 0.989374 0.456294 0.134683
C14   C     C_R   0.011467 0.547567 0.545260 0.067332
C15   C     C_R   0.992163 0.454349 0.450092 0.127965
C16   C     C_R   0.545929 0.546947 0.012442 0.070125
C17   C     C_R   0.451039 0.452402 0.995466 0.068608
C18   C     C_R   0.562935 0.926201 0.535315 -0.060455
C19   C     C_R   0.429979 0.071550 0.471688 -0.062386
C20   C     C_R   0.083911 0.480655 0.513677 -0.084029
C21   C     C_R   0.919679 0.521377 0.482005 -0.061293
C22   C     C_R   0.565067 0.530930 0.930467 -0.091954
C23   C     C_R   0.022371 0.597793 0.593545 0.003280
C24   C     C_R   0.431759 0.468934 0.077349 -0.072001
C25   C     C_R   0.515978 0.916736 0.488341 -0.064675
C26   C     C_R   0.477132 0.081151 0.518396 -0.062247
C27   C     C_R   0.517666 0.483965 0.921960 -0.096905
C28   C     C_R   0.478835 0.516315 0.085679 -0.079214
C29   C     C_R   0.074446 0.434508 0.466011 -0.061931
C30   C     C_R   0.929339 0.567884 0.529214 -0.093760
C31   C     C_R   0.549553 0.041351 0.680475 0.156851
C32   C     C_R   0.433748 0.994756 0.313235 0.140275
C33   C     C_R   0.037101 0.682898 0.549722 0.162267
C34   C     C_R   0.981523 0.404618 0.400712 0.053043
C35   C     C_R   0.996457 0.311865 0.433527 0.140883
C36   C     C_R   0.682437 0.550615 0.036753 0.161852
C37   C     C_R   0.311028 0.435349 0.996321 0.159287
C38   C     C_R   0.319222 0.958084 0.450880 0.157830
C39   C     C_R   0.687444 0.003989 0.566404 0.140519
C40   C     C_R   0.447111 0.315079 0.972816 0.160053
C41   C     C_R   0.563054 0.686888 0.009509 0.161275
C42   C     C_R   0.959415 0.449778 0.319590 0.153909
C43   C     C_R   0.009801 0.563238 0.686035 0.160532
C44   C     C_R   0.599101 0.044876 0.730189 -0.050409
C45   C     C_R   0.597206 0.594683 0.022269 0.002064
C46   C     C_R   0.392564 0.974729 0.266361 0.008996
C47   C     C_R   0.041056 0.731189 0.600129 0.002021
C48   C     C_R   0.975482 0.265839 0.392353 0.012140
C49   C     C_R   0.731099 0.600555 0.040737 0.003148
C50   C     C_R   0.265670 0.393148 0.975910 0.012457
C51   C     C_R   0.269588 0.954894 0.401059 -0.051760
C52   C     C_R   0.733832 0.024739 0.607535 0.012621
C53   C     C_R   0.399006 0.268503 0.962349 0.002520
C54   C     C_R   0.606391 0.733809 0.026376 0.007395
C55   C     C_R   0.955549 0.400584 0.269774 -0.048880
C56   C     C_R   0.402853 0.400395 0.986868 0.003260
C57   C     C_R   0.026709 0.606292 0.733343 0.008033
C58   C     C_R   0.687488 0.050082 0.687242 0.157941
C59   C     C_R   0.312645 0.949748 0.312517 0.158435
C60   C     C_R   0.048820 0.687426 0.687704 0.143616
C61   C     C_R   0.950200 0.312280 0.312620 0.157583
C62   C     C_R   0.687608 0.688064 0.048395 0.143227
C63   C     C_R   0.312388 0.312927 0.952240 0.144263
C64   C     C_R   0.028089 0.828796 0.564773 0.544939
C65   C     C_R   0.979814 0.170023 0.432039 0.578735
C66   C     C_R   0.828794 0.564852 0.027937 0.545841
Cu1   Cu    Cu3+1 0.995180 0.995180 0.424630 1.104305
Cu2   Cu    Cu3+1 0.004820 0.004820 0.575370 1.080586
Cu3   Cu    Cu3+1 0.995180 0.424630 0.995180 1.101370
Cu4   Cu    Cu3+1 0.004820 0.575370 0.004820 1.079176
Cu5   Cu    Cu3+1 0.424630 0.995180 0.995180 1.081858
Cu6   Cu    Cu3+1 0.575370 0.004820 0.004820 1.099004
H1    H     H_    0.461901 0.145264 0.529137 0.126415
H2    H     H_    0.616881 0.554389 0.873561 0.122679
H3    H     H_    0.855651 0.537265 0.470657 0.128663
H4    H     H_    0.147776 0.464874 0.525321 0.123495
H5    H     H_    0.433271 0.103740 0.741057 0.336527
H6    H     H_    0.493035 0.078477 0.218383 0.339833
H7    H     H_    0.052418 0.677525 0.429848 0.336427
H8    H     H_    0.079689 0.217334 0.493200 0.337817
H9    H     H_    0.676982 0.431492 0.050433 0.329765
H10   H     H_    0.218017 0.498573 0.077175 0.336029
H11   H     H_    0.258329 0.895387 0.567109 0.339215
H12   H     H_    0.531371 0.852884 0.476975 0.116197
H13   H     H_    0.782191 0.921006 0.506479 0.337288
H14   H     H_    0.555874 0.303584 0.998389 0.329209
H15   H     H_    0.501103 0.778660 0.926726 0.341494
H16   H     H_    0.897124 0.566187 0.259423 0.336742
H17   H     H_    0.927282 0.501023 0.778112 0.338183
H18   H     H_    0.684259 0.125566 0.751181 0.339351
H19   H     H_    0.248490 0.874716 0.315370 0.340076
H20   H     H_    0.124407 0.751066 0.684401 0.331031
H21   H     H_    0.874467 0.315738 0.248778 0.339803
H22   H     H_    0.751095 0.684724 0.124214 0.329477
H23   H     H_    0.873028 0.619667 0.553220 0.117952
H24   H     H_    0.318838 0.250568 0.873786 0.329775
H25   H     H_    0.131306 0.383584 0.441185 0.123971
H26   H     H_    0.463828 0.528259 0.149315 0.124010
H27   H     H_    0.533206 0.471551 0.858441 0.134512
H28   H     H_    0.378701 0.128123 0.447141 0.112359
H29   H     H_    0.613768 0.869272 0.560178 0.124693
H30   H     H_    0.380965 0.444370 0.134796 0.123998
O1    O     O_R   0.124540 0.978640 0.385460 -0.487242
O2    O     O_R   0.124540 0.385460 0.978640 -0.438003
O3    O     O_R   0.021360 0.875460 0.614540 -0.506985
O4    O     O_R   0.978640 0.124540 0.385460 -0.437745
O5    O     O_R   0.013780 0.867370 0.487190 -0.456570
O6    O     O_R   0.986220 0.132630 0.512810 -0.493308
O7    O     O_R   0.867370 0.487190 0.013780 -0.456171
O8    O     O_R   0.132630 0.512810 0.986220 -0.492477
O9    O     O_R   0.487190 0.013780 0.867370 -0.503825
O10   O     O_R   0.512810 0.986220 0.132630 -0.502154
O11   O     O_R   0.512810 0.132630 0.986220 -0.457183
O12   O     O_R   0.875460 0.021360 0.614540 -0.436144
O13   O     O_R   0.487190 0.867370 0.013780 -0.494922
O14   O     O_R   0.986220 0.512810 0.132630 -0.506199
O15   O     O_R   0.013780 0.487190 0.867370 -0.500903
O16   O     O_R   0.132630 0.986220 0.512810 -0.507833
O17   O     O_R   0.867370 0.013780 0.487190 -0.499102
O18   O     O_3   0.458154 0.055832 0.710819 -0.670013
O19   O     O_3   0.506654 0.028500 0.270791 -0.665000
O20   O     O_3   0.046449 0.721209 0.458920 -0.667552
O21   O     O_3   0.028555 0.268637 0.507497 -0.665138
O22   O     O_3   0.720440 0.460041 0.046000 -0.670211
O23   O     O_R   0.978640 0.385460 0.124540 -0.487704
O24   O     O_3   0.267831 0.512089 0.023486 -0.650996
O25   O     O_3   0.289757 0.942302 0.542576 -0.664773
O26   O     O_3   0.730492 0.971742 0.492516 -0.669058
O27   O     O_3   0.536274 0.275127 0.970383 -0.669639
O28   O     O_3   0.487272 0.729076 0.980449 -0.645736
O29   O     O_3   0.945293 0.541020 0.289404 -0.679347
O30   O     O_3   0.980717 0.487511 0.728126 -0.650851
O31   O     O_3   0.729636 0.079371 0.722144 -0.637444
O32   O     O_3   0.277639 0.920905 0.270065 -0.637152
O33   O     O_3   0.077446 0.722985 0.729797 -0.639308
O34   O     O_R   0.021360 0.614540 0.875460 -0.434545
O35   O     O_3   0.920761 0.270330 0.277667 -0.638612
O36   O     O_3   0.723442 0.729954 0.076913 -0.642011
O37   O     O_3   0.272120 0.278950 0.919935 -0.642774
O38   O     O_R   0.385460 0.124540 0.978640 -0.506869
O39   O     O_R   0.614540 0.875460 0.021360 -0.436683
O40   O     O_R   0.614540 0.021360 0.875460 -0.487143
O41   O     O_R   0.385460 0.978640 0.124540 -0.435379
O42   O     O_R   0.875460 0.614540 0.021360 -0.506650

loop_
_geom_bond_atom_site_label_1
_geom_bond_atom_site_label_2
_ccdc_geom_bond_type
C16   C28   A    
C40   O27   S    
Cu6   O10   S    
C11   C18   A    
C50   C63   A    
C46   C59   A    
C8    O34   A    
C34   C42   A    
C7    C55   S    
H5    O18   S    
C10   C52   S    
H24   O37   S    
C38   O25   S    
Cu1   O1    S    
C64   O3    A    
C4    C46   S    
Cu6   O40   S    
C18   C25   A    
C27   H27   S    
H17   O30   S    
C5    O38   A    
H15   O28   S    
C5    C53   S    
C43   O30   S    
C36   O22   S    
C6    C54   S    
C41   O28   S    
C8    C57   S    
C66   O42   A    
C1    C31   A    
C26   H1    S    
C23   C43   A    
C20   H4    S    
C34   C35   A    
H6    O19   S    
C19   C26   A    
H10   O24   S    
C10   O17   A    
C2    C50   S    
Cu2   O16   S    
C47   C60   A    
C37   C56   A    
Cu3   O7    S    
C44   C58   A    
C31   O18   S    
C23   C33   A    
Cu5   O9    S    
C25   H12   S    
C42   O29   S    
C49   C62   A    
C48   C65   S    
Cu4   O8    S    
C15   C34   S    
C10   O12   A    
C39   C52   A    
C4    O10   A    
Cu3   O23   S    
C12   C32   A    
Cu4   O34   S    
C9    O16   A    
C13   C25   A    
C3    O40   A    
C63   O37   S    
C4    O41   A    
C35   C48   A    
C8    O15   A    
C15   C29   A    
C20   C29   A    
Cu1   O5    S    
C58   O31   S    
Cu6   O39   S    
C6    O13   A    
H7    O20   S    
C3    C44   S    
C17   C24   A    
C49   C66   S    
C13   C19   A    
H9    O22   S    
Cu1   Cu2   S    
C17   C27   A    
C14   C20   A    
C7    O14   A    
C31   C44   A    
C3    O9    A    
C47   C64   S    
H18   O31   S    
C1    C39   A    
C57   C60   A    
C38   C51   A    
C54   C62   A    
C11   C26   A    
C40   C56   A    
C14   C30   A    
Cu6   O11   S    
C7    O23   A    
C18   H29   S    
C14   C23   S    
C30   H23   S    
C42   C55   A    
C17   C56   S    
C2    O2    A    
C9    O1    A    
Cu5   O13   S    
C36   C45   A    
H14   O27   S    
C62   O36   S    
C6    O39   A    
C60   O33   S    
C52   C58   A    
C22   C27   A    
C33   O20   S    
H22   O36   S    
H20   O33   S    
C51   C59   A    
Cu2   O3    S    
C22   H2    S    
C65   O4    A    
C64   O5    A    
Cu5   O41   S    
C37   O24   S    
Cu3   O2    S    
C28   H26   S    
C2    O8    A    
C16   C22   A    
C39   O26   S    
C65   O6    A    
C5    O11   A    
C32   C46   A    
C32   O19   S    
C24   C28   A    
H11   O25   S    
C16   C45   S    
C19   H28   S    
Cu1   O4    S    
Cu5   O38   S    
C21   C30   A    
C21   H3    S    
C59   O32   S    
Cu4   O42   S    
C29   H25   S    
Cu4   O14   S    
C9    C51   S    
C35   O21   S    
Cu5   Cu6   S    
C37   C50   A    
C53   C63   A    
C61   O35   S    
C48   C61   A    
H19   O32   S    
C33   C47   A    
C55   C61   A    
Cu3   O15   S    
C24   H30   S    
C66   O7    A    
C12   C38   A    
Cu3   Cu4   S    
C41   C54   A    
H21   O35   S    
C43   C57   A    
C15   C21   A    
C12   C13   S    
C40   C53   A    
C41   C45   A    
H13   O26   S    
C1    C11   S    
Cu2   O6    S    
H16   O29   S    
Cu1   O17   S    
C36   C49   A    
Cu2   O12   S    
H8    O21   S    
