data_mof_unit_3200.cif
_audit_creation_date              2012-12-11T17:45:20-0500
_audit_creation_method            fapswitch 2.2
_symmetry_space_group_name_H-M    P1
_symmetry_Int_Tables_number       1
_space_group_crystal_system       triclinic
_cell_length_a                    15.179936
_cell_length_b                    15.093185
_cell_length_c                    14.953188
_cell_angle_alpha                 109.866418
_cell_angle_beta                  108.874347
_cell_angle_gamma                 110.239643
_cell_volume                      2618.41406078

loop_
_atom_site_label
_atom_site_type_symbol
_atom_type_description
_atom_site_fract_x
_atom_site_fract_y
_atom_site_fract_z
_atom_type_partial_charge
C1    C     C_R   0.979943 0.259592 0.070420 -0.133504
C2    C     C_R   0.298628 0.872355 0.293070 0.084393
C3    C     C_R   0.306060 0.497434 0.950365 -0.000517
C4    C     C_R   0.001409 0.500141 0.325726 0.064883
C5    C     C_R   0.685841 0.405075 0.955761 -0.146920
C6    C     C_R   0.096297 0.593041 0.793838 -0.129034
C7    C     C_R   0.780296 0.235270 0.684301 -0.118929
C8    C     C_R   0.990030 0.795065 0.084976 -0.132130
C9    C     C_R   0.076836 0.796006 0.988983 -0.129729
C10   C     C_R   0.685701 0.223867 0.772332 -0.140243
C11   C     C_R   0.775465 0.589913 0.041079 -0.140445
C12   C     C_R   0.298249 0.802283 0.204928 -0.125173
C13   C     C_R   0.012669 0.411258 0.705549 -0.134576
C14   C     C_R   0.674075 0.495141 0.980726 -0.001610
C15   C     C_R   0.077497 0.503731 0.706599 0.067220
C16   C     C_R   0.676561 0.188757 0.668558 0.076043
C17   C     C_R   0.035144 0.850721 0.041607 0.063501
C18   C     C_R   0.701566 0.215444 0.241633 -0.141390
C19   C     C_R   0.802274 0.305156 0.328507 -0.159117
C20   C     C_R   0.896883 0.300723 0.345527 0.120245
C21   C     C_R   0.889743 0.204991 0.276871 -0.234606
C22   C     C_R   0.788791 0.116542 0.188902 -0.115022
C23   C     C_R   0.209643 0.406985 0.911139 -0.147613
C24   C     C_R   0.694891 0.120922 0.172166 -0.089296
C25   C     C_R   0.052018 0.402519 0.527571 -0.233403
C26   C     C_R   0.111553 0.503402 0.625189 0.040850
C27   C     C_R   0.164917 0.600425 0.623707 0.058408
C28   C     C_R   0.133891 0.593038 0.521810 -0.242014
C29   C     C_R   0.043567 0.497117 0.426979 0.062819
C30   C     C_R   0.002925 0.399485 0.430468 0.029684
C31   C     C_R   0.242982 0.804255 0.727710 -0.234860
C32   C     C_R   0.317393 0.907678 0.821437 0.386991
C33   C     C_R   0.393143 0.918539 0.913795 -0.170193
C34   C     C_R   0.037770 0.592605 0.315218 -0.134174
C35   C     C_R   0.397271 0.826579 0.911151 -0.182314
C36   C     C_R   0.325169 0.723234 0.815889 -0.166694
C37   C     C_R   0.245907 0.710611 0.723694 0.075675
C38   C     C_R   0.148716 0.100998 0.385048 -0.128168
C39   C     C_R   0.230137 0.079557 0.380833 -0.124487
C40   C     C_R   0.286767 0.059013 0.458838 0.113533
C41   C     C_R   0.258245 0.057126 0.539054 -0.168050
C42   C     C_R   0.174671 0.075816 0.541149 -0.092775
C43   C     C_R   0.120433 0.098461 0.464647 -0.129658
C44   C     C_R   0.481779 0.120148 0.560453 -0.231440
C45   C     C_R   0.303721 0.590652 0.004201 -0.141939
C46   C     C_R   0.576127 0.123736 0.562313 0.052825
C47   C     C_R   0.574392 0.074235 0.461708 -0.084470
C48   C     C_R   0.478577 0.027031 0.364119 0.152735
C49   C     C_R   0.381123 0.990518 0.366927 -0.005064
C50   C     C_R   0.382592 0.051688 0.462680 -0.004625
C51   C     C_R   0.730683 0.098593 0.426341 -0.194350
C52   C     C_R   0.810890 0.073316 0.425435 -0.112861
C53   C     C_R   0.818381 0.995257 0.452456 -0.128469
C54   C     C_R   0.745826 0.942378 0.480692 -0.105285
C55   C     C_R   0.666196 0.968102 0.482769 -0.127289
C56   C     C_R   0.935343 0.409809 0.220567 -0.155032
C57   C     C_R   0.658154 0.046696 0.455982 0.102633
C58   C     C_3   0.482140 0.374327 0.921648 -0.379313
C59   C     C_3   0.379517 0.375033 0.909830 -0.377275
C60   C     C_3   0.596024 0.567279 0.083560 -0.402393
C61   C     C_3   0.536472 0.531885 0.888629 -0.384266
C62   C     C_3   0.574208 0.492226 0.968387 0.372107
C63   C     C_3   0.401417 0.494343 0.953673 0.381325
C64   C     C_3   0.493517 0.566651 0.075194 -0.392979
C65   C     C_3   0.435998 0.538041 0.883759 -0.416544
C66   C     C_R   0.431903 0.278330 0.119613 -0.109659
C67   C     C_R   0.208374 0.808853 0.296077 -0.143071
C68   C     C_R   0.326414 0.197221 0.079993 -0.124601
C69   C     C_R   0.260828 0.222853 0.119595 0.094775
C70   C     C_R   0.302835 0.332358 0.198009 -0.132786
C71   C     C_R   0.407933 0.413541 0.236261 -0.112182
C72   C     C_R   0.472793 0.386285 0.198041 -0.124240
C73   C     C_R   0.142704 0.034936 0.078518 -0.259849
C74   C     C_R   0.047677 0.955390 0.062405 0.073533
C75   C     C_R   0.964753 0.976634 0.064030 0.012834
C76   C     C_R   0.973381 0.070522 0.066924 -0.251266
C77   C     C_R   0.064269 0.147556 0.075192 0.066841
C78   C     C_R   0.065451 0.251128 0.973911 -0.106302
C79   C     C_R   0.154107 0.134227 0.088570 0.036364
C80   C     C_R   0.764002 0.851411 0.959298 -0.146231
C81   C     C_R   0.666483 0.812262 0.960370 -0.153695
C82   C     C_R   0.667022 0.821489 0.056867 -0.108222
C83   C     C_R   0.764675 0.869909 0.152220 -0.133522
C84   C     C_R   0.862324 0.914326 0.152881 -0.217487
C85   C     C_R   0.863323 0.904190 0.056125 0.130279
C86   C     C_R   0.050881 0.228993 0.052324 0.036776
H1    H     H_    0.948673 0.247321 0.122483 0.105057
H2    H     H_    0.147092 0.678923 0.825404 0.120084
H3    H     H_    0.806275 0.232399 0.625305 0.122446
H4    H     H_    0.973160 0.824728 0.149816 0.106300
H5    H     H_    0.129278 0.825094 0.958226 0.104130
H6    H     H_    0.620643 0.196994 0.789362 0.106437
H7    H     H_    0.795428 0.674287 0.078301 0.116059
H8    H     H_    0.992224 0.327953 0.657519 0.093094
H9    H     H_    0.617540 0.051303 0.104628 0.107814
H10   H     H_    0.629428 0.220337 0.227476 0.116653
H11   H     H_    0.807054 0.378980 0.380803 0.119376
H12   H     H_    0.348803 0.820768 0.169874 0.125746
H13   H     H_    0.962212 0.201102 0.288110 0.124811
H14   H     H_    0.783253 0.045753 0.131603 0.151976
H15   H     H_    0.020338 0.326157 0.527008 0.117569
H16   H     H_    0.175971 0.664829 0.518262 0.128752
H17   H     H_    0.182134 0.797321 0.658703 0.145714
H18   H     H_    0.448162 0.998310 0.987230 0.132685
H19   H     H_    0.455970 0.835392 0.983061 0.120558
H20   H     H_    0.328425 0.652513 0.814660 0.115117
H21   H     H_    0.057115 0.114882 0.467515 0.098198
H22   H     H_    0.178511 0.321913 0.855046 0.093355
H23   H     H_    0.108408 0.120797 0.327197 0.115674
H24   H     H_    0.251979 0.083515 0.319570 0.115584
H25   H     H_    0.301188 0.042064 0.600279 0.158002
H26   H     H_    0.153128 0.074461 0.603165 0.135852
H27   H     H_    0.484860 0.169486 0.634830 0.132669
H28   H     H_    0.727291 0.161114 0.408041 0.141323
H29   H     H_    0.868010 0.114753 0.404864 0.124683
H30   H     H_    0.880461 0.975789 0.451573 0.103304
H31   H     H_    0.751630 0.881841 0.501540 0.108798
H32   H     H_    0.085809 0.678192 0.378626 0.097168
H33   H     H_    0.610929 0.927106 0.505623 0.110688
H34   H     H_    0.505313 0.343082 0.977583 0.171558
H35   H     H_    0.465528 0.317251 0.839611 0.166469
H36   H     H_    0.315798 0.321923 0.821453 0.159632
H37   H     H_    0.351199 0.339371 0.956162 0.183796
H38   H     H_    0.624437 0.538837 0.140646 0.152546
H39   H     H_    0.469258 0.535139 0.125712 0.169801
H40   H     H_    0.602641 0.612574 0.915079 0.178086
H41   H     H_    0.516010 0.474063 0.805074 0.159461
H42   H     H_    0.368713 0.488603 0.797067 0.159593
H43   H     H_    0.362553 0.675062 0.036399 0.085980
H44   H     H_    0.455119 0.623988 0.915188 0.148719
H45   H     H_    0.660195 0.653227 0.119735 0.162392
H46   H     H_    0.511395 0.652739 0.110261 0.148360
H47   H     H_    0.554895 0.448777 0.229573 0.103307
H48   H     H_    0.482273 0.257138 0.090210 0.129054
H49   H     H_    0.296846 0.114003 0.019933 0.160776
H50   H     H_    0.255975 0.354625 0.232598 0.114369
H51   H     H_    0.439887 0.497319 0.297238 0.110379
H52   H     H_    0.208219 0.019533 0.085035 0.132528
H53   H     H_    0.902742 0.078171 0.054486 0.132543
H54   H     H_    0.879213 0.327019 0.192035 0.133587
H55   H     H_    0.762717 0.847423 0.885155 0.118563
H56   H     H_    0.590491 0.775292 0.886613 0.128252
H57   H     H_    0.592275 0.792685 0.058764 0.098001
H58   H     H_    0.764903 0.877754 0.226903 0.127107
H59   H     H_    0.937018 0.959864 0.229836 0.121439
H60   H     H_    0.177749 0.838994 0.348022 0.110571
H61   H     H_    0.111541 0.231885 0.936723 0.108825
H62   H     H_    0.626065 0.320680 0.920452 0.103267
N1    N     N_R   0.947080 0.293830 0.002870 -0.041406
N2    N     N_R   0.054040 0.556820 0.847890 -0.041808
N3    N     N_R   0.848290 0.293830 0.791110 -0.046508
N4    N     N_R   0.995680 0.706170 0.053910 -0.040413
N5    N     N_R   0.052920 0.706170 0.997130 -0.040398
N6    N     N_R   0.791050 0.293830 0.847890 -0.040697
N7    N     N_R   0.846330 0.556820 0.053910 -0.036750
N8    N     N_R   0.997640 0.443180 0.791110 -0.042341
N9    N     N_R   0.208950 0.706170 0.152110 -0.046516
N10   N     N_R   0.153670 0.443180 0.946090 -0.033082
N11   N     N_R   0.002360 0.556820 0.208890 -0.040037
N12   N     N_R   0.210070 0.556820 0.002870 -0.033184
N13   N     N_R   0.945960 0.443180 0.152110 -0.041948
N14   N     N_R   0.151710 0.706170 0.208890 -0.043118
N15   N     N_R   0.004320 0.293830 0.946090 -0.044550
N16   N     N_R   0.789930 0.443180 0.997130 -0.033110
Ni1   Ni    Ni4+2 0.869690 0.369690 0.000000 0.219766
Ni2   Ni    Ni4+2 0.130310 0.630310 0.000000 0.208732
Ni3   Ni    Ni4+2 0.000970 0.369690 0.869780 0.213571
Ni4   Ni    Ni4+2 0.999030 0.630310 0.130220 0.210981
Br1   Br    Br    0.315969 0.033996 0.822038 -0.711507
N17   N     N_2   0.477983 0.007340 0.263269 -0.119509
H63   H     H_    0.546650 0.017116 0.258955 0.177116
C87   C     C_3   0.410911 0.031969 0.193345 -0.967245
H64   H     H_    0.461283 0.093061 0.179385 0.246693
H65   H     H_    0.369312 0.066425 0.230324 0.258486
H66   H     H_    0.349321 0.956129 0.112679 0.250225

loop_
_geom_bond_atom_site_label_1
_geom_bond_atom_site_label_2
_ccdc_geom_bond_type
C34   H32   S    
C66   C68   A    
C32   Br1   S    
C63   C65   S    
C58   C62   S    
N5    Ni2   S    
C33   H18   S    
C18   H10   S    
C73   C74   A    
C3    C23   A    
C35   C36   A    
C2    C12   A    
C9    H5    S    
C65   H44   S    
C19   H11   S    
C71   H51   S    
C20   C30   S    
C84   H59   S    
C87   H64   S    
C45   H43   S    
C26   C27   A    
C80   C85   A    
C83   C84   A    
C18   C24   A    
C28   C29   A    
C8    N4    A    
C83   H58   S    
C56   H54   S    
C11   C14   A    
C40   C50   S    
C52   H29   S    
C73   H52   S    
C14   C62   S    
C23   N10   A    
C1    C86   A    
C6    H2    S    
N11   Ni4   S    
C60   C62   S    
C18   C19   A    
C41   C42   A    
N3    N6    A    
C1    H1    S    
C60   H38   S    
C42   H26   S    
C7    H3    S    
C6    C15   A    
C66   H48   S    
C75   C85   S    
C39   H24   S    
C66   C72   A    
C64   H46   S    
C44   C46   A    
C68   C69   A    
N11   N13   A    
N6    Ni1   S    
C1    N1    A    
C61   H40   S    
C51   C57   A    
N12   Ni2   S    
C12   N9    A    
C12   H12   S    
C4    C29   S    
C87   H66   S    
C11   N7    A    
C34   N11   A    
C78   C86   A    
C59   H36   S    
C10   H6    S    
C78   N15   A    
C5    H62   S    
N2    N8    A    
C21   C22   A    
C4    C56   A    
C70   H50   S    
C10   N6    A    
C61   C62   S    
C45   N12   A    
C25   H15   S    
C60   H45   S    
N4    Ni4   S    
C87   H65   S    
N10   Ni3   S    
C81   C82   A    
C77   C79   A    
C59   H37   S    
C4    C34   A    
C51   H28   S    
C22   H14   S    
C74   C75   A    
C36   H20   S    
C51   C52   A    
C65   H42   S    
N1    Ni1   S    
C84   C85   A    
C2    C67   A    
C24   H9    S    
C16   C46   S    
C39   C40   A    
C10   C16   A    
C21   H13   S    
C82   H57   S    
C15   C26   S    
C55   H33   S    
N8    Ni3   S    
C58   C59   S    
C53   C54   A    
C56   N13   A    
C3    C45   A    
C31   C37   A    
C31   H17   S    
N15   Ni3   S    
C75   C76   A    
C5    N16   A    
C13   N8    A    
C29   C30   A    
N16   Ni1   S    
C2    C49   S    
C28   H16   S    
C47   C57   S    
C47   C48   A    
N7    Ni4   S    
C20   C21   A    
C67   H60   S    
C58   H34   S    
C73   C79   A    
C61   H41   S    
C43   H21   S    
C76   C77   A    
C38   H23   S    
C5    C14   A    
C70   C71   A    
C78   H61   S    
C6    N2    A    
C48   N17   S    
C9    C17   A    
C48   C49   A    
C77   C86   S    
C49   C50   A    
C13   C15   A    
C41   H25   S    
C17   C74   S    
C7    N3    A    
C69   C79   S    
C8    H4    S    
C42   C43   A    
C52   C53   A    
C76   H53   S    
C44   C50   A    
C25   C30   A    
C54   C55   A    
C36   C37   A    
C58   H35   S    
C68   H49   S    
C7    C16   A    
C80   C81   A    
N9    Ni2   S    
C44   H27   S    
C53   H30   S    
N1    N15   A    
C3    C63   S    
N7    N16   A    
C59   C63   S    
C8    C17   A    
C13   H8    S    
C60   C64   S    
C32   C33   A    
C19   C20   A    
C55   C57   A    
C25   C26   A    
C38   C43   A    
C81   H56   S    
N10   N12   A    
C67   N14   A    
C11   H7    S    
C72   H47   S    
C38   C39   A    
N17   C87   S    
C27   C37   S    
N3    Ni3   S    
C23   H22   S    
C33   C35   A    
C22   C24   A    
C69   C70   A    
C46   C47   A    
N14   Ni4   S    
C9    N5    A    
C63   C64   S    
C31   C32   A    
C61   C65   S    
C71   C72   A    
N4    N5    A    
C64   H39   S    
N17   H63   S    
C54   H31   S    
C27   C28   A    
C40   C41   A    
C35   H19   S    
C82   C83   A    
N9    N14   A    
C80   H55   S    
N13   Ni1   S    
N2    Ni2   S    
