data_mof_unit_3287.cif
_audit_creation_date              2012-12-10T20:34:13-0500
_audit_creation_method            fapswitch 2.2
_symmetry_space_group_name_H-M    P1
_symmetry_Int_Tables_number       1
_space_group_crystal_system       triclinic
_cell_length_a                    9.921519
_cell_length_b                    10.677595
_cell_length_c                    13.627283
_cell_angle_alpha                 91.116836
_cell_angle_beta                  84.095381
_cell_angle_gamma                 90.122432
_cell_volume                      1435.71454611

loop_
_atom_site_label
_atom_site_type_symbol
_atom_type_description
_atom_site_fract_x
_atom_site_fract_y
_atom_site_fract_z
_atom_type_partial_charge
C1    C     C_R   0.500902 0.740006 0.496053 0.899672
C2    C     C_3   0.274002 0.939425 0.588662 0.040230
C3    C     C_R   0.917359 0.520981 0.585512 0.085805
C4    C     C_R   0.476858 0.502319 0.685300 0.898262
C5    C     C_R   0.936722 0.456272 0.421150 -0.140783
C6    C     C_R   0.080130 0.452533 0.420820 0.163269
C7    C     C_R   0.059032 0.520055 0.585344 0.120941
C8    C     C_3   0.057517 0.627760 0.656572 -0.022434
C9    C     C_3   0.902757 0.631953 0.655069 -0.063403
C10   C     C_R   0.500725 0.260634 0.492978 0.903215
C11   C     C_R   0.523444 0.498851 0.314747 0.894470
C12   C     C_1   0.461577 0.516250 0.788184 -0.214192
C13   C     C_1   0.540967 0.492627 0.211655 -0.246391
C14   C     C_2   0.556923 0.484978 0.019808 0.157890
C15   C     C_2   0.454015 0.540428 0.979204 0.163759
C16   C     C_1   0.453551 0.529212 0.875207 -0.021093
C17   C     C_1   0.553325 0.487682 0.124244 -0.036608
C18   C     C_3   0.280724 0.706604 0.991232 -0.813688
C19   C     C_3   0.154163 0.377746 0.336869 -0.369644
C20   C     C_3   0.180067 0.452689 0.241194 -0.302240
C21   C     C_3   0.056231 0.461061 0.183463 -0.907245
C22   C     C_3   0.096369 0.469376 0.786991 -0.694184
C23   C     C_R   0.382338 0.938228 0.502835 0.012655
C24   C     C_3   0.765163 0.709468 0.803506 -0.765299
C25   C     C_3   0.776767 0.372447 0.008888 -0.781084
C26   C     C_3   0.845025 0.852352 0.439916 -0.765189
C27   C     C_3   0.705037 0.177370 0.282075 -0.796045
C28   C     C_3   0.229518 0.920646 0.767309 -0.807866
C29   C     C_R   0.502548 0.871879 0.480279 -0.177488
C30   C     C_R   0.616722 0.933628 0.431347 0.125976
C31   C     C_R   0.614538 0.065440 0.426463 0.145953
C32   C     C_R   0.500172 0.129503 0.472558 -0.161327
C33   C     C_R   0.381012 0.064728 0.497227 0.021462
C34   C     C_3   0.274412 0.081537 0.581750 -0.435755
H1    H     H_    0.109920 0.710616 0.623833 0.110534
H2    H     H_    0.355652 0.782312 0.973251 0.240835
H3    H     H_    0.010338 0.367177 0.174127 0.254376
H4    H     H_    0.979741 0.526072 0.221212 0.262651
H5    H     H_    0.087346 0.498445 0.109092 0.270854
H6    H     H_    0.214440 0.549197 0.257667 0.237568
H7    H     H_    0.262170 0.405107 0.192817 0.215026
H8    H     H_    0.248892 0.338489 0.358885 0.219130
H9    H     H_    0.094539 0.292273 0.322048 0.159954
H10   H     H_    0.077021 0.663547 0.806262 0.235477
H11   H     H_    0.142400 0.464872 0.857730 0.224319
H12   H     H_    0.864967 0.716265 0.620103 0.140706
H13   H     H_    0.153637 0.404541 0.733514 0.244575
H14   H     H_    0.989926 0.437241 0.799921 0.229985
H15   H     H_    0.772720 0.522450 0.753671 0.261821
H16   H     H_    0.727947 0.681112 0.879448 0.252817
H17   H     H_    0.677966 0.742485 0.765905 0.237900
H18   H     H_    0.839192 0.786981 0.808599 0.229720
H19   H     H_    0.639623 0.369348 0.902003 0.220795
H20   H     H_    0.856686 0.335996 0.952633 0.228695
H21   H     H_    0.739605 0.294368 0.057201 0.241242
H22   H     H_    0.822372 0.446688 0.053194 0.260632
H23   H     H_    0.313382 0.132845 0.644817 0.202452
H24   H     H_    0.754145 0.885355 0.311324 0.220954
H25   H     H_    0.932140 0.906473 0.404794 0.201966
H26   H     H_    0.875724 0.752577 0.439783 0.255982
H27   H     H_    0.822317 0.886309 0.517520 0.229578
H28   H     H_    0.820026 0.093582 0.381377 0.232938
H29   H     H_    0.698372 0.096725 0.230028 0.223896
H30   H     H_    0.791298 0.237765 0.254223 0.231828
H31   H     H_    0.610560 0.233474 0.285069 0.239611
H32   H     H_    0.353918 0.804510 0.675010 0.237612
H33   H     H_    0.272695 0.882240 0.832203 0.239998
H34   H     H_    0.178912 0.119456 0.558026 0.172027
H35   H     H_    0.129635 0.876217 0.760251 0.225224
H36   H     H_    0.215030 0.022834 0.780382 0.249173
H37   H     H_    0.177783 0.895924 0.570429 0.125213
H38   H     H_    0.888302 0.418936 0.359360 0.176856
H39   H     H_    0.356530 0.624027 0.109955 0.228517
H40   H     H_    0.196175 0.744908 0.042796 0.237267
H41   H     H_    0.237883 0.673364 0.923476 0.258477
N1    N     N_R   0.857130 0.500860 0.500650 -0.133163
N2    N     N_R   0.142770 0.500820 0.500650 -0.142969
N3    N     N_2   0.344691 0.604533 0.037076 -0.309958
N4    N     N_2   0.103659 0.597186 0.751879 -0.258689
N5    N     N_2   0.828975 0.603702 0.749826 -0.263866
N6    N     N_2   0.666500 0.423580 0.960343 -0.307935
N7    N     N_2   0.728721 0.864130 0.384400 -0.280292
N8    N     N_2   0.726084 0.133307 0.379026 -0.282891
N9    N     N_2   0.321425 0.896255 0.679519 -0.277908
O1    O     O_R   0.385310 0.683210 0.499990 -0.631732
O2    O     O_R   0.614650 0.683240 0.500000 -0.582669
O3    O     O_R   0.368820 0.499950 0.640340 -0.593220
O4    O     O_R   0.598170 0.499990 0.640350 -0.621053
O5    O     O_R   0.385350 0.316760 0.500000 -0.641956
O6    O     O_R   0.614690 0.316790 0.500010 -0.583807
O7    O     O_R   0.401830 0.500010 0.359650 -0.638602
O8    O     O_R   0.631180 0.500050 0.359660 -0.601885
Zn1   Zn    Zn3+2 0.346870 0.499980 0.499990 0.921501
Zn2   Zn    Zn3+2 0.653130 0.500020 0.500010 0.950313

loop_
_geom_bond_atom_site_label_1
_geom_bond_atom_site_label_2
_ccdc_geom_bond_type
C24   H18   S    
C22   H14   S    
H28   N8    S    
C18   H41   S    
C28   N9    S    
C2    N9    S    
C19   C20   S    
C25   H22   S    
C20   H7    S    
C7    C8    S    
C4    O3    A    
C6    C19   S    
C27   H31   S    
C23   C29   A    
C26   H27   S    
C22   N4    S    
C5    H38   S    
C3    C7    A    
H24   N7    S    
C30   C31   A    
C20   H6    S    
C15   N3    S    
O7    Zn1   S    
C15   C16   S    
C31   N8    S    
H19   N6    S    
O2    Zn2   S    
N1    Zn2   S    
O1    Zn1   S    
C11   O8    A    
C24   N5    S    
C21   H4    S    
C28   H35   S    
C10   O5    A    
C8    C9    S    
C23   C33   A    
C34   H23   S    
H39   N3    S    
C4    C12   S    
C26   H25   S    
C19   H8    S    
C7    N2    A    
C2    C34   S    
C24   H17   S    
C22   H13   S    
C9    H12   S    
C26   N7    S    
C25   N6    S    
C14   C17   S    
C1    C29   S    
C19   H9    S    
O6    Zn2   S    
C1    O1    A    
O4    Zn2   S    
C12   C16   T    
C28   H33   S    
C25   H20   S    
C34   H34   S    
C6    N2    A    
C8    H1    S    
C30   N7    S    
C29   C30   A    
C3    C9    S    
C11   O7    A    
C8    N4    S    
C31   C32   A    
C21   H5    S    
C18   N3    S    
O8    Zn2   S    
C33   C34   S    
C3    N1    A    
C24   H16   S    
C27   H29   S    
C2    H37   S    
C1    O2    A    
H10   N4    S    
C28   H36   S    
C25   H21   S    
C4    O4    A    
H15   N5    S    
C13   C17   T    
C32   C33   A    
C5    N1    A    
C27   N8    S    
C11   C13   S    
C5    C6    A    
C26   H26   S    
O3    Zn1   S    
N2    Zn1   S    
O5    Zn1   S    
C27   H30   S    
H32   N9    S    
C10   C32   S    
C22   H11   S    
C21   H3    S    
C20   C21   S    
C10   O6    A    
C18   H40   S    
C2    C23   S    
C14   C15   D    
C14   N6    S    
C18   H2    S    
C9    N5    S    
