data_mof_unit_1775.cif
_audit_creation_date              2013-03-05T15:40:53-0500
_audit_creation_method            fapswitch 2.2
_symmetry_space_group_name_H-M    P1
_symmetry_Int_Tables_number       1
_space_group_crystal_system       triclinic
_cell_length_a                    17.506096
_cell_length_b                    24.488187
_cell_length_c                    14.812185
_cell_angle_alpha                 89.915624
_cell_angle_beta                  124.809745
_cell_angle_gamma                 89.949463
_cell_volume                      5213.55994101

loop_
_atom_site_label
_atom_site_type_symbol
_atom_site_description
_atom_site_fract_x
_atom_site_fract_y
_atom_site_fract_z
_atom_type_partial_charge
C1    C     C_R   0.832857 0.645502 0.910208 -0.055956
C2    C     C_R   0.167635 0.645026 0.088119 -0.041641
C3    C     C_R   0.331585 0.144737 0.911571 -0.056620
C4    C     C_R   0.666622 0.145633 0.089396 -0.037716
H1    H     H_    0.786786 0.660795 0.827159 0.140774
H2    H     H_    0.212078 0.661812 0.169931 0.126826
H3    H     H_    0.286850 0.161563 0.829661 0.140259
H4    H     H_    0.712363 0.161013 0.172250 0.127526
N1    N     N_R   0.892320 0.603520 0.941090 -0.061976
N2    N     N_R   0.107680 0.603520 0.058910 -0.061092
N3    N     N_R   0.392320 0.103520 0.941090 -0.062525
N4    N     N_R   0.607680 0.103520 0.058910 -0.061104
C5    C     C_R   0.914700 0.371285 0.098838 -0.186572
C6    C     C_R   0.086070 0.374063 0.899383 -0.168513
C7    C     C_R   0.413874 0.874042 0.100632 -0.169551
C8    C     C_R   0.584970 0.871228 0.900952 -0.189210
H5    H     H_    0.946472 0.361937 0.183875 0.173536
H6    H     H_    0.056241 0.370174 0.812693 0.176862
H7    H     H_    0.443661 0.870023 0.187323 0.177141
H8    H     H_    0.552956 0.861962 0.815913 0.174405
N5    N     N_R   0.953790 0.399020 0.058440 -0.083726
N6    N     N_R   0.046210 0.399020 0.941560 -0.090443
N7    N     N_R   0.453790 0.899020 0.058440 -0.090369
N8    N     N_R   0.546210 0.899020 0.941560 -0.083308
C9    C     C_R   0.010319 0.547244 0.278243 -0.123115
C10   C     C_R   0.947362 0.547033 0.695229 -0.133348
C11   C     C_R   0.552551 0.046863 0.304695 -0.139873
C12   C     C_R   0.489617 0.047328 0.721679 -0.112171
H9    H     H_    0.008185 0.589248 0.298445 0.095755
H10   H     H_    0.928578 0.588802 0.667006 0.095076
H11   H     H_    0.571365 0.088559 0.332897 0.090856
H12   H     H_    0.491863 0.089358 0.701533 0.095782
N9    N     N_R   0.026760 0.529450 0.205590 -0.041364
N10   N     N_R   0.973240 0.529450 0.794410 -0.038166
N11   N     N_R   0.526760 0.029450 0.205590 -0.038366
N12   N     N_R   0.473240 0.029450 0.794410 -0.041052
C13   C     C_R   0.736684 0.456667 0.707990 -0.058607
C14   C     C_R   0.268429 0.455758 0.264507 -0.111345
C15   C     C_R   0.231145 0.956530 0.732467 -0.102820
C16   C     C_R   0.765436 0.955734 0.284603 -0.063253
H13   H     H_    0.718768 0.415817 0.675547 0.154693
H14   H     H_    0.291976 0.414748 0.291792 0.172869
H15   H     H_    0.207108 0.915734 0.704007 0.179100
H16   H     H_    0.784173 0.914842 0.316772 0.153684
N13   N     N_R   0.819350 0.473090 0.793940 -0.054507
N14   N     N_R   0.180650 0.473090 0.206060 -0.062812
N15   N     N_R   0.319350 0.973090 0.793940 -0.062545
N16   N     N_R   0.680650 0.973090 0.206060 -0.058627
C17   C     C_R   0.016311 0.456166 0.283693 -0.137462
C18   C     C_R   0.944721 0.456449 0.693449 -0.124057
C19   C     C_R   0.555075 0.956270 0.306507 -0.122883
C20   C     C_R   0.483344 0.956280 0.716059 -0.136405
H17   H     H_    0.026313 0.415234 0.315478 0.109484
H18   H     H_    0.922833 0.415202 0.664176 0.090243
H19   H     H_    0.576784 0.914945 0.335862 0.090291
H20   H     H_    0.473105 0.915432 0.684130 0.109734
N17   N     N_R   0.027860 0.473090 0.206590 -0.043703
N18   N     N_R   0.972140 0.473090 0.793410 -0.043285
N19   N     N_R   0.527860 0.973090 0.206590 -0.044006
N20   N     N_R   0.472140 0.973090 0.793410 -0.044020
C21   C     C_R   0.736707 0.548093 0.710802 -0.076236
C22   C     C_R   0.268832 0.547138 0.263229 -0.100746
C23   C     C_R   0.231894 0.047967 0.733800 -0.094537
C24   C     C_R   0.766012 0.047308 0.283711 -0.074183
H21   H     H_    0.721687 0.590226 0.684762 0.141470
H22   H     H_    0.290985 0.589023 0.285233 0.130713
H23   H     H_    0.212001 0.090020 0.710538 0.146744
H24   H     H_    0.784649 0.089235 0.310065 0.122727
N21   N     N_R   0.818250 0.529450 0.792940 -0.056980
N22   N     N_R   0.181750 0.529450 0.207060 -0.056546
N23   N     N_R   0.318250 0.029450 0.792940 -0.056328
N24   N     N_R   0.681750 0.029450 0.207060 -0.056701
C25   C     C_R   0.820786 0.369716 0.916556 0.601452
C26   C     C_R   0.175945 0.366464 0.081774 0.572240
C27   C     C_R   0.323791 0.866904 0.918169 0.572931
C28   C     C_R   0.678851 0.869123 0.083083 0.602085
N25   N     N_R   0.896320 0.399020 0.944720 -0.108850
N26   N     N_R   0.103680 0.399020 0.055280 -0.109771
N27   N     N_R   0.396320 0.899020 0.944720 -0.110452
N28   N     N_R   0.603680 0.899020 0.055280 -0.108341
C29   C     C_R   0.926221 0.643365 0.094419 -0.151881
C30   C     C_R   0.076786 0.640651 0.903854 -0.148139
C31   C     C_R   0.422591 0.140313 0.095905 -0.147412
C32   C     C_R   0.573490 0.143425 0.905251 -0.155523
H25   H     H_    0.966144 0.656641 0.178964 0.081445
H26   H     H_    0.039138 0.651565 0.817824 0.088865
H27   H     H_    0.460179 0.151232 0.181830 0.089680
H28   H     H_    0.533581 0.156647 0.820551 0.082374
N29   N     N_R   0.949790 0.603520 0.054810 -0.046332
N30   N     N_R   0.050210 0.603520 0.945190 -0.047867
N31   N     N_R   0.449790 0.103520 0.054810 -0.048248
N32   N     N_R   0.550210 0.103520 0.945190 -0.046141
C33   C     C_R   0.852792 0.669717 0.006508 0.216136
C34   C     C_R   0.150354 0.667199 0.991211 0.226738
C35   C     C_R   0.348525 0.166677 0.008355 0.217958
C36   C     C_R   0.646587 0.169874 0.992929 0.220582
C37   C     C_R   0.828823 0.354742 0.012917 -0.088885
C38   C     C_R   0.169550 0.354332 0.985178 -0.051455
C39   C     C_R   0.330301 0.854523 0.014809 -0.053180
C40   C     C_R   0.670742 0.854489 0.986642 -0.085859
C41   C     C_R   0.998821 0.501655 0.323582 0.141133
C42   C     C_R   0.926433 0.502083 0.629699 0.134158
C43   C     C_R   0.573344 0.001793 0.370196 0.141678
C44   C     C_R   0.500907 0.001781 0.676199 0.140139
C45   C     C_R   0.684012 0.502941 0.658392 0.086077
C46   C     C_R   0.323778 0.501266 0.296591 0.176617
C47   C     C_R   0.176248 0.002711 0.697960 0.133576
C48   C     C_R   0.819732 0.001436 0.329840 0.134443
Ni1   Ni    Ni4+2 0.934100 0.565890 0.869590 0.221259
Ni2   Ni    Ni4+2 0.065900 0.565890 0.130410 0.221160
Ni3   Ni    Ni4+2 0.434100 0.065890 0.869590 0.228089
Ni4   Ni    Ni4+2 0.565900 0.065890 0.130410 0.217217
Ni5   Ni    Ni4+2 0.068420 0.436630 0.132700 0.208608
Ni6   Ni    Ni4+2 0.931580 0.436630 0.867300 0.210147
Ni7   Ni    Ni4+2 0.568420 0.936630 0.132700 0.209094
Ni8   Ni    Ni4+2 0.431580 0.936630 0.867300 0.208780
C49   C     C_3   0.514354 0.467386 0.546579 -0.100758
C50   C     C_3   0.486508 0.451270 0.430408 -0.118597
C51   C     C_3   0.001968 0.966794 0.589874 -0.078965
C52   C     C_3   0.977480 0.951425 0.474646 -0.118608
C53   C     C_3   0.447909 0.517069 0.498779 -0.289532
C54   C     C_3   0.565568 0.487569 0.444636 -0.262690
C55   C     C_3   0.935319 0.016816 0.540112 -0.296529
C56   C     C_3   0.057483 0.987795 0.492905 -0.267616
H29   H     H_    0.398570 0.529398 0.519503 0.173476
H30   H     H_    0.615744 0.475980 0.424791 0.170089
H31   H     H_    0.883339 0.029030 0.556711 0.170602
H32   H     H_    0.109051 0.976198 0.475230 0.170961
H33   H     H_    0.522910 0.438859 0.610120 0.199244
H34   H     H_    0.468781 0.409502 0.395348 0.201064
H35   H     H_    0.008254 0.938068 0.651785 0.205029
H36   H     H_    0.960608 0.909880 0.438319 0.183240
C57   C     C_3   0.421227 0.501158 0.383528 -0.033148
C58   C     C_3   0.591433 0.503760 0.559379 -0.023670
C59   C     C_3   0.912909 0.001511 0.426524 -0.040059
C60   C     C_3   0.080353 0.003319 0.606699 -0.021122
C61   C     C_3   0.498452 0.536840 0.397470 0.310943
C62   C     C_3   0.525414 0.552567 0.511459 0.265941
C63   C     C_3   0.991853 0.037160 0.445031 0.308667
C64   C     C_3   0.015072 0.052318 0.557565 0.261261
C65   C     C_2   0.133996 0.764209 0.950255 0.477742
C66   C     C_2   0.868881 0.766688 0.047867 0.477630
C67   C     C_2   0.630591 0.266967 0.951235 0.474832
C68   C     C_2   0.365270 0.263546 0.048796 0.482265
C69   C     C_2   0.183917 0.717732 0.977741 -0.317918
C70   C     C_2   0.818875 0.720271 0.018963 -0.315492
C71   C     C_2   0.680473 0.220385 0.980163 -0.321729
C72   C     C_2   0.315138 0.217292 0.021657 -0.310414
H37   H     H_    0.250007 0.716438 0.986744 0.149294
H38   H     H_    0.753162 0.718638 0.010797 0.142758
H39   H     H_    0.746298 0.218631 0.988604 0.145619
H40   H     H_    0.249381 0.216207 0.013472 0.145297
C73   C     C_2   0.675720 0.317397 0.949912 0.134770
C74   C     C_2   0.320898 0.314457 0.049275 0.145417
C75   C     C_2   0.178812 0.815023 0.950370 0.151594
C76   C     C_2   0.823860 0.817161 0.049379 0.130206
C77   C     C_2   0.766915 0.323961 0.030317 0.140495
C78   C     C_2   0.230089 0.321982 0.968017 0.134871
C79   C     C_2   0.269631 0.822166 0.031765 0.137163
C80   C     C_2   0.732667 0.823915 0.969016 0.140367
C81   C     C_2   0.906940 0.462781 0.381631 -0.073467
C82   C     C_2   0.882106 0.458989 0.460049 -0.104475
C83   C     C_2   0.617309 0.958519 0.539809 -0.097302
C84   C     C_2   0.592591 0.962513 0.618274 -0.078214
C85   C     C_2   0.966485 0.501401 0.393525 -0.203224
C86   C     C_2   0.883903 0.503855 0.512351 -0.191806
C87   C     C_2   0.615888 0.003368 0.487518 -0.212215
C88   C     C_2   0.533384 0.001470 0.606410 -0.201402
H41   H     H_    0.885360 0.429982 0.322420 0.153985
H42   H     H_    0.883938 0.418437 0.490745 0.135292
H43   H     H_    0.615039 0.917965 0.509065 0.135968
H44   H     H_    0.613884 0.929594 0.677445 0.154796
H45   H     H_    0.990922 0.533939 0.453611 0.139279
H46   H     H_    0.875635 0.543950 0.476151 0.146263
H47   H     H_    0.624510 0.043428 0.523724 0.141635
H48   H     H_    0.509225 0.034151 0.546378 0.141690
N33   N     N_R   0.491312 0.574101 0.316054 0.262572
O1    O     O_R   0.564821 0.599995 0.337751 -0.355883
O2    O     O_R   0.414128 0.578317 0.218709 -0.370750
N34   N     N_R   0.544348 0.607540 0.557127 0.229914
O3    O     O_R   0.541114 0.649122 0.500346 -0.336273
O4    O     O_R   0.557662 0.615645 0.651905 -0.373670
N35   N     N_R   0.990471 0.074776 0.367584 0.260820
O5    O     O_R   0.065594 0.101434 0.397286 -0.349210
O6    O     O_R   0.919373 0.076701 0.265464 -0.365887
N36   N     N_R   0.034315 0.106770 0.605460 0.231280
O7    O     O_R   0.029697 0.149216 0.549703 -0.333541
O8    O     O_R   0.051251 0.113381 0.702417 -0.373684
O9    O     O_3   0.052450 0.766442 0.945182 -0.630353
C89   C     C_3   0.973909 0.761766 0.835146 0.228894
H49   H     H_    0.931278 0.727080 0.831380 0.121352
H50   H     H_    0.990607 0.752634 0.774335 0.095383
C90   C     C_3   0.915345 0.813889 0.801728 -0.205750
H51   H     H_    0.892738 0.820008 0.857344 0.256321
H52   H     H_    0.957604 0.849869 0.810876 0.227783
C91   C     C_3   0.830194 0.810994 0.682867 -0.904548
H53   H     H_    0.852082 0.807621 0.625921 0.257437
H54   H     H_    0.787859 0.848673 0.662257 0.271449
H55   H     H_    0.786562 0.775191 0.671335 0.289219
O10   O     O_3   0.950222 0.769355 0.052557 -0.629581
C92   C     C_3   0.029057 0.764494 0.162408 0.227580
H56   H     H_    0.071797 0.729865 0.165980 0.123915
H57   H     H_    0.012753 0.755170 0.223522 0.093184
C93   C     C_3   0.087317 0.816586 0.195491 -0.198725
H58   H     H_    0.110672 0.822497 0.140511 0.251020
H59   H     H_    0.044570 0.852620 0.185119 0.232147
C94   C     C_3   0.171769 0.813832 0.314863 -0.899364
H60   H     H_    0.149072 0.811031 0.371105 0.261351
H61   H     H_    0.214292 0.851300 0.335171 0.276933
H62   H     H_    0.215518 0.777760 0.327883 0.283785
O11   O     O_3   0.548982 0.269818 0.945923 -0.630776
C95   C     C_3   0.470478 0.264395 0.836072 0.232926
H63   H     H_    0.428609 0.229465 0.833107 0.125546
H64   H     H_    0.487261 0.255298 0.775330 0.093063
C96   C     C_3   0.410809 0.316075 0.801660 -0.206002
H65   H     H_    0.387706 0.322036 0.856856 0.252109
H66   H     H_    0.452463 0.352346 0.810585 0.230820
C97   C     C_3   0.326089 0.312515 0.682607 -0.894029
H67   H     H_    0.348453 0.309551 0.626068 0.259986
H68   H     H_    0.282648 0.349741 0.661293 0.275113
H69   H     H_    0.283362 0.276239 0.671114 0.288836
O12   O     O_3   0.446251 0.265477 0.052568 -0.630474
C98   C     C_3   0.525483 0.261457 0.162363 0.224554
H70   H     H_    0.569036 0.227206 0.166389 0.120206
H71   H     H_    0.509748 0.251919 0.223904 0.096037
C99   C     C_3   0.582310 0.314107 0.194110 -0.196735
H72   H     H_    0.605322 0.320117 0.138845 0.254619
H73   H     H_    0.538713 0.349789 0.183084 0.230789
C100  C     C_3   0.667040 0.312308 0.313370 -0.911727
H74   H     H_    0.644672 0.309239 0.369899 0.259596
H75   H     H_    0.708284 0.350271 0.332691 0.272711
H76   H     H_    0.711889 0.276742 0.326891 0.284266
N37   N     N_R   0.626048 0.354640 0.858613 0.243122
O13   O     O_R   0.570709 0.336289 0.758857 -0.432746
O14   O     O_R   0.636971 0.407104 0.874874 -0.390077
N38   N     N_R   0.370165 0.350704 0.141976 0.237076
O15   O     O_R   0.423879 0.331197 0.241202 -0.440378
O16   O     O_R   0.361316 0.403363 0.127433 -0.396489
N39   N     N_R   0.129547 0.852062 0.858633 0.236355
O17   O     O_R   0.075982 0.833454 0.758834 -0.436344
O18   O     O_R   0.138998 0.904578 0.874622 -0.415498
N40   N     N_R   0.873300 0.853967 0.141101 0.243477
O19   O     O_R   0.928439 0.835155 0.240714 -0.428344
O20   O     O_R   0.862392 0.906505 0.125346 -0.374648
N41   N     N_R   0.807913 0.296812 0.135130 0.230824
O21   O     O_R   0.883070 0.267603 0.176736 -0.402087
O22   O     O_R   0.768248 0.299696 0.187078 -0.416948
N42   N     N_R   0.188111 0.294311 0.863717 0.234783
O23   O     O_R   0.108231 0.269953 0.818556 -0.391692
O24   O     O_R   0.230609 0.292353 0.814991 -0.407564
N43   N     N_R   0.311371 0.794202 0.135950 0.233668
O25   O     O_R   0.391376 0.769785 0.181443 -0.395726
O26   O     O_R   0.268566 0.792081 0.184303 -0.413040
N44   N     N_R   0.691754 0.797183 0.864041 0.231709
O27   O     O_R   0.616846 0.767903 0.822404 -0.402960
O28   O     O_R   0.731243 0.800540 0.811944 -0.413070
O29   O     O_3   0.758410 0.348081 0.813597 -0.647515
C101  C     C_3   0.798065 0.301678 0.798253 0.179425
H77   H     H_    0.742857 0.270170 0.755535 0.147668
H78   H     H_    0.855987 0.282389 0.876588 0.078617
C102  C     C_3   0.831059 0.316320 0.725262 -0.422314
H79   H     H_    0.770879 0.330428 0.643632 0.211632
H80   H     H_    0.882376 0.349976 0.763590 0.204323
C103  C     C_3   0.876006 0.267451 0.708968 -0.796843
H81   H     H_    0.937108 0.252966 0.789473 0.282995
H82   H     H_    0.899711 0.279603 0.656475 0.282821
H83   H     H_    0.825089 0.233634 0.667968 0.247148
O30   O     O_3   0.231304 0.338160 0.179647 -0.660874
C104  C     C_3   0.176346 0.308048 0.204444 0.197813
H84   H     H_    0.204129 0.265678 0.224471 0.150013
H85   H     H_    0.101321 0.304537 0.134856 0.080068
C105  C     C_3   0.185180 0.332307 0.305198 -0.400578
H86   H     H_    0.259919 0.337409 0.372903 0.226404
H87   H     H_    0.151131 0.372994 0.283813 0.198382
C106  C     C_3   0.140032 0.295693 0.345607 -0.847844
H88   H     H_    0.065880 0.288555 0.278717 0.293463
H89   H     H_    0.144017 0.315649 0.415457 0.265916
H90   H     H_    0.176838 0.255820 0.374051 0.273794
O31   O     O_3   0.267691 0.839405 0.819782 -0.657909
C107  C     C_3   0.321968 0.808235 0.795356 0.195188
H91   H     H_    0.292552 0.766316 0.774492 0.147087
H92   H     H_    0.396683 0.803597 0.865394 0.078948
C108  C     C_3   0.314955 0.832359 0.695466 -0.387056
H93   H     H_    0.240576 0.838073 0.626924 0.225387
H94   H     H_    0.349789 0.872736 0.717400 0.197251
C109  C     C_3   0.360443 0.795189 0.656322 -0.873466
H95   H     H_    0.434250 0.787522 0.724013 0.295085
H96   H     H_    0.357665 0.814982 0.586993 0.269360
H97   H     H_    0.323053 0.755601 0.627532 0.266846
O32   O     O_3   0.739980 0.845815 0.184967 -0.651808
C110  C     C_3   0.696948 0.801179 0.199956 0.182974
H98   H     H_    0.748851 0.767578 0.238998 0.148443
H99   H     H_    0.635594 0.784168 0.121682 0.079003
C111  C     C_3   0.669135 0.817346 0.277220 -0.444798
H100  H     H_    0.731751 0.830735 0.357417 0.215204
H101  H     H_    0.619297 0.851909 0.240780 0.204820
C112  C     C_3   0.624121 0.769793 0.296933 -0.755348
H102  H     H_    0.561560 0.755494 0.217740 0.284693
H103  H     H_    0.602769 0.783259 0.351038 0.276327
H104  H     H_    0.674207 0.735429 0.337559 0.256004

loop_
_geom_bond_atom_site_label_1
_geom_bond_atom_site_label_2
_geom_bond_distance
_ccdc_geom_bond_type
N24   Ni4   1.887692 S    
C57   C61   1.522395 S    
C30   C34   1.362690 A    
C112  H103  1.110533 S    
C66   C70   1.347942 D    
C98   H70   1.111388 S    
C60   C64   1.523453 S    
C98   C99   1.530713 S    
N34   O3    1.300179 A    
C59   C63   1.522323 S    
C74   C78   1.350595 D    
C25   O29   1.378753 S    
C22   N22   1.325896 A    
N44   O28   1.299633 A    
C70   H38   1.086667 S    
C46   C57   1.435402 S    
C106  H88   1.108965 S    
C105  H86   1.111662 S    
C94   H62   1.110733 S    
N40   O20   1.301531 A    
C6    C38   1.364093 A    
C4    N4    1.342914 A    
C21   C45   1.364872 A    
C65   C69   1.347416 D    
C34   C69   1.432050 S    
N41   O21   1.301445 A    
N34   O4    1.300728 A    
C9    H9    1.078223 S    
N15   Ni8   1.842447 S    
C86   H46   1.087231 S    
N13   N21   1.380211 A    
C12   H12   1.078185 S    
N6    N26   1.383730 A    
C11   N11   1.336432 A    
N35   O5    1.300381 A    
C100  H74   1.110976 S    
C12   C44   1.375040 A    
C76   C80   1.349904 D    
C8    H8    1.071110 S    
N12   Ni3   1.838157 S    
C5    N5    1.324676 A    
N15   N23   1.380211 A    
C76   N40   1.438668 S    
C23   N23   1.320623 A    
C67   C71   1.347945 D    
C104  H85   1.117896 S    
N26   Ni5   1.831551 S    
C13   N13   1.332618 A    
C15   N15   1.332221 A    
C16   N16   1.327832 A    
C36   C71   1.430489 S    
C109  H97   1.110756 S    
C32   H28   1.079180 S    
C54   C61   1.543448 S    
C91   H53   1.110976 S    
C15   H15   1.073434 S    
C63   C64   1.519865 S    
N32   Ni3   1.908492 S    
C22   C46   1.372990 A    
C51   C55   1.555014 S    
C28   C40   1.399741 A    
C31   N31   1.319388 A    
C51   C60   1.535417 S    
C52   C59   1.537935 S    
C79   N43   1.446708 S    
C10   C42   1.373261 A    
C109  H96   1.110547 S    
C105  C106  1.525335 S    
C17   H17   1.077596 S    
C19   H19   1.080242 S    
C68   C74   1.470482 S    
N14   N22   1.380289 A    
C3    N3    1.344033 A    
N3    N31   1.383730 A    
C95   H63   1.111445 S    
C1    C33   1.393770 A    
C90   H51   1.109132 S    
N10   N18   1.380289 A    
C25   N25   1.345446 A    
C3    C35   1.396033 A    
C66   C76   1.472365 S    
N36   O7    1.300041 A    
C27   N27   1.348289 A    
C81   C85   1.343346 D    
C14   C46   1.372711 A    
C89   H49   1.111433 S    
C39   C79   1.457535 S    
C56   C63   1.532657 S    
C101  H78   1.118875 S    
C26   C38   1.402293 A    
C53   H29   1.110847 S    
C24   H24   1.081359 S    
C110  H99   1.118856 S    
C100  H76   1.110792 S    
C102  H79   1.111311 S    
C17   N17   1.333909 A    
N38   O15   1.300701 A    
O29   C101  1.415730 S    
C50   C54   1.555559 S    
C54   C58   1.540946 S    
N22   Ni2   1.887692 S    
C55   H31   1.110450 S    
N13   Ni6   1.842447 S    
C103  H81   1.110744 S    
N33   O2    1.300156 A    
C51   H35   1.109352 S    
C49   H33   1.110508 S    
N37   O13   1.300839 A    
C28   O32   1.378769 S    
C81   H41   1.086906 S    
C42   C86   1.449031 S    
C4    C36   1.393593 A    
C108  C109  1.525202 S    
C5    C37   1.364592 A    
C92   H57   1.116920 S    
N16   N24   1.380289 A    
C91   H55   1.110834 S    
C24   C48   1.369435 A    
C22   H22   1.079833 S    
C75   C79   1.350758 D    
C1    N1    1.342707 A    
C2    C34   1.395850 A    
C106  H90   1.110776 S    
C107  H91   1.111109 S    
C48   C59   1.429903 S    
N5    Ni5   1.889771 S    
C96   C97   1.526972 S    
C8    C40   1.362028 A    
N17   Ni5   1.840709 S    
N29   Ni2   1.905165 S    
C55   C59   1.540672 S    
N31   Ni4   1.905165 S    
C71   H39   1.086636 S    
C13   C45   1.377073 A    
C21   H21   1.079354 S    
C97   H68   1.110339 S    
C95   C96   1.529846 S    
C90   C91   1.526751 S    
C27   C39   1.402269 A    
C33   C70   1.429542 S    
N39   O18   1.301495 A    
N2    N30   1.383732 A    
N8    Ni8   1.886463 S    
C84   H44   1.086910 S    
N4    Ni4   1.840765 S    
C97   H69   1.110768 S    
C87   H47   1.087250 S    
C88   H48   1.085347 S    
N14   Ni5   1.845674 S    
N4    N32   1.383732 A    
C72   H40   1.086871 S    
C102  C103  1.524958 S    
C98   H71   1.116924 S    
C10   H10   1.081814 S    
C5    H5    1.071156 S    
C64   N36   1.457923 S    
C6    N6    1.322421 A    
C101  H77   1.111011 S    
C49   C50   1.548878 S    
C103  H83   1.110791 S    
C112  H104  1.110809 S    
C13   H13   1.076964 S    
C14   N14   1.330378 A    
N20   Ni8   1.839755 S    
C16   H16   1.075634 S    
C93   H58   1.109597 S    
C105  H87   1.109416 S    
C99   H72   1.109168 S    
C108  H93   1.111630 S    
C94   H61   1.110340 S    
N9    Ni2   1.837150 S    
C32   N32   1.321081 A    
N30   Ni1   1.908492 S    
C77   N41   1.446153 S    
C29   H25   1.079246 S    
N11   Ni4   1.837150 S    
C9    N9    1.336262 A    
C31   H27   1.081441 S    
N39   O17   1.300871 A    
C107  C108  1.530748 S    
C81   C82   1.457087 S    
N43   O25   1.301157 A    
C7    H7    1.079607 S    
C18   H18   1.080435 S    
C1    H1    1.081362 S    
C3    H3    1.080861 S    
C17   C41   1.375360 A    
C111  H100  1.111427 S    
C67   C73   1.472746 S    
C19   C43   1.376312 A    
N11   N19   1.380211 A    
O32   C110  1.415358 S    
C92   H56   1.111424 S    
C80   N44   1.446228 S    
C89   C90   1.530290 S    
C82   C86   1.335294 D    
C38   C78   1.456717 S    
N42   O24   1.299904 A    
O31   C107  1.417180 S    
C83   H43   1.084416 S    
C68   C72   1.347245 D    
C56   H32   1.110750 S    
C29   N29   1.320554 A    
N5    N25   1.383730 A    
C75   N39   1.438709 S    
C104  H84   1.111113 S    
C49   C58   1.536438 S    
N1    Ni1   1.841681 S    
C56   C60   1.541930 S    
N3    Ni3   1.841681 S    
C94   H60   1.111024 S    
C18   N18   1.333964 A    
C28   N28   1.347590 A    
C65   O9    1.387066 S    
C111  C112  1.524988 S    
C91   H54   1.110612 S    
N1    N29   1.383730 A    
C65   C75   1.471087 S    
C30   H26   1.081415 S    
C26   O30   1.383138 S    
C25   C37   1.400216 A    
N44   O27   1.301431 A    
C50   H34   1.109179 S    
O11   C95   1.414841 S    
C82   H42   1.084386 S    
N28   Ni7   1.831551 S    
C84   C88   1.343526 D    
N40   O19   1.300836 A    
C73   N37   1.438433 S    
C43   C87   1.448682 S    
C41   C85   1.436439 S    
C95   H64   1.117010 S    
C18   C42   1.376248 A    
N41   O22   1.299735 A    
C11   H11   1.081818 S    
N36   O8    1.300481 A    
N25   Ni6   1.830400 S    
N42   O23   1.301323 A    
C20   C44   1.374976 A    
C89   H50   1.117095 S    
C66   O10   1.387082 S    
C51   C52   1.550917 S    
C30   N30   1.320016 A    
N35   O6    1.299851 A    
C100  H75   1.110626 S    
C9    C41   1.374902 A    
C11   C43   1.372895 A    
N38   O16   1.301534 A    
N2    Ni2   1.840765 S    
C96   H65   1.109537 S    
C73   C77   1.350253 D    
O9    C89   1.415035 S    
C16   C48   1.371808 A    
O30   C104  1.417096 S    
C12   N12   1.336391 A    
C103  H82   1.110516 S    
N33   O1    1.300480 A    
C26   N26   1.349264 A    
C104  C105  1.530790 S    
C69   H37   1.086818 S    
C45   C58   1.436691 S    
C108  H94   1.109433 S    
C112  H102  1.110497 S    
C6    H6    1.079572 S    
C83   C84   1.456734 S    
C4    H4    1.081248 S    
C62   N34   1.458461 S    
C15   C47   1.378152 A    
C47   C60   1.433437 S    
C106  H89   1.110531 S    
C107  H92   1.118083 S    
C14   H14   1.072227 S    
C96   H66   1.108862 S    
C109  H95   1.109031 S    
N43   O26   1.299947 A    
C85   H45   1.085356 S    
C32   C36   1.360212 A    
C49   C53   1.545702 S    
N21   Ni1   1.890960 S    
N8    N28   1.383730 A    
O10   C92   1.414823 S    
C90   H52   1.108623 S    
N23   Ni3   1.890960 S    
C93   C94   1.526966 S    
C20   N20   1.333577 A    
C68   O12   1.387380 S    
C110  H98   1.111045 S    
C7    N7    1.323319 A    
C8    N8    1.323545 A    
N27   Ni8   1.830400 S    
C2    H2    1.080917 S    
C78   N42   1.446975 S    
C10   N10   1.336708 A    
C23   H23   1.077869 S    
C110  C111  1.529960 S    
C102  H80   1.108622 S    
C67   O11   1.386933 S    
C55   C64   1.537106 S    
C27   O31   1.382673 S    
C37   C77   1.459075 S    
C53   C62   1.530832 S    
C54   H30   1.110446 S    
C83   C87   1.334991 D    
C44   C88   1.436274 S    
C29   C33   1.359931 A    
C40   C80   1.458144 S    
N6    Ni6   1.886463 S    
C31   C35   1.362368 A    
N37   O14   1.301510 A    
C50   C57   1.539383 S    
N16   Ni7   1.845674 S    
C93   H59   1.108797 S    
C99   H73   1.108502 S    
C92   C93   1.530070 S    
C101  C102  1.530773 S    
C19   N19   1.334099 A    
C23   C47   1.368271 A    
C2    N2    1.344104 A    
C63   N35   1.459553 S    
N18   Ni6   1.839755 S    
C21   N21   1.319372 A    
N9    N17   1.380211 A    
C52   H36   1.110170 S    
C35   C72   1.430969 S    
C7    C39   1.365497 A    
N12   N20   1.380289 A    
C58   C62   1.525298 S    
C99   C100  1.526678 S    
C61   C62   1.521266 S    
C53   C57   1.541463 S    
C111  H101  1.108419 S    
C97   H67   1.111021 S    
C24   N24   1.321628 A    
O12   C98   1.415033 S    
N7    Ni7   1.889771 S    
C20   H20   1.077637 S    
C61   N33   1.458408 S    
N19   Ni7   1.840709 S    
C74   N38   1.438754 S    
N10   Ni1   1.838157 S    
N7    N27   1.383730 A    
C52   C56   1.548656 S    
