data_mof_unit_1682.cif
_audit_creation_date              2012-12-10T17:18:54-0500
_audit_creation_method            fapswitch 2.2
_symmetry_space_group_name_H-M    P1
_symmetry_Int_Tables_number       1
_space_group_crystal_system       triclinic
_cell_length_a                    10.196304
_cell_length_b                    10.477395
_cell_length_c                    13.660837
_cell_angle_alpha                 92.479489
_cell_angle_beta                  100.82425
_cell_angle_gamma                 94.486204
_cell_volume                      1426.53447349

loop_
_atom_site_label
_atom_site_type_symbol
_atom_type_description
_atom_site_fract_x
_atom_site_fract_y
_atom_site_fract_z
_atom_type_partial_charge
C1    C     C_R   0.047155 0.733405 0.486034 0.933508
C2    C     C_2   0.965165 0.061567 0.408257 0.209211
C3    C     C_2   0.430653 0.512122 0.508626 -0.134517
C4    C     C_2   0.569323 0.488332 0.490900 -0.143105
C5    C     C_R   0.093562 0.510797 0.685924 0.882815
C6    C     C_R   0.904956 0.483717 0.314160 0.838337
C7    C     C_R   0.138942 0.500515 0.792802 -0.068233
C8    C     C_R   0.847339 0.450921 0.209321 -0.059717
C9    C     C_R   0.109663 0.525079 0.963923 -0.213286
C10   C     C_R   0.850036 0.342205 0.049915 -0.203303
C11   C     C_R   0.060925 0.534485 0.862419 -0.198659
C12   C     C_R   0.945624 0.265182 0.498410 0.931660
C13   C     C_R   0.916893 0.387806 0.145196 -0.224925
C14   C     C_R   0.261670 0.451111 0.824506 -0.269348
C15   C     C_R   0.712302 0.467677 0.177979 -0.263231
C16   C     C_R   0.311600 0.438723 0.925516 0.095621
C17   C     C_R   0.641065 0.413316 0.086957 0.094992
C18   C     C_R   0.235981 0.480712 0.996114 0.174744
C19   C     C_R   0.712517 0.355493 0.020030 0.173611
C20   C     C_R   0.440619 0.397452 0.957996 0.066864
C21   C     C_R   0.501676 0.422054 0.059216 0.070148
C22   C     C_3   0.052357 0.124403 0.340863 -0.344421
C23   C     C_R   0.421857 0.455864 0.129087 -0.235031
C24   C     C_3   0.071081 0.038150 0.252106 -0.903675
C25   C     C_3   0.813885 0.849022 0.369087 -0.338924
C26   C     C_3   0.717821 0.922367 0.296850 -0.899146
C27   C     C_R   0.512253 0.336341 0.892628 -0.233772
C28   C     C_R   0.289774 0.482352 0.097691 -0.248625
C29   C     C_R   0.645704 0.313316 0.924238 -0.239386
C30   C     C_2   0.058575 0.865823 0.457939 -0.463664
C31   C     C_2   0.910680 0.128197 0.475932 -0.463949
C32   C     C_2   0.950562 0.921891 0.410071 0.199341
H1    H     H_    0.232263 0.510891 0.152851 0.150788
H2    H     H_    0.466259 0.302564 0.817312 0.149285
H3    H     H_    0.843776 0.079080 0.518199 0.144854
H4    H     H_    0.155282 0.920961 0.480473 0.145660
H5    H     H_    0.578771 0.413501 0.435840 0.164139
H6    H     H_    0.421207 0.587247 0.563435 0.165569
H7    H     H_    0.664512 0.624057 0.590673 0.158433
H8    H     H_    0.335422 0.375868 0.409348 0.152230
H9    H     H_    0.132402 0.093253 0.206491 0.248941
H10   H     H_    0.124386 0.953703 0.277809 0.266156
H11   H     H_    0.973134 0.005678 0.203911 0.265220
H12   H     H_    0.697906 0.266693 0.872437 0.149124
H13   H     H_    0.005525 0.209848 0.309844 0.214283
H14   H     H_    0.153421 0.155261 0.385566 0.212108
H15   H     H_    0.691686 0.009932 0.334901 0.264066
H16   H     H_    0.762272 0.948999 0.231760 0.265709
H17   H     H_    0.623723 0.860201 0.268947 0.250779
H18   H     H_    0.829037 0.759124 0.328106 0.208967
H19   H     H_    0.763404 0.824521 0.431979 0.220507
H20   H     H_    0.663609 0.524644 0.225855 0.158130
H21   H     H_    0.320590 0.428622 0.769338 0.161692
H22   H     H_    0.021474 0.372094 0.169027 0.156954
H23   H     H_    0.964221 0.570950 0.838678 0.161053
H24   H     H_    0.050754 0.556387 0.017255 0.153494
H25   H     H_    0.905240 0.295765 0.000114 0.148079
H26   H     H_    0.459034 0.460622 0.208714 0.145352
N1    N     N_2   0.322180 0.446120 0.460900 -0.193199
N2    N     N_2   0.677820 0.553880 0.539100 -0.192330
O1    O     O_R   0.935190 0.693030 0.507870 -0.610552
O2    O     O_R   0.064810 0.306970 0.492130 -0.610375
O3    O     O_R   0.142080 0.658430 0.482770 -0.591680
O4    O     O_R   0.857920 0.341570 0.517230 -0.591478
O5    O     O_R   0.969700 0.527180 0.651960 -0.604508
O6    O     O_R   0.030300 0.472820 0.348040 -0.620672
O7    O     O_R   0.176600 0.492580 0.626860 -0.607690
O8    O     O_R   0.823400 0.507420 0.373140 -0.619053
Zn1   Zn    Zn3+2 0.861850 0.523100 0.516760 0.920557
Zn2   Zn    Zn3+2 0.138150 0.476900 0.483240 0.917472

loop_
_geom_bond_atom_site_label_1
_geom_bond_atom_site_label_2
_ccdc_geom_bond_type
C2    C22   S    
C23   H26   S    
C7    C11   A    
C25   H19   S    
C8    C13   A    
C25   H18   S    
C20   C27   A    
C26   H16   S    
C27   C29   A    
C24   H10   S    
C2    C31   D    
O3    Zn2   S    
C30   H4    S    
C10   C19   A    
C16   C20   A    
O7    Zn2   S    
C4    N2    D    
C25   C32   S    
C6    O8    A    
C18   C28   A    
C29   H12   S    
C9    H24   S    
O4    Zn1   S    
C4    H5    S    
C30   C32   D    
C24   H9    S    
C9    C11   A    
C27   H2    S    
O6    Zn2   S    
N2    Zn1   S    
O5    Zn1   S    
H7    N2    S    
C1    O3    A    
C31   H3    S    
C2    C32   S    
C1    C30   S    
C22   H14   S    
C28   H1    S    
C8    C15   A    
C22   C24   S    
C10   H25   S    
C21   C23   A    
C12   C31   S    
C12   O4    A    
C14   C16   A    
C5    O5    A    
C23   C28   A    
C12   O2    A    
N1    Zn2   S    
C3    C4    S    
C19   C29   A    
C9    C18   A    
C6    O6    A    
C14   H21   S    
C11   H23   S    
C20   C21   A    
O2    Zn2   S    
C16   C18   A    
C13   H22   S    
C26   H17   S    
O1    Zn1   S    
C15   C17   A    
C24   H11   S    
C26   H15   S    
C5    C7    S    
C17   C19   A    
C6    C8    S    
C22   H13   S    
H8    N1    S    
C25   C26   S    
C15   H20   S    
C5    O7    A    
C7    C14   A    
C17   C21   A    
C3    H6    S    
C3    N1    D    
O8    Zn1   S    
C10   C13   A    
C1    O1    A    
