data_mof_unit_1959.cif
_audit_creation_date              2013-03-05T16:13:33-0500
_audit_creation_method            fapswitch 2.2
_symmetry_space_group_name_H-M    P1
_symmetry_Int_Tables_number       1
_space_group_crystal_system       triclinic
_cell_length_a                    10.685362
_cell_length_b                    9.840565
_cell_length_c                    10.65781
_cell_angle_alpha                 90.610822
_cell_angle_beta                  90.698921
_cell_angle_gamma                 89.793486
_cell_volume                      1120.51489251

loop_
_atom_site_label
_atom_site_type_symbol
_atom_site_description
_atom_site_fract_x
_atom_site_fract_y
_atom_site_fract_z
_atom_type_partial_charge
O1    O     O_R   0.316770 0.614620 0.499990 -0.603739
O2    O     O_R   0.683230 0.614620 0.500010 -0.585584
O3    O     O_R   0.316800 0.385290 0.500000 -0.595067
O4    O     O_R   0.683200 0.385290 0.500000 -0.589768
C1    C     C_R   0.260090 0.500435 0.503625 0.907129
C2    C     C_R   0.739898 0.499984 0.502736 0.941243
O5    O     O_R   0.500000 0.614690 0.316780 -0.650378
O6    O     O_R   0.500000 0.614690 0.683220 -0.593438
O7    O     O_R   0.500020 0.385360 0.316780 -0.556101
O8    O     O_R   0.499980 0.385360 0.683220 -0.568306
C3    C     C_R   0.497285 0.498658 0.260109 0.948601
C4    C     C_R   0.506002 0.500590 0.739442 0.951355
Zn1   Zn    Zn3+2 0.500000 0.653120 0.500000 0.972908
Zn2   Zn    Zn3+2 0.500000 0.346880 0.500000 1.041299
C5    C     C_R   0.402269 0.556183 0.059628 -0.101160
C6    C     C_R   0.412656 0.564708 0.933336 -0.098505
C7    C     C_R   0.496213 0.491195 0.127875 -0.265424
C8    C     C_R   0.509005 0.499827 0.871143 -0.220727
C9    C     C_R   0.582118 0.404601 0.066472 0.399631
C10   C     C_R   0.592787 0.413977 0.935475 0.387701
C11   C     C_3   0.362823 0.706537 0.928680 0.373325
C12   C     C_3   0.341277 0.693764 0.069758 0.289857
H1    H     H_    0.276897 0.713124 0.868323 0.141064
H2    H     H_    0.392364 0.769685 0.129114 0.106973
C13   C     C_R   0.063673 0.392384 0.454439 -0.288242
C14   C     C_R   0.935860 0.392117 0.454155 -0.272964
H3    H     H_    0.112475 0.308764 0.409304 0.218105
H4    H     H_    0.886752 0.308815 0.408184 0.196315
C15   C     C_R   0.872212 0.500434 0.509623 -0.196451
C16   C     C_R   0.127622 0.501711 0.508958 -0.210969
C17   C     C_R   0.935349 0.608653 0.569846 0.417696
C18   C     C_R   0.064908 0.611969 0.565470 0.422761
C19   C     C_R   0.582755 0.073023 0.574549 0.470088
C20   C     C_R   0.419395 0.073246 0.422020 0.507972
C21   C     C_R   0.579845 0.928202 0.576391 -0.182298
C22   C     C_R   0.420728 0.927263 0.422962 -0.263827
H5    H     H_    0.640823 0.872466 0.639138 0.197494
H6    H     H_    0.358792 0.868673 0.363848 0.146962
N1    N     N_R   0.500000 0.857200 0.500000 -0.108482
N2    N     N_R   0.500000 0.142810 0.500000 -0.157397
O9    O     O_3   0.662632 0.322871 0.135359 -0.612985
C23   C     C_3   0.622069 0.186880 0.123881 -0.257369
H7    H     H_    0.637346 0.146129 0.027601 0.190283
H8    H     H_    0.521923 0.175905 0.149328 0.180563
H9    H     H_    0.677910 0.123830 0.189774 0.172664
O10   O     O_3   0.681483 0.340445 0.868459 -0.573268
C24   C     C_3   0.804167 0.370958 0.911149 -0.250496
H10   H     H_    0.813272 0.473072 0.956746 0.138333
H11   H     H_    0.867337 0.369503 0.829342 0.154655
H12   H     H_    0.837727 0.291262 0.976402 0.207605
O11   O     O_3   0.459111 0.799578 0.901657 -0.609235
C25   C     C_3   0.405787 0.927387 0.875192 -0.328351
H13   H     H_    0.346373 0.964528 0.953575 0.146532
H14   H     H_    0.350742 0.923360 0.785972 0.181331
H15   H     H_    0.482363 0.001796 0.863129 0.208128
O12   O     O_3   0.210968 0.686699 0.091450 -0.629420
C26   C     C_3   0.188279 0.642033 0.214049 -0.290522
H16   H     H_    0.237609 0.705726 0.284701 0.156757
H17   H     H_    0.214805 0.533420 0.224671 0.171788
H18   H     H_    0.086576 0.650763 0.232345 0.188483
O13   O     O_3   0.871458 0.714707 0.626958 -0.618072
C27   C     C_3   0.846263 0.679160 0.751755 -0.296126
H19   H     H_    0.775005 0.597499 0.754343 0.166765
H20   H     H_    0.806623 0.769122 0.800871 0.191351
H21   H     H_    0.932747 0.648549 0.803784 0.176298
O14   O     O_3   0.130941 0.713729 0.628093 -0.604111
C28   C     C_3   0.121046 0.836091 0.560451 -0.220792
H22   H     H_    0.132113 0.820466 0.457556 0.120547
H23   H     H_    0.197069 0.905016 0.592651 0.167324
H24   H     H_    0.031075 0.888468 0.579712 0.189300
O15   O     O_3   0.662992 0.146565 0.652233 -0.537231
C29   C     C_3   0.787831 0.102459 0.636616 -0.245982
H25   H     H_    0.851299 0.184243 0.670354 0.191636
H26   H     H_    0.810934 0.082109 0.536398 0.130793
H27   H     H_    0.807426 0.011506 0.694475 0.165754
O16   O     O_3   0.338573 0.151366 0.348088 -0.576568
C30   C     C_3   0.273130 0.077097 0.254542 -0.400637
H28   H     H_    0.222543 0.150091 0.193461 0.199865
H29   H     H_    0.201612 0.010589 0.297047 0.167545
H30   H     H_    0.338121 0.018406 0.193635 0.157215

loop_
_geom_bond_atom_site_label_1
_geom_bond_atom_site_label_2
_geom_bond_distance
_ccdc_geom_bond_type
C6    C11   1.493111 S    
O9    C23   1.411760 S    
C17   O13   1.384635 S    
C9    C10   1.406209 A    
C24   H11   1.109059 S    
C30   H28   1.109281 S    
O5    C3    1.286275 A    
O6    Zn1   1.992960 S    
O1    C1    1.279569 A    
C21   H5    1.080377 S    
C26   H17   1.111363 S    
C5    C6    1.355432 A    
O12   C26   1.407127 S    
O2    Zn1   1.992856 S    
C27   H20   1.109035 S    
C7    C9    1.412132 A    
C5    C12   1.503861 S    
C17   C18   1.386246 A    
C8    C10   1.406126 A    
C25   H15   1.109540 S    
O14   C28   1.412975 S    
C11   C12   1.530440 S    
O2    C2    1.278833 A    
C23   H8    1.113038 S    
C29   H27   1.110153 S    
C25   H14   1.112405 S    
C24   H12   1.109423 S    
C30   H29   1.111725 S    
C19   N2    1.369285 A    
C28   H22   1.113399 S    
O16   C30   1.410063 S    
O4    C2    1.282790 A    
O8    Zn2   1.985135 S    
C26   H18   1.109286 S    
C12   O12   1.416325 S    
C13   C14   1.365707 A    
O11   C25   1.408740 S    
C28   H23   1.109012 S    
C23   H9    1.109314 S    
C21   N1    1.361677 A    
O7    Zn2   1.993062 S    
C27   H19   1.109809 S    
C24   H10   1.115574 S    
O6    C4    1.279352 A    
O7    C3    1.273725 A    
O3    Zn2   1.992377 S    
O8    C4    1.278313 A    
C29   H26   1.115085 S    
C11   H1    1.116712 S    
C12   H2    1.113902 S    
O1    Zn1   1.995538 S    
C23   H7    1.111421 S    
C11   O11   1.414018 S    
C25   H13   1.113221 S    
C18   O14   1.387598 S    
C1    C16   1.417311 S    
C30   H30   1.112351 S    
C13   C16   1.394364 A    
C5    C7    1.390386 A    
O10   C24   1.414592 S    
C3    C7    1.410374 S    
C27   H21   1.114123 S    
C22   N1    1.363042 A    
C29   H25   1.108480 S    
O3    C1    1.283461 A    
C13   H3    1.083989 S    
C14   H4    1.084268 S    
C28   H24   1.109521 S    
C22   H6    1.073388 S    
O15   C29   1.412522 S    
C15   C17   1.407564 A    
C16   C18   1.407028 A    
C26   H16   1.104686 S    
C19   C21   1.425917 A    
C20   C22   1.436711 A    
O4    Zn2   1.995052 S    
O13   C27   1.408280 S    
Zn1   N1    2.008263 S    
C19   O15   1.385163 S    
Zn2   N2    2.008165 S    
O5    Zn1   1.985044 S    
C2    C15   1.414847 S    
C14   C15   1.392593 A    
C6    C8    1.381958 A    
C4    C8    1.403721 S    
C20   N2    1.369603 A    
C10   O10   1.390152 S    
C9    O9    1.384991 S    
C20   O16   1.396139 S    
