data_mof_unit_4677.cif
_audit_creation_date              2012-10-26T20:35:45-0400
_audit_creation_method            fapswitch 2.2
_symmetry_space_group_name_H-M    P1
_symmetry_Int_Tables_number       1
_space_group_crystal_system       triclinic
_cell_length_a                    8.790108
_cell_length_b                    15.866633
_cell_length_c                    17.021189
_cell_angle_alpha                 93.687874
_cell_angle_beta                  92.337075
_cell_angle_gamma                 84.375916
_cell_volume                      2356.19481696

loop_
_atom_site_label
_atom_site_type_symbol
_atom_type_description
_atom_site_fract_x
_atom_site_fract_y
_atom_site_fract_z
_atom_type_partial_charge
C1    C     C_R   0.497646 0.491573 0.348665 0.539146
C2    C     C_R   0.403568 0.162927 0.415282 -0.029345
C3    C     C_R   0.631922 0.745233 0.554713 0.023862
C4    C     C_R   0.403834 0.252896 0.427833 0.025764
C5    C     C_R   0.206458 0.521213 0.501676 0.561208
C6    C     C_R   0.793659 0.478575 0.497377 0.558754
C7    C     C_2   0.044964 0.530222 0.514367 -0.017306
C8    C     C_2   0.955714 0.468795 0.484682 -0.020853
C9    C     C_R   0.486090 0.491843 0.262652 -0.011484
C10   C     C_R   0.506850 0.509105 0.737206 -0.008795
C11   C     C_R   0.518404 0.564031 0.225313 -0.143845
C12   C     C_R   0.501144 0.508569 0.651254 0.541237
C13   C     C_R   0.448330 0.443649 0.774525 -0.142727
C14   C     C_R   0.498353 0.567839 0.143742 0.028516
C15   C     C_R   0.462010 0.439677 0.856292 0.030395
C16   C     C_R   0.448036 0.496949 0.099071 0.238464
C17   C     C_R   0.531443 0.504782 0.901334 0.236304
C18   C     C_R   0.414304 0.425524 0.136508 -0.122990
C19   C     C_R   0.590022 0.569730 0.863655 -0.124730
C20   C     C_R   0.434212 0.422527 0.217770 -0.162968
C21   C     C_R   0.576978 0.572431 0.782156 -0.163495
C22   C     C_3   0.989306 0.604620 0.569491 -0.401714
C23   C     C_R   0.418884 0.764647 0.465411 0.119857
C24   C     C_3   0.012453 0.394036 0.429496 -0.394451
C25   C     C_3   0.407948 0.364588 0.893338 -0.379405
C26   C     C_3   0.526027 0.648048 0.105927 -0.379320
C27   C     C_3   0.627401 0.265604 0.623820 -0.205499
C28   C     C_3   0.785099 0.299734 0.621258 -0.258588
C29   C     C_3   0.893217 0.269818 0.688599 -0.481309
C30   C     C_3   0.258503 0.746095 0.435602 -0.204814
C31   C     C_3   0.251999 0.696353 0.355173 -0.268387
C32   C     C_3   0.102632 0.719495 0.309000 -0.476804
C33   C     C_3   0.771327 0.874366 0.609254 -0.259041
C34   C     C_R   0.560511 0.236375 0.543772 0.117663
C35   C     C_3   0.852211 0.817933 0.671290 -0.323229
C36   C     C_3   0.957975 0.867535 0.726005 -0.450320
C37   C     C_3   0.312285 0.121912 0.347909 -0.257779
C38   C     C_3   0.216703 0.183490 0.294966 -0.320730
C39   C     C_3   0.127326 0.135530 0.230815 -0.449727
C40   C     C_R   0.448987 0.849029 0.457618 -0.121591
C41   C     C_R   0.570476 0.147788 0.529956 -0.117935
C42   C     C_R   0.562572 0.885816 0.503446 0.186842
C43   C     C_R   0.491298 0.109237 0.467134 0.188168
C44   C     C_R   0.653987 0.833407 0.554979 -0.029972
Cu1   Cu    Cu3+1 0.492520 0.415770 0.496210 0.908287
Cu2   Cu    Cu3+1 0.507480 0.584230 0.503790 0.911456
H1    H     H_    0.391474 0.395583 0.739890 0.112884
H2    H     H_    0.341358 0.294690 0.387795 0.125704
H3    H     H_    0.085471 0.632081 0.603230 0.130213
H4    H     H_    0.930442 0.655189 0.534151 0.137153
H5    H     H_    0.913523 0.584726 0.614132 0.126868
H6    H     H_    0.916483 0.363692 0.398402 0.136327
H7    H     H_    0.082541 0.415287 0.382998 0.124821
H8    H     H_    0.079376 0.344620 0.463316 0.146554
H9    H     H_    0.499586 0.336092 0.933029 0.145395
H10   H     H_    0.303940 0.384615 0.927180 0.154114
H11   H     H_    0.378494 0.314491 0.848213 0.098721
H12   H     H_    0.558590 0.617748 0.259798 0.124913
H13   H     H_    0.424330 0.669659 0.069026 0.145125
H14   H     H_    0.547173 0.700083 0.150683 0.101723
H15   H     H_    0.627737 0.636682 0.068808 0.152957
H16   H     H_    0.842097 0.289876 0.746277 0.154965
H17   H     H_    0.916671 0.199623 0.683718 0.149276
H18   H     H_    0.003286 0.298234 0.685750 0.144740
H19   H     H_    0.840287 0.278986 0.564694 0.176256
H20   H     H_    0.771220 0.369926 0.627828 0.192981
H21   H     H_    0.544262 0.308047 0.657222 0.156221
H22   H     H_    0.639727 0.211245 0.662569 0.094016
H23   H     H_    0.373849 0.371711 0.102284 0.109306
H24   H     H_    0.003234 0.707770 0.343708 0.157330
H25   H     H_    0.093367 0.787280 0.295029 0.149427
H26   H     H_    0.100185 0.679862 0.252829 0.148351
H27   H     H_    0.348880 0.709353 0.319292 0.158280
H28   H     H_    0.256770 0.627729 0.363488 0.202248
H29   H     H_    0.193944 0.720218 0.481052 0.164363
H30   H     H_    0.187421 0.807514 0.429248 0.097211
H31   H     H_    0.046514 0.892727 0.691704 0.154662
H32   H     H_    0.891397 0.921068 0.758251 0.147941
H33   H     H_    0.015966 0.824967 0.769613 0.145428
H34   H     H_    0.645325 0.618745 0.897894 0.110237
H35   H     H_    0.766159 0.792731 0.707300 0.156720
H36   H     H_    0.922498 0.764369 0.641689 0.150764
H37   H     H_    0.858824 0.896914 0.572336 0.152895
H38   H     H_    0.711936 0.930865 0.641038 0.161915
H39   H     H_    0.206886 0.093777 0.192966 0.149079
H40   H     H_    0.047391 0.096404 0.257553 0.153609
H41   H     H_    0.059838 0.181525 0.193447 0.144632
H42   H     H_    0.133844 0.225387 0.330929 0.154383
H43   H     H_    0.293171 0.223056 0.266155 0.150818
H44   H     H_    0.393393 0.080298 0.310666 0.157740
H45   H     H_    0.406613 0.366671 0.245525 0.117837
H46   H     H_    0.233729 0.080978 0.373508 0.158625
H47   H     H_    0.624335 0.623002 0.754213 0.119795
H48   H     H_    0.635877 0.108243 0.571330 0.121969
H49   H     H_    0.373768 0.888417 0.419994 0.122922
H50   H     H_    0.702052 0.703957 0.592229 0.121826
N1    N     N_2   0.428155 0.496273 0.016549 -0.257204
N2    N     N_2   0.549258 0.505504 0.984118 -0.254097
N3    N     N_R   0.518730 0.710760 0.509500 -0.223614
N4    N     N_R   0.481270 0.289240 0.490500 -0.225631
N5    N     N_2   0.575451 0.976147 0.505719 -0.260692
N6    N     N_2   0.487511 0.018090 0.459097 -0.259846
O1    O     O_R   0.493000 0.421040 0.382520 -0.509478
O2    O     O_R   0.507000 0.578960 0.617480 -0.502963
O3    O     O_R   0.505640 0.563310 0.388930 -0.510960
O4    O     O_R   0.494360 0.436690 0.611070 -0.519020
O5    O     O_R   0.269980 0.445280 0.497530 -0.504620
O6    O     O_R   0.730020 0.554720 0.502470 -0.504866
O7    O     O_R   0.282610 0.587550 0.503940 -0.517511
O8    O     O_R   0.717390 0.412450 0.496060 -0.508513

loop_
_geom_bond_atom_site_label_1
_geom_bond_atom_site_label_2
_ccdc_geom_bond_type
C24   H6    S    
C23   N3    A    
Cu2   N3    S    
C29   H17   S    
N5    N6    D    
C8    C24   S    
C41   C43   A    
C2    C4    A    
C35   C36   S    
C25   H10   S    
C39   H41   S    
N1    N2    D    
C35   H35   S    
C7    C8    D    
C32   H26   S    
Cu1   Cu2   S    
C38   H43   S    
C25   H11   S    
C37   H44   S    
C28   C29   S    
C19   C21   A    
C26   H15   S    
C12   O2    A    
C36   H31   S    
C4    H2    S    
C30   C31   S    
C11   C14   A    
C16   N1    S    
C31   H27   S    
C24   H8    S    
C23   C40   A    
Cu2   O3    S    
C30   H30   S    
C17   N2    S    
C27   H22   S    
Cu1   O1    S    
C33   C35   S    
C31   C32   S    
Cu2   O6    S    
C34   N4    A    
C10   C13   A    
C3    H50   S    
C11   H12   S    
C26   H13   S    
C1    O1    A    
C22   H4    S    
C18   H23   S    
C40   C42   A    
C29   H18   S    
C10   C21   A    
C6    O8    A    
C34   C41   A    
C42   C44   A    
C35   H36   S    
C32   H25   S    
C27   C34   S    
C20   H45   S    
C3    C44   A    
C23   C30   S    
C1    C9    S    
C13   H1    S    
Cu1   O8    S    
C31   H28   S    
C6    C8    S    
C24   H7    S    
Cu2   O2    S    
Cu1   N4    S    
C38   H42   S    
C28   H20   S    
C37   C38   S    
C9    C11   A    
C9    C20   A    
C41   H48   S    
C2    C43   A    
C14   C26   S    
C33   H37   S    
C10   C12   S    
C22   H3    S    
C13   C15   A    
C14   C16   A    
C39   H39   S    
C40   H49   S    
C42   N5    S    
Cu1   O4    S    
C5    C7    S    
C5    O5    A    
C15   C17   A    
C29   H16   S    
C37   H46   S    
C33   C44   S    
C25   H9    S    
C36   H33   S    
C32   H24   S    
C7    C22   S    
C4    N4    A    
C28   H19   S    
C43   N6    S    
C36   H32   S    
C12   O4    A    
C30   H29   S    
C2    C37   S    
C38   C39   S    
C21   H47   S    
C17   C19   A    
C18   C20   A    
C19   H34   S    
C33   H38   S    
C27   H21   S    
C3    N3    A    
C15   C25   S    
C16   C18   A    
Cu2   O7    S    
C27   C28   S    
C6    O6    A    
C5    O7    A    
C39   H40   S    
C26   H14   S    
Cu1   O5    S    
C1    O3    A    
C22   H5    S    
