data_mof_unit_917.cif
_audit_creation_date              2012-12-11T14:06:40-0500
_audit_creation_method            fapswitch 2.2
_symmetry_space_group_name_H-M    P1
_symmetry_Int_Tables_number       1
_space_group_crystal_system       triclinic
_cell_length_a                    6.933659
_cell_length_b                    17.390856
_cell_length_c                    24.084308
_cell_angle_alpha                 104.252671
_cell_angle_beta                  90.204395
_cell_angle_gamma                 89.824555
_cell_volume                      2814.72427259

loop_
_atom_site_label
_atom_site_type_symbol
_atom_type_description
_atom_site_fract_x
_atom_site_fract_y
_atom_site_fract_z
_atom_type_partial_charge
O1    O     O_R   0.494290 0.391990 0.999150 -0.538259
O2    O     O_R   0.827170 0.534410 0.082350 -0.544727
O3    O     O_R   0.994360 0.608010 0.000850 -0.551749
C1    C     C_R   0.658086 0.548374 0.106204 0.753133
O4    O     O_R   0.824210 0.388010 0.004470 -0.527504
O5    O     O_R   0.991370 0.460560 0.922410 -0.532555
C2    C     C_R   0.654210 0.355210 0.002226 0.723684
O6    O     O_R   0.497270 0.539440 0.077590 -0.535767
O7    O     O_3   0.659770 0.523970 0.973170 -0.380245
V1    V     V_3+5 0.935840 0.495550 0.004980 1.497735
O8    O     O_R   0.320910 0.465590 0.917650 -0.540861
C3    C     C_R   0.152167 0.447133 0.894279 0.766047
O9    O     O_R   0.323870 0.611990 0.995530 -0.553789
C4    C     C_R   0.154724 0.644776 0.997601 0.644664
V2    V     V_3+5 0.435470 0.504450 0.995020 1.490255
O10   O     O_3   0.161670 0.476030 0.026830 -0.362687
C5    C     C_2   0.146440 0.729461 0.994988 0.185152
C6    C     C_2   0.976629 0.770062 0.002254 -0.350454
H1    H     H_    0.844365 0.740464 0.009208 0.105277
C7    C     C_R   0.150689 0.239650 0.624911 0.676764
N1    N     N_R   0.125282 0.319318 0.648473 -0.531856
C8    C     C_R   0.085320 0.369927 0.614296 0.687626
C9    C     C_R   0.077025 0.341454 0.554245 -0.011593
C10   C     C_R   0.093508 0.259498 0.529743 -0.010044
C11   C     C_R   0.126320 0.207917 0.565559 -0.108166
C12   C     C_R   0.048025 0.393129 0.518651 -0.121212
C13   C     C_R   0.034899 0.364896 0.459008 -0.065479
C14   C     C_R   0.054539 0.282011 0.433565 -0.050036
C15   C     C_R   0.075909 0.229126 0.469602 -0.037535
C16   C     C_R   0.078282 0.145937 0.445761 -0.137566
C17   C     C_R   0.110254 0.094408 0.482731 0.403125
C18   C     C_R   0.133335 0.125956 0.541591 -0.077620
C19   C     C_R   0.057481 0.249499 0.373556 0.626562
N2    N     N_R   0.040030 0.169401 0.351404 -0.542034
C20   C     C_R   0.042416 0.117972 0.386258 0.621381
O11   O     O_2   0.197027 0.191143 0.658892 -0.505641
O12   O     O_2   0.054903 0.447662 0.638337 -0.519240
H2    H     H_    0.030736 0.456161 0.537456 0.194066
O13   O     O_2   0.080114 0.296767 0.337330 -0.510420
O14   O     O_2   0.008801 0.040472 0.362991 -0.478995
H3    H     H_    0.158044 0.085348 0.568577 0.202265
C21   C     C_R   0.165375 0.094339 0.256672 0.431736
C22   C     C_R   0.142532 0.067168 0.197529 -0.182026
H4    H     H_    0.257916 0.032195 0.173351 0.180531
C23   C     C_R   0.976311 0.083859 0.169236 -0.241478
C24   C     C_R   0.827755 0.130335 0.201909 0.307431
C25   C     C_R   0.844734 0.155695 0.262369 -0.052591
C26   C     C_R   0.015781 0.138820 0.290017 0.138343
C27   C     C_R   0.285452 0.400743 0.736434 -0.007536
C28   C     C_R   0.285408 0.431242 0.796134 -0.203282
H5    H     H_    0.399508 0.471121 0.816031 0.183634
C29   C     C_R   0.142368 0.411450 0.831133 -0.148175
C30   C     C_R   0.994103 0.358092 0.805540 -0.107749
C31   C     C_R   0.987426 0.328391 0.745063 -0.066936
C32   C     C_R   0.132927 0.349960 0.710251 0.239770
C33   C     C_R   0.503906 0.884071 0.611756 0.624528
N3    N     N_R   0.514903 0.834712 0.648059 -0.540211
C34   C     C_R   0.541639 0.754799 0.627087 0.647846
C35   C     C_R   0.548454 0.720900 0.567190 -0.189496
C36   C     C_R   0.556505 0.772216 0.529821 -0.080032
C37   C     C_R   0.542910 0.855119 0.552528 -0.089157
C38   C     C_R   0.551826 0.637619 0.543644 0.382330
C39   C     C_R   0.573457 0.606472 0.484607 0.372664
C40   C     C_R   0.592397 0.657614 0.447160 -0.209601
C41   C     C_R   0.578732 0.740679 0.469870 -0.055532
C42   C     C_R   0.588613 0.792121 0.432598 -0.136269
C43   C     C_R   0.597337 0.875539 0.456401 -0.096758
C44   C     C_R   0.572647 0.906617 0.515841 0.351838
C45   C     C_R   0.626069 0.628514 0.387661 0.679864
N4    N     N_R   0.614256 0.677955 0.351486 -0.515388
C46   C     C_R   0.588109 0.757839 0.372580 0.711416
O15   O     O_2   0.453710 0.960657 0.633041 -0.497385
O16   O     O_2   0.566486 0.708901 0.664274 -0.499987
O17   O     O_2   0.672001 0.551655 0.365835 -0.482712
O18   O     O_2   0.554998 0.803247 0.335503 -0.490403
C47   C     C_R   0.781215 0.662460 0.258450 0.386728
C48   C     C_R   0.790347 0.629432 0.198872 -0.267566
H6    H     H_    0.908939 0.645184 0.174674 0.156270
C49   C     C_R   0.647296 0.577563 0.170050 -0.184550
C50   C     C_R   0.492613 0.557049 0.202242 -0.156376
C51   C     C_R   0.480183 0.591912 0.262254 0.299526
C52   C     C_R   0.624257 0.644730 0.289984 0.303834
C53   C     C_R   0.346006 0.847784 0.739812 -0.051465
H7    H     H_    0.235584 0.808154 0.717228 0.159132
C54   C     C_R   0.330676 0.877571 0.799015 -0.153244
H8    H     H_    0.210218 0.858913 0.821031 0.150886
C55   C     C_R   0.470890 0.928886 0.829911 -0.130571
C56   C     C_R   0.627063 0.952689 0.799616 -0.142368
C57   C     C_R   0.645784 0.920136 0.739504 -0.050737
C58   C     C_R   0.503008 0.867546 0.709558 0.295772
C59   C     C_2   0.641838 0.269052 0.000721 0.164193
C60   C     C_2   0.470169 0.230276 0.000123 -0.234225
O19   O     O_R   0.618210 0.960470 0.922400 -0.542546
O20   O     O_R   0.291310 0.111960 0.995450 -0.547643
O21   O     O_R   0.124210 0.039530 0.077580 -0.543009
C61   C     C_R   0.460704 0.144774 0.998349 0.778860
O22   O     O_R   0.288310 0.965490 0.917650 -0.540346
O23   O     O_R   0.121180 0.892010 0.999220 -0.503328
C62   C     C_R   0.457832 0.953463 0.893797 0.734892
O24   O     O_R   0.621230 0.107990 0.000760 -0.500635
O25   O     O_3   0.455770 0.976060 0.026840 -0.369522
V3    V     V_3+5 0.179680 0.004440 0.995020 1.548755
O26   O     O_R   0.791670 0.888040 0.004570 -0.553186
C63   C     C_R   0.961727 0.854926 0.001394 0.788180
O27   O     O_R   0.794680 0.034510 0.082370 -0.539529
C64   C     C_R   0.963476 0.051827 0.105866 0.719412
V4    V     V_3+5 0.680070 0.995560 0.005010 1.544027
O28   O     O_3   0.953840 0.023940 0.973160 -0.359049
O29   O     O_3   0.313129 0.767757 0.984823 -0.628776
H9    H     H_    0.422876 0.730199 0.977423 0.290857
C65   C     C_2   0.683987 0.201440 0.296426 0.924277
O30   O     O_2   0.651137 0.194868 0.344907 -0.573607
O31   O     O_R   0.569601 0.252150 0.273176 -0.600355
H10   H     H_    0.465888 0.279747 0.300551 0.336123
C66   C     C_2   0.449853 0.422385 0.703303 0.875187
O32   O     O_2   0.475816 0.387979 0.653170 -0.516189
O33   O     O_R   0.579088 0.481736 0.730119 -0.660467
H11   H     H_    0.685896 0.490336 0.703647 0.342617
C67   C     C_2   0.847672 0.331931 0.841746 0.854513
O34   O     O_2   0.898729 0.298694 0.878557 -0.501307
O35   O     O_R   0.651784 0.344301 0.833094 -0.665162
H12   H     H_    0.566240 0.323613 0.860228 0.302584
C68   C     C_2   0.832078 0.272205 0.717998 0.844858
O36   O     O_2   0.752892 0.279544 0.674178 -0.535942
O37   O     O_R   0.779543 0.209718 0.741886 -0.618092
H13   H     H_    0.673084 0.175708 0.719502 0.347650
O38   O     O_3   0.522271 0.584145 0.576544 -0.572097
H14   H     H_    0.407344 0.602382 0.600609 0.332900
O39   O     O_3   0.562795 0.525190 0.464880 -0.577083
H15   H     H_    0.469559 0.513757 0.432637 0.354649
C69   C     C_2   0.661776 0.931069 0.422011 0.980243
O40   O     O_2   0.798138 0.913176 0.389268 -0.479338
O41   O     O_R   0.573285 0.005185 0.429071 -0.642113
H16   H     H_    0.631148 0.037710 0.403701 0.326757
O42   O     O_3   0.595428 0.987287 0.537466 -0.594142
H17   H     H_    0.685169 0.995011 0.570518 0.328059
O43   O     O_3   0.924481 0.711844 0.287017 -0.593558
H18   H     H_    0.025550 0.717437 0.259251 0.319757
C70   C     C_2   0.350054 0.496786 0.173900 0.805587
O44   O     O_2   0.405678 0.431241 0.147600 -0.531779
O45   O     O_R   0.153216 0.514708 0.177444 -0.663630
H19   H     H_    0.070712 0.468406 0.156725 0.301308
O46   O     O_3   0.331732 0.575631 0.295878 -0.611130
H20   H     H_    0.267068 0.525641 0.276554 0.334277
C71   C     C_2   0.768781 0.012219 0.830414 0.861725
O47   O     O_2   0.712181 0.075228 0.860864 -0.521230
O48   O     O_R   0.966364 0.996279 0.824536 -0.660125
H21   H     H_    0.047844 0.041558 0.847312 0.319719
C72   C     C_2   0.812703 0.941047 0.707491 0.819929
O49   O     O_2   0.902579 0.888789 0.674289 -0.560830
O50   O     O_R   0.865181 0.020465 0.714632 -0.625411
H22   H     H_    0.980118 0.026997 0.690298 0.337837
O51   O     O_3   0.810737 0.226562 0.997741 -0.583245
H23   H     H_    0.898050 0.258924 0.026449 0.302220
C73   C     C_2   0.285433 0.273368 0.008917 0.772116
O52   O     O_2   0.187008 0.278002 0.967677 -0.509586
O53   O     O_R   0.231189 0.312028 0.064614 -0.642288
H24   H     H_    0.115796 0.348196 0.066054 0.293904
C74   C     C_2   0.982708 0.424103 0.426483 0.937295
O54   O     O_2   0.852907 0.410232 0.390938 -0.476042
O55   O     O_R   0.074396 0.497908 0.439199 -0.668425
H25   H     H_    0.025444 0.533859 0.414865 0.326554
O56   O     O_3   0.124231 0.013185 0.463503 -0.598864
H26   H     H_    0.205516 0.001449 0.428785 0.362849
O57   O     O_3   0.337007 0.075903 0.279712 -0.614097
H27   H     H_    0.344797 0.103646 0.320677 0.320102
O58   O     O_3   0.664549 0.151590 0.176189 -0.603626
H28   H     H_    0.702289 0.162335 0.139211 0.300580

loop_
_geom_bond_atom_site_label_1
_geom_bond_atom_site_label_2
_ccdc_geom_bond_type
O25   V4    S    
C31   C68   S    
O57   H27   S    
C33   C37   A    
C73   O53   S    
O48   H21   S    
C1    O6    A    
O55   H25   S    
C68   O36   D    
C54   H8    S    
C23   C64   S    
O27   V4    S    
C12   C13   A    
C19   O13   S    
C16   C20   A    
N1    C8    A    
C14   C15   A    
O46   H20   S    
C59   O51   S    
C72   O50   S    
O5    C3    A    
C16   C17   A    
C25   C65   S    
C68   O37   S    
C7    C11   A    
C13   C74   S    
C66   O32   D    
C60   C61   S    
C33   N3    A    
N2    C20   A    
C9    C12   A    
C10   C15   A    
O26   C63   A    
O22   C62   A    
C31   C32   A    
O8    V2    S    
O53   H24   S    
C53   H7    S    
C33   O15   S    
C25   C26   A    
C28   C29   A    
O50   H22   S    
C74   O55   S    
V3    O28   S    
N4    C46   A    
O1    V2    S    
C15   C16   A    
O7    V1    S    
O19   C62   A    
O22   V3    S    
O21   V3    S    
C56   C57   A    
C11   C18   A    
C67   O35   S    
C42   C43   A    
C35   C36   A    
O9    C4    A    
C4    C5    S    
C71   O48   S    
C71   O47   D    
C55   C62   S    
C48   C49   A    
C47   O43   S    
C17   O56   S    
N3    C58   S    
C54   C55   A    
C43   C44   A    
O25   V3    S    
O42   H17   S    
C47   C48   A    
C1    C49   S    
C65   O31   S    
C24   O58   S    
C47   C52   A    
C59   C60   D    
O4    C2    A    
C6    H1    S    
C21   C26   A    
C35   C38   A    
C66   O33   S    
C34   C35   A    
C48   H6    S    
C8    O12   S    
C51   C52   A    
C49   C50   A    
C36   C37   A    
O2    C1    A    
C22   H4    S    
C42   C46   A    
O5    V1    S    
C38   C39   A    
O21   C64   A    
O23   V3    S    
C34   O16   S    
C74   O54   D    
V4    O28   S    
C2    C59   S    
C30   C67   S    
C5    C6    D    
C56   C71   S    
C45   O17   S    
C28   H5    S    
C6    C63   S    
C40   C45   A    
C10   C11   A    
C67   O34   D    
O20   C61   A    
C22   C23   A    
O35   H12   S    
O3    C4    A    
C43   C69   S    
C53   C54   A    
C36   C41   A    
C41   C42   A    
O6    V2    S    
O9    V2    S    
O37   H13   S    
N2    C26   S    
C21   C22   A    
C18   H3    S    
O38   H14   S    
O2    V1    S    
O58   H28   S    
C29   C30   A    
N1    C32   S    
O31   H10   S    
O43   H18   S    
C53   C58   A    
C57   C58   A    
C24   C25   A    
O24   V4    S    
C65   O30   D    
C27   C66   S    
O1    C2    A    
C17   C18   A    
C12   H2    S    
C50   C51   A    
C69   O41   S    
C5    O29   S    
C14   C19   A    
O26   V4    S    
C70   O44   D    
C21   O57   S    
C30   C31   A    
C50   C70   S    
O27   C64   A    
C3    C29   S    
O33   H11   S    
C40   C41   A    
C20   O14   S    
O39   H15   S    
O4    V1    S    
O3    V1    S    
C27   C32   A    
C72   O49   D    
O19   V4    S    
C46   O18   S    
C70   O45   S    
C37   C44   A    
N3    C34   A    
O41   H16   S    
C44   O42   S    
O23   C63   A    
V2    O10   S    
C61   O24   A    
C57   C72   S    
C19   N2    A    
C60   C73   S    
C39   O39   S    
O7    V2    S    
C45   N4    A    
N4    C52   S    
O56   H26   S    
C9    C10   A    
C39   C40   A    
C7    O11   S    
C23   C24   A    
C38   O38   S    
C51   O46   S    
C7    N1    A    
O20   V3    S    
C55   C56   A    
C27   C28   A    
O29   H9    S    
C73   O52   D    
C8    C9    A    
V1    O10   S    
O51   H23   S    
O45   H19   S    
C69   O40   D    
O8    C3    A    
C13   C14   A    
