data_mof_unit_1712.cif
_audit_creation_date              2012-12-10T17:02:31-0500
_audit_creation_method            fapswitch 2.2
_symmetry_space_group_name_H-M    P1
_symmetry_Int_Tables_number       1
_space_group_crystal_system       triclinic
_cell_length_a                    10.776053
_cell_length_b                    10.981745
_cell_length_c                    9.820663
_cell_angle_alpha                 110.454229
_cell_angle_beta                  99.667954
_cell_angle_gamma                 90.721572
_cell_volume                      1070.23625178

loop_
_atom_site_label
_atom_site_type_symbol
_atom_type_description
_atom_site_fract_x
_atom_site_fract_y
_atom_site_fract_z
_atom_type_partial_charge
C1    C     C_R   0.488739 0.253767 0.441241 0.842704
C2    C     C_R   0.503069 0.746079 0.558468 0.830597
C3    C     C_2   0.480831 0.113819 0.409040 0.112128
C4    C     C_2   0.492351 0.885255 0.589565 0.117538
C5    C     C_2   0.441115 0.066160 0.504378 0.488044
C6    C     C_2   0.441950 0.927457 0.480667 0.508722
C7    C     C_2   0.510661 0.511198 0.081982 0.636516
C8    C     C_2   0.487907 0.490629 0.918626 0.634062
C9    C     C_R   0.263106 0.516680 0.501784 0.853518
C10   C     C_R   0.738022 0.486810 0.498976 0.849523
C11   C     C_R   0.155885 0.674690 0.762829 0.495993
C12   C     C_R   0.847996 0.342342 0.234781 0.509302
C13   C     C_R   0.116906 0.705051 0.898565 0.221237
C14   C     C_R   0.886363 0.320217 0.099600 0.211310
C15   C     C_R   0.009956 0.638373 0.908034 0.517587
C16   C     C_R   0.993424 0.389286 0.094468 0.518832
C17   C     C_R   0.936026 0.549675 0.780329 0.545307
C18   C     C_R   0.067123 0.473472 0.224782 0.545186
C19   C     C_R   0.962728 0.534216 0.638526 -0.220829
C20   C     C_R   0.039690 0.482042 0.364023 -0.231641
C21   C     C_R   0.083232 0.581884 0.633384 -0.181606
C22   C     C_R   0.919649 0.432410 0.367493 -0.185104
C23   C     C_R   0.875345 0.473428 0.502832 0.066619
C24   C     C_R   0.127312 0.537704 0.498937 0.075792
Cu1   Cu    Cu3+1 0.521920 0.521810 0.644910 1.181466
Cu2   Cu    Cu3+1 0.478080 0.478190 0.355090 1.183023
H1    H     H_    0.626132 0.620871 0.934320 0.242566
H2    H     H_    0.375467 0.377361 0.065196 0.242091
N1    N     N_2   0.445130 0.445420 0.137360 -0.262607
N2    N     N_2   0.554870 0.554580 0.862640 -0.272064
O1    O     O_R   0.511700 0.332340 0.577400 -0.498964
O2    O     O_R   0.488300 0.667660 0.422600 -0.490362
O3    O     O_R   0.474680 0.295500 0.332650 -0.532405
O4    O     O_R   0.525320 0.704500 0.667350 -0.528752
O5    O     O_R   0.338170 0.518410 0.622370 -0.508262
O6    O     O_R   0.661830 0.481590 0.377630 -0.511925
O7    O     O_R   0.301150 0.481570 0.377630 -0.563836
O8    O     O_R   0.698850 0.518430 0.622370 -0.557951
F1    F     F_    0.028120 0.373088 0.963098 -0.540421
F2    F     F_    0.976840 0.659551 0.041296 -0.539484
F3    F     F_    0.259103 0.743069 0.755743 -0.585308
F4    F     F_    0.746858 0.268484 0.237269 -0.568735
Cl1   Cl    Cl    0.205221 0.822987 0.057865 -0.266841
Cl2   Cl    Cl    0.797323 0.210301 0.935151 -0.303230
F5    F     F_    0.849232 0.468708 0.798508 -0.555053
F6    F     F_    0.156840 0.555505 0.213178 -0.540144
F7    F     F_    0.392914 0.841708 0.342837 -0.554800
F8    F     F_    0.399235 0.146255 0.625720 -0.560371
Cl3   Cl    Cl    0.545735 0.993082 0.772952 -0.334279
Cl4   Cl    Cl    0.531193 0.013306 0.246544 -0.330620
F9    F     F_    0.393487 0.402158 0.827267 -0.584464
F10   F     F_    0.602897 0.602148 0.174144 -0.619606

loop_
_geom_bond_atom_site_label_1
_geom_bond_atom_site_label_2
_ccdc_geom_bond_type
Cu1   O1    S    
C19   C23   A    
C10   O6    A    
Cu2   O7    S    
Cu2   O2    S    
C7    N1    D    
C10   C23   S    
C4    Cl3   S    
Cu2   O3    S    
C2    C4    S    
C13   Cl1   S    
Cu1   O4    S    
C10   O8    A    
C8    N2    D    
C2    O4    A    
C9    O7    A    
C12   C14   A    
C3    C5    D    
C1    O3    A    
C7    C8    S    
C9    C24   S    
H1    N2    S    
C11   C13   A    
C8    F9    S    
Cu1   O5    S    
C18   F6    S    
C16   C18   A    
H2    N1    S    
C19   C21   A    
C3    Cl4   S    
C20   C22   A    
C7    F10   S    
C11   F3    S    
C14   Cl2   S    
C18   C20   A    
C13   C15   A    
C5    C6    S    
Cu1   O8    S    
C5    F8    S    
C14   C16   A    
C15   F2    S    
C4    C6    D    
C6    F7    S    
C16   F1    S    
C9    O5    A    
C12   C22   A    
C1    O1    A    
Cu2   N1    S    
C2    O2    A    
C21   C24   A    
Cu2   O6    S    
Cu1   N2    S    
C15   C17   A    
C22   C23   A    
C12   F4    S    
C17   C19   A    
Cu1   Cu2   S    
C11   C21   A    
C20   C24   A    
C17   F5    S    
C1    C3    S    
