data_mof_unit_3211.cif
_audit_creation_date              2012-12-10T17:26:26-0500
_audit_creation_method            fapswitch 2.2
_symmetry_space_group_name_H-M    P1
_symmetry_Int_Tables_number       1
_space_group_crystal_system       triclinic
_cell_length_a                    10.12462
_cell_length_b                    10.307439
_cell_length_c                    27.758277
_cell_angle_alpha                 90.106419
_cell_angle_beta                  81.74724
_cell_angle_gamma                 94.261252
_cell_volume                      2858.78632069

loop_
_atom_site_label
_atom_site_type_symbol
_atom_type_description
_atom_site_fract_x
_atom_site_fract_y
_atom_site_fract_z
_atom_type_partial_charge
C1    C     C_R   0.554496 0.736111 0.498471 0.921750
C2    C     C_R   0.530062 0.609205 0.126675 -0.001009
C3    C     C_R   0.503283 0.503307 0.646361 -0.087149
C4    C     C_R   0.496337 0.497620 0.353555 -0.089878
C5    C     C_R   0.528654 0.618090 0.025002 0.076181
C6    C     C_R   0.439922 0.391742 0.976317 0.075676
C7    C     C_R   0.439700 0.388179 0.027484 0.011645
C8    C     C_R   0.526695 0.622268 0.973993 0.011729
C9    C     C_R   0.484213 0.501148 0.051533 0.067271
C10   C     C_R   0.484978 0.508563 0.949787 0.067325
C11   C     C_R   0.576120 0.726812 0.050517 -0.221628
C12   C     C_R   0.445633 0.263907 0.504566 0.921016
C13   C     C_R   0.396141 0.282005 0.950472 -0.220214
C14   C     C_R   0.575907 0.722340 0.100266 -0.161432
C15   C     C_R   0.400474 0.285529 0.900515 -0.160095
C16   C     C_R   0.501051 0.500492 0.593918 0.959051
C17   C     C_R   0.498930 0.499626 0.406050 0.869298
C18   C     C_R   0.563812 0.737526 0.946314 -0.287861
C19   C     C_R   0.398777 0.273971 0.055418 -0.287113
C20   C     C_2   0.580614 0.875245 0.505985 -0.021307
C21   C     C_2   0.420218 0.124798 0.514606 -0.017447
C22   C     C_2   0.508189 0.929461 0.544689 0.333611
C23   C     C_R   0.488498 0.511364 0.898451 -0.095627
C24   C     C_2   0.493327 0.071002 0.545500 0.339305
C25   C     C_2   0.926954 0.510935 0.504215 -0.126997
C26   C     C_2   0.073011 0.488955 0.495829 -0.137945
C27   C     C_R   0.540909 0.622430 0.820190 0.498820
C28   C     C_R   0.441230 0.384099 0.180648 0.497899
C29   C     C_R   0.454638 0.400420 0.823610 0.503159
C30   C     C_R   0.529929 0.605364 0.176898 0.503520
C31   C     C_R   0.616696 0.466149 0.715973 0.260690
C32   C     C_R   0.609908 0.467548 0.271478 0.263594
C33   C     C_R   0.614868 0.464360 0.665728 -0.210263
C34   C     C_R   0.485076 0.497266 0.102650 -0.095823
C35   C     C_R   0.611195 0.469793 0.321694 -0.221532
C36   C     C_R   0.393705 0.546145 0.677379 -0.188412
C37   C     C_R   0.378830 0.522071 0.334981 -0.220323
C38   C     C_R   0.395500 0.550057 0.727162 -0.139862
C39   C     C_R   0.376323 0.519181 0.285159 -0.129358
C40   C     C_R   0.506011 0.510482 0.746530 0.259037
C41   C     C_R   0.490837 0.491992 0.253476 0.258790
C42   C     C_3   0.212476 0.994541 0.512535 -0.767591
C43   C     C_3   0.789167 0.004557 0.482858 -0.767643
C44   C     C_3   0.491614 0.938405 0.866781 -0.682285
C45   C     C_R   0.532627 0.626564 0.871307 -0.065662
C46   C     C_3   0.471328 0.066407 0.131624 -0.680829
C47   C     C_3   0.840191 0.531042 0.237939 -0.751763
C48   C     C_3   0.752906 0.290016 0.729744 -0.733410
C49   C     C_R   0.441668 0.381943 0.129825 -0.067353
C50   C     C_R   0.566892 0.741015 0.896022 0.243996
C51   C     C_R   0.400512 0.269260 0.105440 0.241940
C52   C     C_R   0.447853 0.398300 0.874138 -0.000880
H1    H     H_    0.306884 0.577404 0.663205 0.177904
H2    H     H_    0.700519 0.432593 0.641898 0.174850
H3    H     H_    0.613298 0.808470 0.117947 0.184975
H4    H     H_    0.366112 0.198610 0.882576 0.183830
H5    H     H_    0.616643 0.817415 0.033381 0.136966
H6    H     H_    0.357214 0.190638 0.967315 0.136338
H7    H     H_    0.588393 0.829302 0.962545 0.139360
H8    H     H_    0.367034 0.183738 0.039663 0.139672
H9    H     H_    0.326273 0.091491 0.453865 0.220440
H10   H     H_    0.158238 0.931926 0.488041 0.239671
H11   H     H_    0.149429 0.074645 0.525889 0.238718
H12   H     H_    0.288966 0.543615 0.358870 0.168663
H13   H     H_    0.229003 0.934049 0.543836 0.262967
H14   H     H_    0.676069 0.908039 0.435624 0.225319
H15   H     H_    0.844385 0.066770 0.452840 0.239206
H16   H     H_    0.851486 0.924155 0.489850 0.234487
H17   H     H_    0.772249 0.065360 0.515874 0.264009
H18   H     H_    0.680680 0.915892 0.883877 0.216819
H19   H     H_    0.527159 0.026407 0.844226 0.250891
H20   H     H_    0.445620 0.969358 0.903384 0.197650
H21   H     H_    0.414923 0.881516 0.848904 0.258353
H22   H     H_    0.280023 0.098906 0.119212 0.217520
H23   H     H_    0.109593 0.419047 0.468779 0.162696
H24   H     H_    0.435350 0.978747 0.154311 0.253781
H25   H     H_    0.554062 0.118918 0.147772 0.256223
H26   H     H_    0.509626 0.034918 0.094210 0.197434
H27   H     H_    0.710547 0.404476 0.205632 0.228017
H28   H     H_    0.815478 0.625605 0.223719 0.269316
H29   H     H_    0.926536 0.496055 0.213400 0.238295
H30   H     H_    0.870307 0.544983 0.274621 0.238741
H31   H     H_    0.741127 0.460384 0.769551 0.232580
H32   H     H_    0.845891 0.269945 0.744375 0.239910
H33   H     H_    0.765023 0.262294 0.690773 0.244307
H34   H     H_    0.890350 0.580771 0.531289 0.164302
H35   H     H_    0.667681 0.229721 0.750229 0.270094
H36   H     H_    0.607160 0.093202 0.595861 0.333766
H37   H     H_    0.394775 0.907865 0.607045 0.336417
H38   H     H_    0.119241 0.616965 0.545308 0.170773
H39   H     H_    0.880793 0.383116 0.454666 0.162975
H40   H     H_    0.310404 0.582973 0.750965 0.147331
H41   H     H_    0.285529 0.538803 0.270965 0.145934
H42   H     H_    0.701572 0.448169 0.335776 0.170991
N1    N     N_R   0.501809 0.510790 0.798019 -0.362131
N2    N     N_2   0.730797 0.426681 0.735204 -0.314101
N3    N     N_R   0.486654 0.493958 0.202424 -0.362459
N4    N     N_2   0.842700 0.448890 0.480020 -0.186574
N5    N     N_2   0.157300 0.551110 0.519980 -0.186269
N6    N     N_2   0.338525 0.047289 0.486082 -0.334006
N7    N     N_2   0.663346 0.952346 0.469160 -0.332679
N8    N     N_2   0.603486 0.861729 0.870999 -0.250896
N9    N     N_2   0.362178 0.148830 0.130476 -0.249084
N10   N     N_2   0.726612 0.436404 0.239670 -0.308305
O1    O     O_R   0.431060 0.692470 0.504020 -0.561979
O2    O     O_2   0.395902 0.278386 0.208432 -0.524417
O3    O     O_2   0.572430 0.712088 0.200285 -0.571269
O4    O     O_2   0.414681 0.293086 0.800001 -0.571350
O5    O     O_3   0.558725 0.149492 0.576533 -0.785531
O6    O     O_3   0.442926 0.851329 0.582589 -0.788551
O7    O     O_R   0.568940 0.307530 0.495980 -0.563838
O8    O     O_R   0.651120 0.659650 0.491200 -0.617323
O9    O     O_R   0.348880 0.340350 0.508800 -0.615315
O10   O     O_R   0.389980 0.516390 0.577660 -0.599326
O11   O     O_R   0.610020 0.483610 0.422340 -0.619825
O12   O     O_R   0.610040 0.483570 0.564830 -0.605814
O13   O     O_R   0.389960 0.516430 0.435170 -0.621074
O14   O     O_2   0.588777 0.727634 0.792489 -0.525113
Zn1   Zn    Zn3+2 0.353060 0.521910 0.508560 0.970965
Zn2   Zn    Zn3+2 0.646940 0.478090 0.491440 0.967160

loop_
_geom_bond_atom_site_label_1
_geom_bond_atom_site_label_2
_ccdc_geom_bond_type
C28   N3    A    
C23   C45   A    
C30   O3    S    
C27   N1    A    
C46   H24   S    
C39   C41   A    
C48   H32   S    
C30   N3    A    
C18   C50   A    
C45   C50   A    
C5    C11   A    
O13   Zn1   S    
C1    O8    A    
C11   C14   A    
C27   O14   S    
C3    C33   A    
C51   N9    S    
C31   N2    S    
C38   H40   S    
C31   C40   A    
C44   H19   S    
C47   H30   S    
C39   H41   S    
C36   H1    S    
O9    Zn1   S    
C28   O2    S    
C43   H16   S    
C22   O6    S    
C42   H13   S    
C32   C41   A    
C31   C33   A    
C29   O4    S    
C42   H10   S    
O10   Zn1   S    
C17   O13   A    
C26   N5    D    
C2    C34   A    
C14   H3    S    
C4    C35   A    
C43   H17   S    
H14   N7    S    
C47   H28   S    
C16   O12   A    
C32   C35   A    
O8    Zn2   S    
C21   N6    S    
C44   N8    S    
C13   H6    S    
C49   C51   A    
C25   C26   S    
N5    Zn1   S    
C12   C21   S    
C8    C18   A    
O12   Zn2   S    
O7    Zn2   S    
C43   N7    S    
C5    C9    A    
C42   N6    S    
C5    C8    A    
C28   C49   A    
C18   H7    S    
C32   N10   S    
C26   H23   S    
C48   H35   S    
C15   C52   A    
C4    C17   S    
C43   H15   S    
C20   C22   D    
C50   N8    S    
C7    C19   A    
C13   C15   A    
C9    C34   A    
C19   H8    S    
C41   N3    S    
H27   N10   S    
H9    N6    S    
H36   O5    S    
C40   N1    S    
H38   N5    S    
C37   H12   S    
C17   O11   A    
C46   H26   S    
C12   O9    A    
C35   H42   S    
C33   H2    S    
C7    C9    A    
C34   C49   A    
C47   N10   S    
C48   N2    S    
C24   O5    S    
C1    C20   S    
C16   O10   A    
C6    C10   A    
C46   H25   S    
H18   N8    S    
N4    Zn2   S    
C6    C7    A    
C20   N7    S    
C10   C23   A    
C46   N9    S    
C2    C30   A    
C15   H4    S    
C36   C38   A    
C37   C39   A    
C6    C13   A    
C38   C40   A    
C27   C45   A    
C23   C52   A    
C3    C36   A    
H31   N2    S    
H37   O6    S    
C25   H34   S    
C44   H20   S    
C22   C24   S    
C47   H29   S    
H39   N4    S    
C44   H21   S    
C2    C14   A    
C29   N1    A    
C19   C51   A    
C25   N4    D    
C4    C37   A    
C8    C10   A    
O11   Zn2   S    
C21   C24   D    
C48   H33   S    
O1    Zn1   S    
C11   H5    S    
C42   H11   S    
C12   O7    A    
C3    C16   S    
C1    O1    A    
H22   N9    S    
C29   C52   A    
