data_mof_unit_3885.cif
_audit_creation_date              2012-12-11T14:23:18-0500
_audit_creation_method            fapswitch 2.2
_symmetry_space_group_name_H-M    P1
_symmetry_Int_Tables_number       1
_space_group_crystal_system       triclinic
_cell_length_a                    10.967789
_cell_length_b                    10.988875
_cell_length_c                    18.864394
_cell_angle_alpha                 90.216034
_cell_angle_beta                  89.919943
_cell_angle_gamma                 60.072499
_cell_volume                      1970.40919482

loop_
_atom_site_label
_atom_site_type_symbol
_atom_type_description
_atom_site_fract_x
_atom_site_fract_y
_atom_site_fract_z
_atom_type_partial_charge
C1    C     C_R   0.238551 0.644344 0.610495 0.524094
C2    C     C_R   0.592441 0.122252 0.705991 -0.132543
C3    C     C_R   0.598579 0.115089 0.778282 -0.091293
C4    C     C_R   0.650721 0.618075 0.602933 0.534642
C5    C     C_R   0.915262 0.149204 0.813658 -0.082195
C6    C     C_R   0.026603 0.141711 0.774976 0.357777
C7    C     C_R   0.028385 0.132957 0.701446 -0.113212
C8    C     C_R   0.917573 0.132797 0.666011 -0.156549
C9    C     C_R   0.684299 0.150082 0.668593 0.011509
C10   C     C_R   0.186313 0.669208 0.835646 0.011059
C11   C     C_R   0.217185 0.543245 0.801538 0.076632
C12   C     C_3   0.703307 0.528111 0.800507 -0.287778
C13   C     C_R   0.210101 0.539162 0.726309 0.064317
C14   C     C_R   0.184412 0.772219 0.722740 -0.144069
C15   C     C_R   0.179894 0.778803 0.795633 -0.138117
C16   C     C_R   0.632079 0.222758 0.600793 0.522985
C17   C     C_R   0.252157 0.422230 0.841237 -0.061513
C18   C     C_R   0.264766 0.303691 0.808651 -0.042762
C19   C     C_R   0.243080 0.303124 0.736106 -0.070870
C20   C     C_R   0.214088 0.419765 0.695224 -0.065917
C21   C     C_R   0.198385 0.654874 0.686232 0.001792
C22   C     C_R   0.711860 0.693310 0.180989 0.006890
C23   C     C_3   0.696166 0.669961 0.813831 0.079174
C24   C     C_R   0.827999 0.604203 0.225904 0.040601
C25   C     C_R   0.806319 0.612964 0.299843 0.048833
C26   C     C_R   0.554289 0.738650 0.279375 -0.129733
C27   C     C_R   0.575757 0.756981 0.208675 -0.132816
C28   C     C_R   0.223100 0.647829 0.401516 0.537876
C29   C     C_R   0.961780 0.497708 0.201217 -0.086399
C30   C     C_R   0.064247 0.407280 0.248108 -0.135871
C31   C     C_R   0.047755 0.432681 0.320300 -0.086955
C32   C     C_R   0.923164 0.543479 0.345582 -0.068825
C33   C     C_R   0.668163 0.672218 0.325886 0.016584
C34   C     C_3   0.665740 0.642660 0.678573 -0.024407
C35   C     C_R   0.633177 0.168285 0.174316 -0.055156
C36   C     C_R   0.544793 0.138053 0.217834 0.013913
C37   C     C_R   0.570731 0.123142 0.290878 -0.030861
C38   C     C_R   0.704020 0.245291 0.276503 0.342125
C39   C     C_R   0.708458 0.225736 0.204203 -0.111373
C40   C     C_R   0.644052 0.625660 0.394040 0.561695
C41   C     C_R   0.431276 0.123330 0.192034 -0.087368
C42   C     C_R   0.360412 0.077487 0.235946 -0.152706
C43   C     C_R   0.398646 0.046995 0.306379 -0.118799
C44   C     C_R   0.508597 0.061738 0.332786 -0.081966
C45   C     C_3   0.791619 0.665847 0.689358 -0.147229
C46   C     C_R   0.644212 0.185326 0.320954 -0.002735
C47   C     C_R   0.143938 0.693709 0.185544 0.013921
C48   C     C_R   0.104472 0.814048 0.230908 0.042918
C49   C     C_R   0.091570 0.798061 0.303334 0.014956
C50   C     C_R   0.238867 0.545348 0.285658 -0.134191
C51   C     C_R   0.218484 0.560128 0.213309 -0.166051
C52   C     C_R   0.616485 0.231359 0.394308 0.550106
C53   C     C_R   0.086760 0.946068 0.208901 -0.098368
C54   C     C_R   0.039265 0.059037 0.255968 -0.131567
C55   C     C_R   0.005235 0.045434 0.325178 -0.091675
C56   C     C_3   0.690158 0.510037 0.720585 -0.239060
C57   C     C_R   0.024390 0.917445 0.347990 -0.110420
C58   C     C_R   0.168916 0.662872 0.330962 0.004097
C59   C     C_R   0.705707 0.094963 0.893667 0.558766
C60   C     C_R   0.721319 0.686168 0.889308 0.599733
C61   C     C_R   0.120389 0.705537 0.906332 0.568482
C62   C     C_R   0.672034 0.108478 0.103502 0.538227
C63   C     C_R   0.732167 0.713999 0.105870 0.553655
C64   C     C_3   0.549421 0.787531 0.788667 -0.269566
C65   C     C_R   0.092968 0.712704 0.112998 0.530203
C66   C     C_3   0.531736 0.771839 0.708968 -0.259091
C67   C     C_R   0.700293 0.128562 0.817299 0.032695
C68   C     C_3   0.813900 0.675672 0.769209 0.696238
C69   C     C_R   0.805610 0.140845 0.779493 -0.025612
C70   C     C_R   0.802168 0.142213 0.703908 0.017262
Cr1   Cr    Cr6+3 0.392940 0.397950 0.502230 0.988672
Cr2   Cr    Cr6+3 0.398400 0.708500 0.501260 0.996197
Cr3   Cr    Cr6+3 0.708640 0.393530 0.496460 1.023855
Cr4   Cr    Cr6+3 0.937880 0.938320 0.007620 1.022651
Cr5   Cr    Cr6+3 0.625560 0.937220 0.994510 1.021307
Cr6   Cr    Cr6+3 0.938080 0.625010 0.001190 1.040020
F1    F     F_    0.943836 0.563982 0.787302 -0.611429
F2    F     F_    0.138756 0.130293 0.810021 -0.694266
F3    F     F_    0.756381 0.325400 0.302198 -0.634457
F4    F     F_    0.815392 0.798869 0.783245 -0.628742
H1    H     H_    0.537052 0.892062 0.798624 0.168866
H2    H     H_    0.464675 0.782630 0.818844 0.129823
H3    H     H_    0.272094 0.417797 0.897616 0.101142
H4    H     H_    0.164807 0.873805 0.820731 0.187328
H5    H     H_    0.293011 0.211784 0.840343 0.178794
H6    H     H_    0.252589 0.210431 0.710982 0.125428
H7    H     H_    0.190202 0.415038 0.640278 0.129648
H8    H     H_    0.447913 0.773616 0.297298 0.142669
H9    H     H_    0.992223 0.473027 0.146872 0.164549
H10   H     H_    0.485373 0.813122 0.174550 0.138627
H11   H     H_    0.162007 0.325567 0.227364 0.107094
H12   H     H_    0.788563 0.416676 0.701990 0.169432
H13   H     H_    0.132766 0.369227 0.356258 0.119278
H14   H     H_    0.438940 0.758375 0.700968 0.158970
H15   H     H_    0.387912 0.156023 0.139698 0.139709
H16   H     H_    0.769008 0.257301 0.171372 0.144771
H17   H     H_    0.275315 0.066059 0.214835 0.096667
H18   H     H_    0.344043 0.010493 0.340396 0.119437
H19   H     H_    0.539553 0.031644 0.387251 0.124794
H20   H     H_    0.308212 0.441185 0.306219 0.155257
H21   H     H_    0.120208 0.962826 0.157887 0.142206
H22   H     H_    0.261358 0.468298 0.179203 0.113091
H23   H     H_    0.888359 0.577949 0.665154 0.133724
H24   H     H_    0.027807 0.157877 0.238483 0.145186
H25   H     H_    0.967826 0.132765 0.361882 0.179911
H26   H     H_    0.000207 0.908660 0.402793 0.113532
H27   H     H_    0.771660 0.763905 0.662238 0.113252
H28   H     H_    0.804438 0.440064 0.820026 0.184525
H29   H     H_    0.602076 0.489061 0.711067 0.131709
H30   H     H_    0.914334 0.564911 0.402003 0.107663
H31   H     H_    0.511275 0.869099 0.680842 0.125171
H32   H     H_    0.617112 0.523936 0.829621 0.097274
H33   H     H_    0.508097 0.115803 0.679749 0.119225
H34   H     H_    0.918187 0.161573 0.870132 0.160496
H35   H     H_    0.521919 0.096305 0.803500 0.129133
H36   H     H_    0.117983 0.120634 0.671545 0.106403
H37   H     H_    0.927227 0.117704 0.609202 0.139153
H38   H     H_    0.181287 0.859101 0.694771 0.146999
O1    O     O_R   0.507340 0.255690 0.581430 -0.531710
O2    O     O_R   0.837290 0.593240 0.915240 -0.456323
O3    O     O_R   0.065320 0.635310 0.931580 -0.462285
O4    O     O_R   0.280360 0.527380 0.578910 -0.518589
O5    O     O_R   0.068470 0.828620 0.091850 -0.539636
O6    O     O_R   0.799150 0.057200 0.079350 -0.504451
O7    O     O_R   0.585220 0.080180 0.076770 -0.541097
O8    O     O_R   0.627170 0.809480 0.067050 -0.506349
O9    O     O_R   0.816200 0.596410 0.076500 -0.547392
O10   O     O_R   0.045770 0.638240 0.081070 -0.542650
O11   O     O_3   0.833840 0.833520 0.001110 -0.259985
O12   O     O_R   0.524510 0.695820 0.424050 -0.518622
O13   O     O_R   0.260600 0.739610 0.584580 -0.533211
O14   O     O_R   0.532370 0.695050 0.573830 -0.510115
O15   O     O_R   0.744850 0.503430 0.576380 -0.538163
O16   O     O_R   0.699080 0.276500 0.571950 -0.521518
O17   O     O_R   0.498860 0.256520 0.419860 -0.544148
O18   O     O_R   0.272490 0.528150 0.429140 -0.513913
O19   O     O_R   0.252110 0.740440 0.423010 -0.519262
O20   O     O_R   0.736370 0.504260 0.414810 -0.465009
O21   O     O_R   0.691220 0.277270 0.422180 -0.448727
O22   O     O_3   0.499990 0.499990 0.499980 -0.241931
O23   O     O_R   0.089570 0.825450 0.930590 -0.521243
O24   O     O_R   0.818700 0.054260 0.929860 -0.504015
O25   O     O_R   0.606310 0.077010 0.915520 -0.531896
O26   O     O_R   0.646730 0.806540 0.917560 -0.500642

loop_
_geom_bond_atom_site_label_1
_geom_bond_atom_site_label_2
_ccdc_geom_bond_type
C23   C68   S    
Cr4   O6    S    
C34   C56   S    
C5    H34   S    
C41   C42   A    
Cr1   O4    S    
C19   C20   A    
C43   H18   S    
C19   H6    S    
C16   O16   A    
C34   C66   S    
C29   H9    S    
C7    C8    A    
C4    O14   A    
C41   H15   S    
C53   C54   A    
C51   H22   S    
C1    C21   S    
C12   C23   S    
C26   C27   A    
Cr6   O2    S    
C32   H30   S    
C55   H25   S    
C5    C6    A    
Cr6   O3    S    
C14   C21   A    
C54   H24   S    
C36   C37   A    
C9    C16   S    
C10   C15   A    
Cr1   O17   S    
C30   C31   A    
C2    H33   S    
C6    F2    S    
Cr3   O20   S    
C20   H7    S    
C46   C52   S    
C52   O21   A    
C49   C57   A    
C27   H10   S    
C61   O3    A    
C18   C19   A    
C1    O4    A    
C5    C69   A    
C45   H23   S    
C59   C67   S    
C22   C63   S    
C24   C29   A    
C35   C36   A    
C59   O24   A    
C53   H21   S    
C14   H38   S    
C40   O20   A    
C47   C48   A    
C60   O2    A    
C66   H31   S    
C66   H14   S    
C25   C32   A    
Cr4   O5    S    
Cr4   O24   S    
C59   O25   A    
C36   C41   A    
C48   C53   A    
C62   O6    A    
C8    H37   S    
Cr2   O14   S    
Cr2   O19   S    
C23   C60   S    
C64   H1    S    
C4    C34   S    
C33   C40   S    
C50   C58   A    
C65   O10   A    
C9    C70   A    
Cr5   O26   S    
C42   H17   S    
Cr1   O18   S    
C12   H28   S    
C47   C51   A    
Cr3   O21   S    
C50   C51   A    
C31   H13   S    
C49   C58   A    
C67   C69   A    
C64   C66   S    
C7    H36   S    
C35   C39   A    
C43   C44   A    
C29   C30   A    
Cr6   O11   S    
C26   C33   A    
C31   C32   A    
Cr2   O22   S    
C45   C68   S    
C17   C18   A    
C13   C21   A    
C34   C45   S    
C12   C56   S    
C24   C25   A    
C64   H2    S    
C6    C7    A    
Cr5   O25   S    
C61   O23   A    
C23   C64   S    
Cr4   O23   S    
Cr3   O15   S    
C22   C27   A    
C55   C57   A    
Cr6   O10   S    
C22   C24   A    
C16   O1    A    
C10   C61   S    
C42   C43   A    
C68   F4    S    
C56   H29   S    
C12   H32   S    
Cr2   O13   S    
C68   F1    S    
C52   O17   A    
C40   O12   A    
C54   C55   A    
C11   C17   A    
Cr1   O22   S    
C13   C20   A    
C18   H5    S    
C28   O18   A    
C50   H20   S    
C3    C67   A    
C28   O19   A    
C30   H11   S    
C1    O13   A    
C62   O7    A    
Cr2   O12   S    
C15   H4    S    
Cr3   O22   S    
C28   C58   S    
C8    C70   A    
Cr1   O1    S    
Cr5   O8    S    
C37   C44   A    
C2    C3    A    
C17   H3    S    
C3    H35   S    
C60   O26   A    
C11   C13   A    
C38   C39   A    
C48   C49   A    
C44   H19   S    
C57   H26   S    
C35   C62   S    
C65   O5    A    
C69   C70   A    
C39   H16   S    
C38   C46   A    
C63   O8    A    
C10   C11   A    
Cr5   O11   S    
C56   H12   S    
Cr3   O16   S    
C26   H8    S    
C38   F3    S    
Cr4   O11   S    
Cr6   O9    S    
C14   C15   A    
Cr5   O7    S    
C37   C46   A    
C2    C9    A    
C47   C65   S    
C63   O9    A    
C45   H27   S    
C25   C33   A    
C4    O15   A    
