data_mof_unit_552.cif
_audit_creation_date              2012-12-10T20:39:53-0500
_audit_creation_method            fapswitch 2.2
_symmetry_space_group_name_H-M    P1
_symmetry_Int_Tables_number       1
_space_group_crystal_system       triclinic
_cell_length_a                    23.046922
_cell_length_b                    10.73441
_cell_length_c                    9.995227
_cell_angle_alpha                 90.861263
_cell_angle_beta                  91.07074
_cell_angle_gamma                 89.594165
_cell_volume                      2472.0019607

loop_
_atom_site_label
_atom_site_type_symbol
_atom_type_description
_atom_site_fract_x
_atom_site_fract_y
_atom_site_fract_z
_atom_type_partial_charge
C1    C     C_R   0.497473 0.260808 0.499239 0.907182
C2    C     C_R   0.969579 0.319546 0.313226 -0.125578
C3    C     C_R   0.029833 0.319700 0.302558 -0.112254
C4    C     C_R   0.061226 0.428180 0.333727 -0.009968
C5    C     C_R   0.031558 0.539462 0.366137 -0.038632
C6    C     C_R   0.062679 0.651378 0.383766 -0.070857
C7    C     C_R   0.032257 0.763862 0.411314 0.206893
C8    C     C_R   0.972418 0.760594 0.430001 -0.170398
C9    C     C_R   0.121906 0.427781 0.341880 0.572873
C10   C     C_R   0.123338 0.642944 0.379410 0.581130
C11   C     C_R   0.236484 0.626441 0.511645 -0.040846
C12   C     C_R   0.389374 0.504742 0.499152 0.935755
C13   C     C_R   0.297154 0.625603 0.504651 0.108343
C14   C     C_R   0.326177 0.509445 0.497768 -0.183834
C15   C     C_R   0.294455 0.398186 0.510224 -0.160079
C16   C     C_R   0.233240 0.403092 0.498651 -0.064224
C17   C     C_R   0.206528 0.519022 0.466343 0.108981
C18   C     C_R   0.772559 0.447453 0.557409 -0.036352
C19   C     C_R   0.712021 0.435715 0.574232 0.063697
C20   C     C_R   0.673860 0.510839 0.497555 -0.083219
C21   C     C_R   0.695688 0.594267 0.405003 -0.192615
C22   C     C_R   0.754510 0.601411 0.384217 -0.070478
C23   C     C_R   0.500848 0.739979 0.500938 0.915539
C24   C     C_R   0.793134 0.528354 0.458504 0.195968
C25   C     C_R   0.491953 0.067659 0.620941 0.038624
C26   C     C_R   0.489093 0.129585 0.499565 -0.075269
C27   C     C_R   0.480462 0.062845 0.379928 -0.098764
C28   C     C_R   0.484137 0.934347 0.381185 -0.155114
C29   C     C_R   0.496633 0.872962 0.501940 -0.115198
C30   C     C_R   0.497522 0.940385 0.623067 0.078430
C31   C     C_3   0.542933 0.949796 0.734248 0.240659
C32   C     C_3   0.533286 0.090326 0.734865 -0.331167
C33   C     C_R   0.452587 0.460629 0.067354 0.095585
C34   C     C_R   0.610864 0.499459 0.500619 0.905266
C35   C     C_R   0.548736 0.524316 0.076281 -0.074047
C36   C     C_R   0.549179 0.526031 0.934038 0.022087
C37   C     C_R   0.452568 0.461691 0.926448 0.085183
C38   C     C_3   0.391597 0.509440 0.917106 -0.083427
C39   C     C_3   0.391350 0.508636 0.070300 0.190450
C40   C     C_R   0.882677 0.642563 0.444489 0.586982
C41   C     C_R   0.880260 0.427960 0.377021 0.532317
C42   C     C_R   0.940025 0.427845 0.355180 -0.010442
C43   C     C_R   0.971027 0.538845 0.378443 -0.009887
C44   C     C_R   0.941812 0.648538 0.416934 -0.062018
H1    H     H_    0.946541 0.233503 0.292996 0.204098
H2    H     H_    0.666751 0.652099 0.345369 0.171487
H3    H     H_    0.770271 0.662813 0.308140 0.173444
H4    H     H_    0.474590 0.109344 0.285113 0.196407
H5    H     H_    0.479600 0.884105 0.286868 0.206175
H6    H     H_    0.571456 0.144514 0.704285 0.176355
H7    H     H_    0.587212 0.549972 0.133714 0.171413
H8    H     H_    0.051832 0.233628 0.275785 0.209521
H9    H     H_    0.362635 0.438407 0.869802 0.176013
H10   H     H_    0.950051 0.846127 0.457138 0.213522
N1    N     N_R   0.853488 0.532693 0.427045 -0.345094
N2    N     N_R   0.150049 0.529237 0.396612 -0.318375
N3    N     N_R   0.499610 0.499140 0.142800 -0.111228
N4    N     N_R   0.499610 0.499180 0.857150 -0.122147
O1    O     O_R   0.500010 0.316790 0.614690 -0.628929
O2    O     O_2   0.849172 0.324222 0.349966 -0.520212
O3    O     O_2   0.151950 0.329560 0.293017 -0.511681
O4    O     O_2   0.154935 0.744029 0.351857 -0.495084
O5    O     O_R   0.500000 0.316760 0.385350 -0.599667
O6    O     O_R   0.416160 0.499980 0.614700 -0.611997
O7    O     O_R   0.416150 0.499940 0.385360 -0.575627
O8    O     O_R   0.500000 0.683240 0.614650 -0.561466
O9    O     O_R   0.499990 0.683210 0.385310 -0.622922
O10   O     O_R   0.583850 0.500060 0.614640 -0.583387
O11   O     O_R   0.583840 0.500020 0.385300 -0.630776
O12   O     O_2   0.854704 0.744966 0.490615 -0.513519
Zn1   Zn    Zn3+2 0.500000 0.500020 0.653130 1.042060
Zn2   Zn    Zn3+2 0.500000 0.499980 0.346870 1.019692
I1    I     I_    0.678327 0.299834 0.705772 -0.185068
I2    I     I_    0.520465 0.859541 0.917619 -0.211953
I3    I     I_    0.629420 0.906770 0.667927 -0.190855
C45   C     C_2   0.504007 0.146820 0.855632 1.020084
O13   O     O_2   0.533798 0.185220 0.949742 -0.605726
O14   O     O_R   0.443445 0.155198 0.860364 -0.771703
H11   H     H_    0.429476 0.192619 0.947824 0.345315
C46   C     C_2   0.603582 0.569938 0.877445 0.962421
O15   O     O_2   0.602726 0.653366 0.796480 -0.566724
O16   O     O_R   0.656668 0.525847 0.928306 -0.788508
H12   H     H_    0.691120 0.566749 0.885624 0.361676
I4    I     I_    0.380757 0.689420 0.827560 -0.168611
I5    I     I_    0.382159 0.687150 0.169571 -0.158084
I6    I     I_    0.332484 0.372731 0.142995 -0.154323
I7    I     I_    0.071148 0.941278 0.445810 -0.196086
C47   C     C_2   0.205617 0.719802 0.597573 1.014504
O17   O     O_2   0.222652 0.826936 0.609696 -0.535035
O18   O     O_R   0.156166 0.683383 0.665683 -0.789697
H13   H     H_    0.138377 0.754013 0.719877 0.367353
I8    I     I_    0.342647 0.799016 0.498929 -0.130627
C48   C     C_2   0.325346 0.279718 0.539782 0.992003
O19   O     O_2   0.358955 0.235103 0.458674 -0.598944
O20   O     O_R   0.316369 0.220309 0.661071 -0.753135
H14   H     H_    0.340092 0.140840 0.669905 0.388887
C49   C     C_2   0.197819 0.295068 0.539523 1.036076
O21   O     O_2   0.154119 0.312907 0.604921 -0.592204
O22   O     O_R   0.213783 0.173649 0.502257 -0.701725
H15   H     H_    0.186338 0.108838 0.537116 0.388907
C50   C     C_2   0.814987 0.377821 0.641741 0.980440
O23   O     O_2   0.809856 0.265728 0.657209 -0.533721
O24   O     O_R   0.862410 0.440489 0.699454 -0.791221
H16   H     H_    0.889022 0.383263 0.752578 0.360926

loop_
_geom_bond_atom_site_label_1
_geom_bond_atom_site_label_2
_ccdc_geom_bond_type
C27   H4    S    
C50   O23   D    
O20   H14   S    
C41   C42   A    
C19   C20   A    
C49   O21   D    
C7    C8    A    
C24   N1    S    
C26   C27   A    
C33   C39   S    
C40   O12   S    
C9    O3    S    
C23   C29   S    
C23   O8    A    
C28   C29   A    
C37   C38   S    
C45   O14   S    
C18   C19   A    
C36   N4    A    
C1    O1    A    
C5    C6    A    
C12   O6    A    
N4    Zn1   S    
C15   C16   A    
O9    Zn2   S    
O6    Zn1   S    
C23   O9    A    
C41   N1    A    
C48   O19   D    
C7    I7    S    
O22   H15   S    
C16   C17   A    
C32   C45   S    
C10   N2    A    
C37   N4    A    
C20   C34   S    
C47   O17   D    
C25   C32   S    
C22   H3    S    
C5    C43   A    
C48   O20   S    
C21   C22   A    
C10   O4    S    
C1    O5    A    
C49   O22   S    
C2    H1    S    
C38   C39   S    
C19   I1    S    
C45   O13   D    
C46   O16   S    
C36   C46   S    
C8    H10   S    
O14   H11   S    
C46   O15   D    
C31   I2    S    
C25   C26   A    
C33   C37   A    
C18   C50   S    
O11   Zn2   S    
C43   C44   A    
C6    C10   A    
C29   C30   A    
C28   H5    S    
C31   I3    S    
O8    Zn1   S    
C34   O11   A    
C11   C47   S    
C40   N1    A    
C9    N2    A    
O5    Zn2   S    
C17   N2    S    
C32   H6    S    
C47   O18   S    
C13   I8    S    
C35   H7    S    
C1    C26   S    
C18   C24   A    
C42   C43   A    
C39   I5    S    
C34   O10   A    
C3    C4    A    
O24   H16   S    
C21   H2    S    
C25   C30   A    
C11   C17   A    
C33   N3    A    
C38   I4    S    
C31   C32   S    
C8    C44   A    
C41   O2    S    
C12   C14   S    
C4    C5    A    
C15   C48   S    
C3    H8    S    
C6    C7    A    
O7    Zn2   S    
C12   O7    A    
C35   N3    A    
C2    C3    A    
C11   C13   A    
O18   H13   S    
C30   C31   S    
C38   H9    S    
C2    C42   A    
O10   Zn1   S    
C22   C24   A    
N3    Zn2   S    
C16   C49   S    
C40   C44   A    
C20   C21   A    
C50   O24   S    
O16   H12   S    
C27   C28   A    
C14   C15   A    
C35   C36   A    
C39   I6    S    
C4    C9    A    
C13   C14   A    
O1    Zn1   S    
