data_mof_unit_1925.cif
_audit_creation_date              2012-12-10T17:02:57-0500
_audit_creation_method            fapswitch 2.2
_symmetry_space_group_name_H-M    P1
_symmetry_Int_Tables_number       1
_space_group_crystal_system       triclinic
_cell_length_a                    9.812729
_cell_length_b                    11.040238
_cell_length_c                    13.466428
_cell_angle_alpha                 94.420507
_cell_angle_beta                  81.646043
_cell_angle_gamma                 111.770417
_cell_volume                      1340.02974997

loop_
_atom_site_label
_atom_site_type_symbol
_atom_type_description
_atom_site_fract_x
_atom_site_fract_y
_atom_site_fract_z
_atom_type_partial_charge
C1    C     C_R   0.556626 0.745761 0.508341 0.863533
C2    C     C_R   0.433852 0.463411 0.968094 0.086088
C3    C     C_R   0.468809 0.443188 0.863675 0.069828
C4    C     C_R   0.544056 0.485435 0.032858 0.086329
C5    C     C_R   0.688669 0.495379 0.991738 0.153675
C6    C     C_R   0.716778 0.463185 0.891051 -0.258427
C7    C     C_R   0.605836 0.429608 0.829661 -0.184533
C8    C     C_R   0.513971 0.493717 0.137518 -0.266862
C9    C     C_R   0.774347 0.554507 0.155902 -0.003376
C10   C     C_R   0.365236 0.435353 0.796636 -0.161905
C11   C     C_2   0.588411 0.885443 0.514292 -0.370385
C12   C     C_R   0.418450 0.470315 0.688908 0.778912
C13   C     C_2   0.480907 0.930164 0.508384 -0.150943
C14   C     C_2   0.408993 0.114215 0.493065 -0.362360
C15   C     C_2   0.512614 0.069437 0.509469 -0.152656
C16   C     C_2   0.917376 0.481518 0.496102 -0.006885
C17   C     C_2   0.065618 0.485126 0.520069 -0.118515
C18   C     C_R   0.442584 0.254099 0.493631 0.860294
C19   C     C_R   0.579037 0.515853 0.309444 0.798661
C20   C     C_R   0.802928 0.533952 0.052279 -0.243623
C21   C     C_R   0.625642 0.524013 0.199908 -0.110167
C22   C     C_R   0.214745 0.408310 0.837272 0.104384
C23   C     C_R   0.183360 0.432494 0.939864 -0.157524
C24   C     C_R   0.291669 0.464462 0.003321 -0.227088
Cu1   Cu    Cu3+1 0.362000 0.479240 0.482530 0.917936
Cu2   Cu    Cu3+1 0.638000 0.520760 0.517470 0.928760
H1    H     H_    0.368628 0.863716 0.501272 0.171214
H2    H     H_    0.299248 0.047551 0.479549 0.142258
H3    H     H_    0.700300 0.952030 0.522610 0.142935
H4    H     H_    0.102502 0.522509 0.591959 0.159853
H5    H     H_    0.869885 0.418041 0.434497 0.144860
H6    H     H_    0.119391 0.412192 0.387765 0.193516
H7    H     H_    0.823848 0.460366 0.860284 0.140018
H8    H     H_    0.915360 0.551137 0.018184 0.131588
H9    H     H_    0.401912 0.470788 0.172363 0.154152
H10   H     H_    0.259245 0.487183 0.080070 0.130542
H11   H     H_    0.073617 0.426645 0.971887 0.125982
H12   H     H_    0.629041 0.390663 0.755889 0.174148
H13   H     H_    0.622794 0.135828 0.522441 0.179664
N1    N     N_2   0.845330 0.551960 0.543750 -0.157692
N2    N     N_2   0.154690 0.448120 0.456210 -0.289493
O1    O     O_R   0.426290 0.668220 0.490680 -0.567734
O2    O     O_R   0.659360 0.703290 0.520190 -0.596120
O3    O     O_R   0.326580 0.473880 0.629020 -0.589291
O4    O     O_R   0.559660 0.508940 0.658530 -0.590110
O5    O     O_R   0.340640 0.296710 0.479810 -0.573828
O6    O     O_R   0.573710 0.331780 0.509320 -0.591052
O7    O     O_R   0.440340 0.491060 0.341470 -0.585118
O8    O     O_R   0.673420 0.526120 0.370980 -0.568478
C25   C     C_R   0.902092 0.613129 0.213836 0.143446
C26   C     C_R   0.919925 0.729364 0.270505 -0.081933
C27   C     C_R   0.042698 0.787228 0.322491 -0.140050
C28   C     C_R   0.150253 0.731397 0.316464 -0.089892
C29   C     C_R   0.134771 0.617255 0.259090 -0.146284
C30   C     C_R   0.010932 0.557728 0.208335 -0.193729
H14   H     H_    0.838651 0.774950 0.274430 0.104342
H15   H     H_    0.055087 0.875942 0.366740 0.116353
H16   H     H_    0.245985 0.776807 0.355762 0.129541
H17   H     H_    0.218846 0.574897 0.254168 0.133995
H18   H     H_    0.999832 0.468678 0.164803 0.117757
C31   C     C_3   0.911614 0.635770 0.628153 -0.167219
C32   C     C_3   0.859652 0.749974 0.657960 -0.278888
C33   C     C_3   0.938924 0.832027 0.743709 -0.953829
H19   H     H_    0.916166 0.771370 0.810676 0.269491
H20   H     H_    0.060211 0.874218 0.720432 0.259798
H21   H     H_    0.898556 0.913292 0.764517 0.260308
H22   H     H_    0.886301 0.814396 0.592850 0.218741
H23   H     H_    0.740175 0.715592 0.684802 0.261833
H24   H     H_    0.891364 0.574506 0.694389 0.148748
H25   H     H_    0.032844 0.685261 0.607353 0.145759
C34   C     C_3   0.086336 0.354171 0.774727 -0.397702
C35   C     C_3   0.955934 0.238461 0.823365 -0.372976
C36   C     C_3   0.839458 0.176617 0.751965 -0.856325
H26   H     H_    0.798277 0.250292 0.729479 0.251845
H27   H     H_    0.886873 0.135639 0.683703 0.250173
H28   H     H_    0.744740 0.096270 0.789991 0.249508
H29   H     H_    0.996823 0.163255 0.843402 0.230033
H30   H     H_    0.901512 0.270939 0.892701 0.219027
H31   H     H_    0.047492 0.433594 0.762015 0.178217
H32   H     H_    0.121399 0.315133 0.701445 0.234945

loop_
_geom_bond_atom_site_label_1
_geom_bond_atom_site_label_2
_ccdc_geom_bond_type
C31   H25   S    
C33   H20   S    
C36   H26   S    
C14   C18   S    
C1    C11   S    
C4    C8    A    
Cu2   N1    S    
C18   O6    A    
C34   H31   S    
C5    C20   A    
C28   C29   A    
C10   C22   A    
C16   H5    S    
C24   H10   S    
C32   H22   S    
C19   C21   S    
C3    C7    A    
C5    C6    A    
C26   H14   S    
C35   H30   S    
C35   H29   S    
C1    O2    A    
C16   C17   S    
H6    N2    S    
Cu2   O4    S    
C35   C36   S    
C20   H8    S    
C33   H21   S    
C30   H18   S    
C17   H4    S    
C36   H27   S    
C18   O5    A    
Cu1   O3    S    
C34   H32   S    
Cu2   O2    S    
C8    C21   A    
C29   H17   S    
C26   C27   A    
Cu2   O8    S    
Cu1   N2    S    
C19   O7    A    
C4    C5    A    
Cu1   Cu2   S    
C23   H11   S    
N1    C31   S    
C8    H9    S    
C2    C4    A    
C32   C33   S    
C19   O8    A    
C9    C20   A    
C23   C24   A    
C25   C26   A    
Cu1   O7    S    
C15   H13   S    
C10   C12   S    
Cu2   O6    S    
C16   N1    D    
C13   C15   S    
C2    C24   A    
C36   H28   S    
C22   C34   S    
C27   C28   A    
C31   H24   S    
C29   C30   A    
C22   C23   A    
C9    C25   S    
C12   O4    A    
Cu1   O1    S    
C28   H16   S    
C6    C7    A    
C25   C30   A    
C6    H7    S    
C32   H23   S    
C2    C3    A    
C34   C35   S    
C12   O3    A    
C3    C10   A    
C11   C13   D    
C9    C21   A    
C7    H12   S    
C31   C32   S    
C17   N2    D    
C27   H15   S    
C33   H19   S    
C1    O1    A    
C11   H3    S    
C14   C15   D    
C13   H1    S    
C14   H2    S    
Cu1   O5    S    
