data_mof_unit_554.cif
_audit_creation_date              2013-03-05T16:16:10-0500
_audit_creation_method            fapswitch 2.2
_symmetry_space_group_name_H-M    P1
_symmetry_Int_Tables_number       1
_space_group_crystal_system       triclinic
_cell_length_a                    23.507954
_cell_length_b                    15.910701
_cell_length_c                    14.622573
_cell_angle_alpha                 89.581799
_cell_angle_beta                  89.797802
_cell_angle_gamma                 89.875756
_cell_volume                      5469.05983329

loop_
_atom_site_label
_atom_site_type_symbol
_atom_site_description
_atom_site_fract_x
_atom_site_fract_y
_atom_site_fract_z
_atom_type_partial_charge
O1    O     O_R   0.500010 0.379080 0.576170 -0.573849
O2    O     O_R   0.499990 0.620920 0.423830 -0.573045
O3    O     O_R   0.500000 0.379080 0.423800 -0.564810
O4    O     O_R   0.500000 0.620920 0.576200 -0.569830
C1    C     C_R   0.499976 0.339527 0.500205 0.834216
C2    C     C_R   0.500036 0.660467 0.499802 0.829235
O5    O     O_R   0.417890 0.499980 0.576200 -0.582349
O6    O     O_R   0.582110 0.500020 0.423800 -0.575389
O7    O     O_R   0.417870 0.499970 0.423830 -0.575883
O8    O     O_R   0.582130 0.500030 0.576170 -0.581473
C3    C     C_R   0.390598 0.500427 0.500178 0.838605
C4    C     C_R   0.609371 0.500673 0.499830 0.837335
Cu1   Cu    Cu3+1 0.500010 0.500000 0.590220 0.974898
Cu2   Cu    Cu3+1 0.499990 0.500000 0.409780 0.988548
C5    C     C_R   0.880920 0.583713 0.496399 0.576484
C6    C     C_R   0.119849 0.439468 0.513300 0.548480
N1    N     N_R   0.852387 0.509588 0.502736 -0.436552
N2    N     N_R   0.147319 0.514235 0.504252 -0.438591
C7    C     C_R   0.880107 0.435138 0.515722 0.570444
C8    C     C_R   0.118414 0.588612 0.500860 0.596947
C9    C     C_R   0.940289 0.433050 0.520719 -0.061273
C10   C     C_R   0.058822 0.590841 0.517537 -0.067129
C11   C     C_R   0.969727 0.511037 0.518347 -0.057277
C12   C     C_R   0.029580 0.512734 0.516311 -0.062895
C13   C     C_R   0.939085 0.587372 0.518718 -0.069139
C14   C     C_R   0.060137 0.436271 0.508251 -0.050074
C15   C     C_R   0.972159 0.356789 0.524804 0.077321
C16   C     C_R   0.027862 0.666441 0.537917 0.083260
C17   C     C_R   0.030336 0.359216 0.499878 0.080384
C18   C     C_R   0.967064 0.663281 0.543054 0.085156
O9    O     O_2   0.853455 0.651975 0.463453 -0.524462
O10   O     O_2   0.150433 0.369441 0.531312 -0.552205
O11   O     O_2   0.849102 0.364130 0.519100 -0.550048
O12   O     O_2   0.147653 0.658794 0.479630 -0.539938
C19   C     C_R   0.237875 0.503789 0.418343 0.363600
C20   C     C_R   0.762203 0.489840 0.418477 0.386574
C21   C     C_R   0.297445 0.499139 0.418864 -0.268817
C22   C     C_R   0.702641 0.486790 0.419667 -0.283125
H1    H     H_    0.320135 0.491981 0.354782 0.199398
H2    H     H_    0.680007 0.471191 0.357689 0.198873
C23   C     C_R   0.327941 0.503646 0.500781 -0.123417
C24   C     C_R   0.671965 0.503597 0.499712 -0.130096
C25   C     C_R   0.298471 0.512426 0.583484 -0.225368
C26   C     C_R   0.701052 0.524308 0.579792 -0.192888
H3    H     H_    0.321785 0.514230 0.647206 0.164393
H4    H     H_    0.676518 0.537716 0.640577 0.160610
C27   C     C_R   0.239100 0.519012 0.585384 0.088200
C28   C     C_R   0.760710 0.528246 0.581250 0.077863
C29   C     C_R   0.208462 0.514532 0.502273 0.232426
C30   C     C_R   0.791284 0.510520 0.499955 0.212791
C31   C     C_3   0.549407 0.973173 0.531796 0.386675
C32   C     C_3   0.450717 0.026771 0.468424 0.384239
C33   C     C_3   0.542946 0.028864 0.445583 -0.297203
C34   C     C_3   0.457177 0.971082 0.554633 -0.300615
H5    H     H_    0.578198 0.052550 0.401825 0.176281
H6    H     H_    0.421920 0.947389 0.598374 0.172529
C35   C     C_1   0.499830 0.250129 0.500344 -0.144534
C36   C     C_1   0.500226 0.749850 0.499711 -0.147338
C37   C     C_3   0.507229 0.028001 0.585396 -0.002425
C38   C     C_3   0.492894 0.971945 0.414831 -0.002680
C39   C     C_3   0.499649 0.083409 0.499318 -0.014273
C40   C     C_3   0.500473 0.916549 0.500909 -0.012911
C41   C     C_1   0.499692 0.174840 0.499723 0.039920
C42   C     C_1   0.500402 0.825130 0.500425 0.038275
C43   C     C_3   0.489579 0.576942 0.967429 0.119720
C44   C     C_3   0.510445 0.422597 0.032846 0.119389
C45   C     C_3   0.449008 0.525537 0.029807 0.120462
C46   C     C_3   0.551119 0.473961 0.970512 0.128793
H7    H     H_    0.426182 0.402322 0.946341 0.140578
H8    H     H_    0.573815 0.597377 0.053896 0.141026
N3    N     N_1   0.499980 0.500000 0.274190 -0.152276
N4    N     N_1   0.500020 0.500000 0.725810 -0.156311
C47   C     C_3   0.540722 0.553309 0.029502 -0.227876
C48   C     C_3   0.459342 0.446291 0.970706 -0.227998
C49   C     C_3   0.499811 0.501410 0.091539 -0.036206
C50   C     C_3   0.500350 0.498125 0.908577 -0.033178
C51   C     C_1   0.499925 0.501025 0.194222 0.113747
C52   C     C_1   0.500181 0.498755 0.805815 0.103445
C53   C     C_3   0.947002 0.274380 0.560786 -0.356716
C54   C     C_3   0.928597 0.282167 0.661384 -0.328901
C55   C     C_3   0.900807 0.201305 0.695894 -0.793061
H9    H     H_    0.862020 0.187572 0.655540 0.274337
H10   H     H_    0.930978 0.147748 0.690347 0.246096
H11   H     H_    0.888438 0.208558 0.768768 0.242410
H12   H     H_    0.966584 0.295476 0.703945 0.211754
H13   H     H_    0.898076 0.334715 0.670697 0.237447
H14   H     H_    0.911872 0.252300 0.516844 0.245996
H15   H     H_    0.978644 0.222810 0.559021 0.181272
C56   C     C_3   0.059036 0.748698 0.558307 -0.337113
C57   C     C_3   0.094698 0.742239 0.646376 -0.363243
C58   C     C_3   0.119089 0.827327 0.673077 -0.810925
H16   H     H_    0.146386 0.852508 0.617154 0.272639
H17   H     H_    0.084206 0.872605 0.687423 0.247697
H18   H     H_    0.145327 0.819992 0.735649 0.246481
H19   H     H_    0.068658 0.717284 0.703808 0.201166
H20   H     H_    0.130421 0.697953 0.637566 0.251169
H21   H     H_    0.085396 0.768489 0.499137 0.247316
H22   H     H_    0.029840 0.802610 0.565184 0.181878
C59   C     C_3   0.391351 0.550277 0.070384 -0.397594
C60   C     C_3   0.346959 0.569044 0.996629 -0.384550
C61   C     C_3   0.289477 0.589558 0.039882 -0.754654
H23   H     H_    0.273471 0.534808 0.079822 0.286535
H24   H     H_    0.293265 0.644650 0.085690 0.257979
H25   H     H_    0.258316 0.604936 0.985545 0.236122
H26   H     H_    0.360574 0.623599 0.954399 0.222252
H27   H     H_    0.342112 0.513748 0.951322 0.223647
H28   H     H_    0.376223 0.497394 0.114145 0.214172
H29   H     H_    0.396949 0.605913 0.114810 0.191613
C62   C     C_3   0.609482 0.448695 0.932854 -0.430723
C63   C     C_3   0.652180 0.430849 0.009606 -0.334700
C64   C     C_3   0.710072 0.405757 0.971072 -0.796772
H30   H     H_    0.706185 0.348497 0.928537 0.249831
H31   H     H_    0.727884 0.457603 0.928927 0.253905
H32   H     H_    0.739826 0.392291 0.028162 0.271188
H33   H     H_    0.657312 0.487732 0.052451 0.230992
H34   H     H_    0.636684 0.378803 0.053753 0.227977
H35   H     H_    0.604670 0.392514 0.889028 0.193859
H36   H     H_    0.625623 0.500972 0.889186 0.198484
C65   C     C_3   0.480694 0.662926 0.922189 -0.404791
C66   C     C_3   0.472289 0.733337 0.991606 -0.348035
C67   C     C_3   0.464482 0.817470 0.942456 -0.846263
H37   H     H_    0.502480 0.831884 0.899874 0.258848
H38   H     H_    0.426293 0.815758 0.897976 0.256406
H39   H     H_    0.458685 0.868187 0.993163 0.249001
H40   H     H_    0.434046 0.720939 0.034157 0.224483
H41   H     H_    0.509940 0.737035 0.037157 0.221378
H42   H     H_    0.518766 0.676988 0.879481 0.205010
H43   H     H_    0.443418 0.659663 0.875947 0.190830
C68   C     C_3   0.518301 0.336395 0.078192 -0.402333
C69   C     C_3   0.528140 0.266200 0.008979 -0.350483
C70   C     C_3   0.533886 0.181683 0.058063 -0.839608
H44   H     H_    0.570591 0.182596 0.105690 0.260528
H45   H     H_    0.494490 0.167556 0.097324 0.259183
H46   H     H_    0.541026 0.131201 0.007483 0.247735
H47   H     H_    0.491835 0.263397 0.960606 0.221325
H48   H     H_    0.567673 0.278121 0.969456 0.224853
H49   H     H_    0.554426 0.339227 0.126739 0.195058
H50   H     H_    0.479281 0.322331 0.118621 0.208820
C71   C     C_3   0.057568 0.283620 0.452063 -0.353846
C72   C     C_3   0.022220 0.253702 0.370063 -0.384336
C73   C     C_3   0.052121 0.182363 0.319648 -0.783838
H51   H     H_    0.093871 0.203767 0.292457 0.269338
H52   H     H_    0.058803 0.127952 0.366447 0.255299
H53   H     H_    0.025462 0.161792 0.261445 0.249873
H54   H     H_    0.979872 0.230777 0.392298 0.227189
H55   H     H_    0.015654 0.307049 0.321659 0.251493
H56   H     H_    0.099371 0.300223 0.422081 0.261089
H57   H     H_    0.064940 0.231531 0.501543 0.201767
C74   C     C_3   0.932327 0.735755 0.585170 -0.371006
C75   C     C_3   0.943303 0.746392 0.688241 -0.420322
C76   C     C_3   0.897023 0.799414 0.733738 -0.812866
H58   H     H_    0.895022 0.862699 0.701308 0.265109
H59   H     H_    0.854911 0.768490 0.727659 0.256164
H60   H     H_    0.906835 0.806823 0.807463 0.249367
H61   H     H_    0.944705 0.683747 0.722391 0.228034
H62   H     H_    0.984012 0.778854 0.699988 0.239826
H63   H     H_    0.939268 0.795396 0.546988 0.198446
H64   H     H_    0.886281 0.725002 0.581124 0.251500
N5    N     N_R   0.208199 0.495607 0.332658 0.130888
O13   O     O_R   0.232610 0.458382 0.263898 -0.370850
O14   O     O_R   0.158343 0.529425 0.320370 -0.331464
N6    N     N_R   0.792221 0.471104 0.334767 0.141841
O15   O     O_R   0.843200 0.499781 0.319586 -0.321976
O16   O     O_R   0.767121 0.429549 0.270105 -0.367879
C77   C     C_3   0.209562 0.527018 0.677336 -0.373509
C78   C     C_3   0.227105 0.607709 0.726808 -0.373874
C79   C     C_3   0.190680 0.621748 0.811956 -0.843426
H65   H     H_    0.145256 0.629392 0.793106 0.250526
H66   H     H_    0.194820 0.567429 0.859606 0.262259
H67   H     H_    0.204908 0.679542 0.847233 0.247583
H68   H     H_    0.272346 0.603399 0.748100 0.216472
H69   H     H_    0.222715 0.662759 0.680207 0.239554
H70   H     H_    0.162609 0.526577 0.670120 0.197355
H71   H     H_    0.220913 0.471643 0.720382 0.208558
C80   C     C_3   0.793569 0.549813 0.667770 -0.379252
C81   C     C_3   0.757517 0.568153 0.753205 -0.378983
C82   C     C_3   0.795188 0.588384 0.834955 -0.823746
H72   H     H_    0.822624 0.533642 0.852244 0.256853
H73   H     H_    0.822453 0.643632 0.819596 0.259519
H74   H     H_    0.768116 0.603209 0.895116 0.250461
H75   H     H_    0.729255 0.622970 0.739870 0.235047
H76   H     H_    0.731118 0.512429 0.770752 0.219562
H77   H     H_    0.822692 0.496596 0.683864 0.197047
H78   H     H_    0.819979 0.606227 0.653378 0.203553
N7    N     N_R   0.604204 0.944944 0.566952 0.119402
O17   O     O_R   0.642457 0.999903 0.589366 -0.356198
O18   O     O_R   0.615314 0.865229 0.575904 -0.364529
N8    N     N_R   0.395917 0.054971 0.433261 0.119357
O19   O     O_R   0.357668 0.999993 0.410880 -0.353133
O20   O     O_R   0.384794 0.134680 0.424289 -0.355216
C83   C     C_3   0.484640 0.936441 0.319010 -0.360556
C84   C     C_3   0.481044 0.006113 0.246433 -0.313323
C85   C     C_3   0.472811 0.968762 0.151639 -0.859739
H79   H     H_    0.509796 0.928620 0.133308 0.255518
H80   H     H_    0.433371 0.930468 0.150025 0.265399
H81   H     H_    0.468966 0.019789 0.099955 0.246331
H82   H     H_    0.444693 0.048532 0.261647 0.260629
H83   H     H_    0.520789 0.043837 0.246485 0.217419
H84   H     H_    0.521104 0.894322 0.303276 0.202463
H85   H     H_    0.445019 0.898473 0.318597 0.223539
C86   C     C_3   0.515479 0.063299 0.681315 -0.360140
C87   C     C_3   0.518977 0.993422 0.753689 -0.315994
C88   C     C_3   0.527176 0.030438 0.848646 -0.862142
H86   H     H_    0.566655 0.068632 0.850496 0.264777
H87   H     H_    0.490219 0.070605 0.867059 0.255729
H88   H     H_    0.530920 0.979206 0.900125 0.246413
H89   H     H_    0.479205 0.955765 0.753443 0.216065
H90   H     H_    0.555301 0.950977 0.738390 0.259007
H91   H     H_    0.555136 0.101180 0.681877 0.222774
H92   H     H_    0.479046 0.105449 0.697125 0.201163

loop_
_geom_bond_atom_site_label_1
_geom_bond_atom_site_label_2
_geom_bond_distance
_ccdc_geom_bond_type
C44   C46   1.548969 S    
C88   H86   1.110946 S    
C78   H69   1.110647 S    
C77   C78   1.536100 S    
C15   C17   1.414642 A    
C23   C25   1.399309 A    
Cu2   N3    1.982677 S    
C2    C36   1.422155 S    
C64   H30   1.110960 S    
C70   H46   1.107945 S    
C53   H14   1.107516 S    
C55   H9    1.110794 S    
C57   C58   1.525335 S    
C45   C49   1.545647 S    
C62   H35   1.109872 S    
C57   H19   1.109146 S    
C79   H66   1.110498 S    
C70   H45   1.110432 S    
O5    C3    1.285415 A    
C59   H29   1.110143 S    
C88   H87   1.110936 S    
C71   H56   1.106393 S    
C60   H26   1.108686 S    
C61   H23   1.110840 S    
C43   C50   1.545996 S    
C48   C50   1.555994 S    
O1    C1    1.280685 A    
C50   C52   1.502633 S    
C38   C40   1.541928 S    
C7    C9    1.417196 A    
C12   C14   1.416923 A    
N6    O15   1.301028 A    
C15   C53   1.528686 S    
C32   C39   1.534113 S    
C73   H52   1.110841 S    
C27   C77   1.517162 S    
C66   H41   1.111514 S    
N7    O18   1.300148 A    
C74   C75   1.540590 S    
C77   H70   1.109230 S    
C44   C48   1.552954 S    
C43   C47   1.552882 S    
N8    O20   1.300133 A    
C86   C87   1.531622 S    
C76   H60   1.110408 S    
O4    Cu1   1.933323 S    
C39   C41   1.454786 S    
C63   C64   1.524627 S    
C67   H39   1.107721 S    
C54   H13   1.109385 S    
C32   C38   1.535865 S    
C33   C39   1.551448 S    
C68   H50   1.111779 S    
N5    O13   1.301588 A    
C32   C34   1.543278 S    
C43   C45   1.548175 S    
C10   C16   1.437113 A    
C19   C29   1.417756 A    
C40   C42   1.454619 S    
C76   H58   1.110832 S    
N5    O14   1.301072 A    
C16   C56   1.533030 S    
C84   H83   1.111591 S    
C74   H64   1.098127 S    
C45   C59   1.529564 S    
C44   C68   1.530153 S    
C8    O12   1.346282 S    
C65   H43   1.110260 S    
C85   H81   1.108900 S    
C28   C30   1.416768 A    
C9    C15   1.425639 A    
C78   H68   1.111068 S    
C61   H24   1.110973 S    
C87   H90   1.110688 S    
Cu1   Cu2   2.638497 S    
C36   C42   1.197888 T    
C47   C49   1.554366 S    
O2    C2    1.280729 A    
C31   C40   1.533954 S    
C24   C26   1.399845 A    
C86   H91   1.111294 S    
C53   H15   1.106681 S    
C55   H10   1.110714 S    
C33   C38   1.555992 S    
C26   H4    1.080181 S    
C62   H36   1.111515 S    
C35   C41   1.198008 T    
C79   H67   1.110397 S    
N6    O16   1.301569 A    
C34   C37   1.556030 S    
C33   H5    1.110067 S    
C31   C37   1.535953 S    
C6    C14   1.406946 A    
C81   H75   1.111763 S    
C17   C71   1.533347 S    
C88   H88   1.109074 S    
C34   H6    1.110071 S    
C71   H57   1.109900 S    
C37   C39   1.542048 S    
C87   C88   1.525238 S    
C4    C24   1.472278 S    
C83   C84   1.531453 S    
C83   H85   1.111307 S    
O4    C2    1.278136 A    
C7    O11   1.346336 S    
C73   H53   1.110374 S    
C72   H55   1.112059 S    
C58   H16   1.110689 S    
C66   H40   1.108750 S    
C18   C74   1.542237 S    
C34   C40   1.551256 S    
C82   H73   1.110186 S    
C77   H71   1.111644 S    
C56   H21   1.106740 S    
N8    O19   1.300141 A    
C31   C33   1.543348 S    
N1    C30   1.437169 S    
C81   H76   1.111302 S    
O7    Cu2   1.940654 S    
C54   H12   1.111894 S    
C31   N7    1.457451 S    
C58   H17   1.110792 S    
C25   H3    1.083278 S    
C37   C86   1.527791 S    
C59   C60   1.530748 S    
O6    C4    1.285306 A    
C82   H74   1.110385 S    
H8    C47   1.109973 S    
C85   H80   1.110946 S    
C43   C65   1.529508 S    
H7    C48   1.109947 S    
C64   H31   1.108084 S    
C45   C48   1.552009 S    
C79   H65   1.109977 S    
C84   H82   1.110679 S    
C72   C73   1.526773 S    
C65   C66   1.529257 S    
C5    O9    1.349099 S    
C49   C51   1.501461 S    
C67   H37   1.110434 S    
O3    Cu2   1.933326 S    
O8    C4    1.284958 A    
C81   C82   1.526793 S    
C69   H47   1.111572 S    
C8    C10   1.421515 A    
C82   H72   1.110871 S    
C61   H25   1.108280 S    
C75   H61   1.112026 S    
O7    C3    1.285494 A    
C78   C79   1.526125 S    
C10   C12   1.421738 A    
O1    Cu1   1.936352 S    
C70   H44   1.110948 S    
C63   H34   1.107714 S    
C86   H92   1.111359 S    
N3    C51   1.169338 T    
C55   H11   1.110335 S    
C20   C30   1.416889 A    
C66   C67   1.525762 S    
C80   H77   1.112090 S    
C68   C69   1.529343 S    
C13   C18   1.424538 A    
C5    N1    1.360446 A    
O6    Cu2   1.942051 S    
C19   C21   1.402215 A    
C69   H48   1.108619 S    
C83   H84   1.111362 S    
C54   C55   1.525952 S    
O3    C1    1.278275 A    
O8    Cu1   1.940654 S    
C72   H54   1.107871 S    
C71   C72   1.540081 S    
C57   H20   1.102862 S    
Cu1   N4    1.982677 S    
C6    O10   1.349539 S    
C59   H28   1.111630 S    
C60   H27   1.111491 S    
C1    C35   1.422375 S    
C56   H22   1.102351 S    
C87   H89   1.111595 S    
C84   C85   1.525260 S    
C28   C80   1.526241 S    
C9    C11   1.422216 A    
C69   C70   1.525613 S    
C46   C47   1.552650 S    
C21   H1    1.083184 S    
C80   C81   1.536517 S    
C27   C29   1.417202 A    
C73   H51   1.110872 S    
C58   H18   1.110565 S    
C22   H2    1.083196 S    
C46   C50   1.546929 S    
N7    O17   1.300142 A    
C74   H63   1.109540 S    
C20   N6    1.443400 S    
C38   C83   1.527722 S    
C44   C49   1.544137 S    
C16   C18   1.431917 A    
C60   C61   1.525643 S    
N1    C7    1.363112 A    
C3    C23   1.473720 S    
C64   H32   1.110350 S    
N2    C8    1.363990 A    
C46   C62   1.530584 S    
C76   H59   1.110597 S    
C21   C23   1.400510 A    
O2    Cu2   1.936351 S    
C19   N5    1.443056 S    
C67   H38   1.110940 S    
C5    C13   1.408291 A    
C20   C22   1.401166 A    
C11   C12   1.407554 A    
C53   C54   1.537626 S    
C22   C24   1.399763 A    
O5    Cu1   1.942051 S    
C11   C13   1.410782 A    
C68   H49   1.109974 S    
C14   C17   1.419647 A    
C6    N2    1.360186 A    
C85   H79   1.110931 S    
N4    C52   1.169920 T    
C75   C76   1.528739 S    
C75   H62   1.103023 S    
C32   N8    1.457408 S    
C56   C57   1.541792 S    
C62   C63   1.532897 S    
C25   C27   1.399583 A    
C63   H33   1.111505 S    
C26   C28   1.404218 A    
N2    C29   1.437549 S    
C80   H78   1.110927 S    
C65   H42   1.111724 S    
