data_mof_unit_1248.cif
_audit_creation_date              2013-03-05T15:59:59-0500
_audit_creation_method            fapswitch 2.2
_symmetry_space_group_name_H-M    P1
_symmetry_Int_Tables_number       1
_space_group_crystal_system       triclinic
_cell_length_a                    12.599107
_cell_length_b                    13.194254
_cell_length_c                    19.093673
_cell_angle_alpha                 90.769598
_cell_angle_beta                  102.816105
_cell_angle_gamma                 82.466895
_cell_volume                      3067.86334873

loop_
_atom_site_label
_atom_site_type_symbol
_atom_site_description
_atom_site_fract_x
_atom_site_fract_y
_atom_site_fract_z
_atom_type_partial_charge
O1    O     O_R   0.366740 0.627160 0.482470 -0.625654
O2    O     O_R   0.544830 0.662520 0.505920 -0.607661
C1    C     C_R   0.439082 0.691288 0.490334 0.877061
O3    O     O_R   0.410920 0.482320 0.590130 -0.630500
O4    O     O_R   0.589010 0.517690 0.613590 -0.564113
C2    C     C_R   0.501207 0.499787 0.634462 0.948750
Zn1   Zn    Zn3+2 0.381090 0.476390 0.484340 0.991950
Zn2   Zn    Zn3+2 0.618910 0.523610 0.515660 0.969719
O5    O     O_R   0.455170 0.337480 0.494080 -0.588756
O6    O     O_R   0.633260 0.372840 0.517530 -0.642172
O7    O     O_R   0.410990 0.482310 0.386410 -0.565861
O8    O     O_R   0.589080 0.517680 0.409870 -0.656304
C3    C     C_R   0.561162 0.309053 0.508574 0.871779
C4    C     C_R   0.499644 0.498063 0.365579 0.849692
C5    C     C_R   0.454028 0.411525 0.732445 -0.306854
H1    H     H_    0.407799 0.365403 0.692455 0.207451
C6    C     C_R   0.464209 0.389307 0.804663 0.309345
C7    C     C_R   0.526065 0.448149 0.856567 -0.100354
C8    C     C_R   0.579436 0.527384 0.835861 0.042471
C9    C     C_R   0.571379 0.545935 0.762263 0.328633
C10   C     C_R   0.507358 0.488123 0.710999 -0.242236
N1    N     N_R   0.615521 0.417908 0.982899 -0.144369
N2    N     N_R   0.611200 0.418142 0.051724 -0.168548
C11   C     C_R   0.513328 0.437007 0.071202 0.289772
N3    N     N_R   0.419703 0.453052 0.019380 -0.153149
N4    N     N_R   0.423932 0.452944 0.950580 -0.121533
C12   C     C_R   0.521955 0.436643 0.931491 0.395398
C13   C     C_R   0.407921 0.468486 0.166685 -0.137811
H2    H     H_    0.331221 0.470763 0.127219 0.165808
C14   C     C_R   0.404411 0.486650 0.237981 -0.120928
H3    H     H_    0.325356 0.502186 0.252196 0.182936
C15   C     C_R   0.502221 0.485305 0.290113 -0.032112
C16   C     C_R   0.603575 0.465721 0.270309 -0.202489
H4    H     H_    0.680269 0.463358 0.309787 0.165281
C17   C     C_R   0.607162 0.447159 0.199213 -0.144442
H5    H     H_    0.686562 0.432739 0.185379 0.159486
C18   C     C_R   0.509382 0.448835 0.146799 0.079397
C19   C     C_R   0.723553 0.058443 0.485148 -0.152591
H6    H     H_    0.760960 0.212243 0.494312 0.170152
H7    H     H_    0.799503 0.032142 0.469088 0.158175
C20   C     C_R   0.599233 0.200450 0.511949 -0.049428
C21   C     C_R   0.312277 0.833504 0.520953 -0.207305
C22   C     C_R   0.305516 0.926470 0.555429 -0.104184
C23   C     C_R   0.389867 0.987672 0.561937 0.194093
C24   C     C_R   0.471859 0.964298 0.520432 0.093395
C25   C     C_R   0.477584 0.869651 0.485387 0.015836
C26   C     C_R   0.548862 0.030078 0.512489 0.045417
C27   C     C_R   0.643470 0.993325 0.485679 0.157118
C28   C     C_R   0.649720 0.896916 0.453681 0.164424
C29   C     C_R   0.561311 0.841779 0.447573 -0.174795
C30   C     C_R   0.525900 0.134645 0.520839 -0.188505
C31   C     C_R   0.701807 0.161789 0.499298 -0.194656
C32   C     C_R   0.403671 0.800906 0.492354 -0.098038
H8    H     H_    0.445905 0.166894 0.527869 0.197383
H9    H     H_    0.253652 0.781922 0.525119 0.166229
H10   H     H_    0.240538 0.945172 0.584166 0.171939
H11   H     H_    0.560141 0.774180 0.414730 0.162630
C33   C     C_R   0.093149 0.332757 0.412744 -0.333850
H12   H     H_    0.074897 0.268525 0.378385 0.196064
N5    N     N_R   0.222200 0.444680 0.463280 -0.163538
C34   C     C_R   0.798101 0.633257 0.581499 -0.062360
C35   C     C_R   0.905440 0.654397 0.607310 0.248458
C36   C     C_R   0.992372 0.591091 0.586350 0.052236
C37   C     C_R   0.966913 0.520902 0.529126 -0.027770
C38   C     C_R   0.856787 0.500105 0.508595 0.132547
C39   C     C_R   0.044602 0.469239 0.492086 -0.011629
C40   C     C_R   0.014899 0.387150 0.445545 0.104104
C41   C     C_R   0.906761 0.363270 0.430579 0.146489
C42   C     C_R   0.829424 0.422135 0.460575 -0.194413
C43   C     C_R   0.148749 0.499881 0.495555 -0.119443
C44   C     C_R   0.196819 0.361919 0.422607 0.448518
N6    N     N_R   0.776960 0.554780 0.536340 -0.151544
H13   H     H_    0.172791 0.568181 0.522310 0.166017
H14   H     H_    0.730782 0.677182 0.599539 0.223998
H15   H     H_    0.747172 0.405560 0.445344 0.212217
C45   C     C_3   0.745054 0.854496 0.421372 -0.901703
H16   H     H_    0.735367 0.777425 0.398634 0.245028
H17   H     H_    0.751710 0.905994 0.377472 0.248139
H18   H     H_    0.822293 0.847137 0.463493 0.249259
C46   C     C_3   0.397442 0.063895 0.622172 -0.844651
H19   H     H_    0.481775 0.084027 0.640803 0.251126
H20   H     H_    0.337712 0.133490 0.605197 0.241543
H21   H     H_    0.377420 0.030108 0.669903 0.273024
N7    N     N_R   0.274431 0.305662 0.387680 0.225265
O9    O     O_R   0.286867 0.340766 0.327161 -0.391516
O10   O     O_R   0.302343 0.208510 0.402215 -0.416106
C47   C     C_3   0.870026 0.279045 0.379954 -0.932456
H22   H     H_    0.781259 0.273006 0.373501 0.237902
H23   H     H_    0.883791 0.294514 0.325859 0.256726
H24   H     H_    0.916560 0.204293 0.401040 0.253221
N8    N     N_R   0.412418 0.306158 0.824351 0.221593
O11   O     O_R   0.459876 0.247950 0.879944 -0.349948
O12   O     O_R   0.324124 0.280767 0.782021 -0.368679
C48   C     C_3   0.104977 0.583531 0.636312 -0.748302
H25   H     H_    0.153830 0.507857 0.633407 0.233453
H26   H     H_    0.150104 0.645756 0.624538 0.246340
H27   H     H_    0.097147 0.589985 0.693076 0.270177
N9    N     N_R   0.925241 0.737117 0.656573 0.219125
O13   O     O_R   0.853413 0.770930 0.693795 -0.309012
O14   O     O_R   0.007611 0.787639 0.657663 -0.383203
C49   C     C_3   0.638203 0.595484 0.892019 -0.732609
H28   H     H_    0.662048 0.663276 0.868835 0.278880
H29   H     H_    0.583594 0.625427 0.928018 0.224936
H30   H     H_    0.713754 0.551119 0.924271 0.252606
N10   N     N_R   0.625767 0.624452 0.739526 0.208668
O15   O     O_R   0.732383 0.617398 0.756293 -0.343465
O16   O     O_R   0.569408 0.699558 0.698322 -0.387835

loop_
_geom_bond_atom_site_label_1
_geom_bond_atom_site_label_2
_geom_bond_distance
_ccdc_geom_bond_type
C19   H7    1.081834 S    
C47   H22   1.110978 S    
C49   H28   1.107419 S    
C8    C49   1.517118 S    
C17   H5    1.082901 S    
C6    N8    1.441632 S    
C45   H18   1.110566 S    
C3    C20   1.447791 S    
C39   C43   1.410481 A    
C24   C25   1.409888 A    
Zn1   O7    1.992101 S    
N10   O16   1.301449 A    
C36   C48   1.515840 S    
N4    C12   1.353621 A    
C13   H2    1.082823 S    
C17   C18   1.402209 A    
N7    O10   1.300724 A    
C9    N10   1.435779 S    
C46   H21   1.111458 S    
C21   C32   1.397103 A    
C14   H3    1.082894 S    
O7    C4    1.307361 A    
C33   C44   1.382114 A    
C19   C31   1.390098 A    
C5    H1    1.084323 S    
Zn1   O5    1.936117 S    
C7    C8    1.419437 A    
O5    C3    1.306938 A    
C35   N9    1.441506 S    
N7    O9    1.299249 A    
C8    C9    1.408686 A    
C41   C42   1.384869 A    
N2    C11   1.356945 A    
C20   C31   1.396801 A    
C19   C27   1.410120 A    
H6    C31   1.082086 S    
C49   H29   1.110490 S    
C34   C35   1.396104 A    
O3    Zn1   1.973354 S    
C11   C18   1.460844 S    
C24   C26   1.416726 A    
Zn2   N6    2.037603 S    
C40   C41   1.405200 A    
C23   C46   1.512854 S    
C39   C40   1.426776 A    
C11   N3    1.355592 A    
C46   H20   1.110469 S    
C4    C15   1.455508 S    
N8    O11   1.301544 A    
C26   C30   1.386560 A    
C48   H27   1.111047 S    
C33   H12   1.082005 S    
C2    C10   1.455320 S    
O1    C1    1.306623 A    
C37   C39   1.429034 A    
C22   C23   1.400242 A    
C35   C36   1.415303 A    
C21   H9    1.083702 S    
N8    O12   1.301741 A    
C33   C40   1.398428 A    
C26   C27   1.424952 A    
N5    C43   1.353084 A    
Zn2   O8    1.973354 S    
C43   H13   1.074888 S    
C6    C7    1.409821 A    
C28   C45   1.509862 S    
C45   H16   1.111141 S    
C48   H26   1.109927 S    
C34   N6    1.353889 A    
O3    C2    1.303814 A    
C27   C28   1.404188 A    
O8    C4    1.303717 A    
C28   C29   1.391447 A    
C49   H30   1.109714 S    
N9    O14   1.301244 A    
N1    C12   1.353150 A    
C47   H23   1.110394 S    
C21   C22   1.385991 A    
Zn1   N5    2.049927 S    
C23   C24   1.436444 A    
C44   N7    1.427440 S    
C5    C6    1.387906 A    
O1    Zn1   1.973831 S    
C29   H11   1.083190 S    
O2    Zn2   1.936115 S    
C7    C12   1.453629 S    
C45   H17   1.110302 S    
C46   H19   1.108973 S    
O6    C3    1.300140 A    
O4    Zn2   1.992101 S    
C34   H14   1.081331 S    
C38   N6    1.359576 A    
N10   O15   1.301053 A    
C25   C29   1.413634 A    
N5    C44   1.362484 A    
C30   H8    1.077447 S    
C15   C16   1.401949 A    
C13   C14   1.388418 A    
O2    C1    1.304715 A    
N3    N4    1.326470 A    
C37   C38   1.417647 A    
C14   C15   1.400101 A    
C1    C32   1.459230 S    
O4    C2    1.305765 A    
C13   C18   1.404026 A    
C38   C42   1.394730 A    
C25   C32   1.409709 A    
C16   C17   1.385698 A    
C16   H4    1.082795 S    
C42   H15   1.063179 S    
C48   H25   1.109672 S    
C36   C37   1.431634 A    
C22   H10   1.083914 S    
C5    C10   1.397054 A    
C9    C10   1.407671 A    
Zn2   O6    1.973831 S    
N9    O13   1.301550 A    
C47   H24   1.110383 S    
C41   C47   1.513622 S    
N1    N2    1.327204 A    
C20   C30   1.385695 A    
