data_mof_unit_3937.cif
_audit_creation_date              2013-03-05T15:40:40-0500
_audit_creation_method            fapswitch 2.2
_symmetry_space_group_name_H-M    P1
_symmetry_Int_Tables_number       1
_space_group_crystal_system       triclinic
_cell_length_a                    19.135955
_cell_length_b                    11.036223
_cell_length_c                    18.715176
_cell_angle_alpha                 89.996172
_cell_angle_beta                  89.930975
_cell_angle_gamma                 89.997523
_cell_volume                      3952.43018581

loop_
_atom_site_label
_atom_site_type_symbol
_atom_site_description
_atom_site_fract_x
_atom_site_fract_y
_atom_site_fract_z
_atom_type_partial_charge
O1    O     O_R   0.043230 0.549300 0.667990 -0.472870
O2    O     O_R   0.956770 0.549300 0.332010 -0.470962
O3    O     O_R   0.543230 0.049300 0.667990 -0.471029
O4    O     O_R   0.456770 0.049300 0.332010 -0.472759
O5    O     O_R   0.178620 0.457600 0.674100 -0.500732
O6    O     O_R   0.821380 0.457600 0.325900 -0.508011
O7    O     O_R   0.678620 0.957600 0.674100 -0.508042
O8    O     O_R   0.321380 0.957600 0.325900 -0.500512
C1    C     C_R   0.239300 0.468023 0.646813 0.588146
C2    C     C_R   0.760066 0.466752 0.352712 0.570451
C3    C     C_R   0.739934 0.966759 0.647286 0.570333
C4    C     C_R   0.260690 0.968000 0.353170 0.587839
O9    O     O_R   0.284680 0.542100 0.669460 -0.421142
O10   O     O_R   0.715320 0.542100 0.330540 -0.467884
O11   O     O_R   0.784680 0.042100 0.669460 -0.468035
O12   O     O_R   0.215320 0.042100 0.330540 -0.421488
O13   O     O_R   0.262860 0.790390 0.676650 -0.476265
O14   O     O_R   0.737140 0.790390 0.323350 -0.500221
O15   O     O_R   0.762860 0.290390 0.676650 -0.500282
O16   O     O_R   0.237140 0.290390 0.323350 -0.476297
C5    C     C_R   0.228850 0.878799 0.650600 0.564774
C6    C     C_R   0.772995 0.874163 0.352351 0.590935
C7    C     C_R   0.727002 0.374163 0.647646 0.591014
C8    C     C_R   0.271175 0.378723 0.349452 0.564567
O17   O     O_R   0.167460 0.907030 0.670940 -0.466043
O18   O     O_R   0.832540 0.907030 0.329060 -0.459263
O19   O     O_R   0.667460 0.407030 0.670940 -0.459404
O20   O     O_R   0.332540 0.407030 0.329060 -0.465904
O21   O     O_R   0.053950 0.750220 0.675100 -0.466504
O22   O     O_R   0.946050 0.750220 0.324900 -0.465139
O23   O     O_R   0.553950 0.250220 0.675100 -0.465206
O24   O     O_R   0.446050 0.250220 0.324900 -0.466608
C9    C     C_R   0.026867 0.656269 0.646499 0.606826
C10   C     C_R   0.971616 0.653696 0.355092 0.615840
C11   C     C_R   0.528385 0.153716 0.644902 0.615931
C12   C     C_R   0.473149 0.156245 0.353487 0.606880
O25   O     O_R   0.043300 0.547370 0.827390 -0.426041
O26   O     O_R   0.956700 0.547370 0.172610 -0.431568
O27   O     O_R   0.543300 0.047370 0.827390 -0.431548
O28   O     O_R   0.456700 0.047370 0.172610 -0.426046
O29   O     O_R   0.178690 0.455820 0.821860 -0.475014
O30   O     O_R   0.821310 0.455820 0.178140 -0.483679
O31   O     O_R   0.678690 0.955820 0.821860 -0.483677
O32   O     O_R   0.321310 0.955820 0.178140 -0.475059
C13   C     C_R   0.239465 0.462485 0.849012 0.566789
C14   C     C_R   0.760551 0.462812 0.150980 0.562858
C15   C     C_R   0.739449 0.962810 0.849020 0.562846
C16   C     C_R   0.260537 0.962489 0.150987 0.566729
O33   O     O_R   0.284750 0.540170 0.828860 -0.487949
O34   O     O_R   0.715250 0.540170 0.171140 -0.488989
O35   O     O_R   0.784750 0.040170 0.828860 -0.489037
O36   O     O_R   0.215250 0.040170 0.171140 -0.487876
O37   O     O_R   0.262920 0.788600 0.824420 -0.464050
O38   O     O_R   0.737080 0.788600 0.175580 -0.456962
O39   O     O_R   0.762920 0.288600 0.824420 -0.456943
O40   O     O_R   0.237080 0.288600 0.175580 -0.464015
C17   C     C_R   0.226629 0.873098 0.853405 0.603510
C18   C     C_R   0.773237 0.872814 0.146749 0.600408
C19   C     C_R   0.726763 0.372810 0.853250 0.600460
C20   C     C_R   0.273372 0.373100 0.146594 0.603428
O41   O     O_R   0.167530 0.905110 0.830340 -0.508793
O42   O     O_R   0.832470 0.905110 0.169660 -0.520783
O43   O     O_R   0.667530 0.405110 0.830340 -0.520845
O44   O     O_R   0.332470 0.405110 0.169660 -0.508811
O45   O     O_R   0.054010 0.748440 0.822860 -0.498503
O46   O     O_R   0.945990 0.748440 0.177140 -0.500681
O47   O     O_R   0.554010 0.248440 0.822860 -0.500740
O48   O     O_R   0.445990 0.248440 0.177140 -0.498483
C21   C     C_R   0.031371 0.650736 0.852677 0.579866
C22   C     C_R   0.973557 0.652331 0.151405 0.585124
C23   C     C_R   0.526443 0.152329 0.848595 0.585160
C24   C     C_R   0.468632 0.150739 0.147324 0.579861
Cr1   Cr    Cr6+3 0.113970 0.508630 0.747920 1.170591
Cr2   Cr    Cr6+3 0.886030 0.508630 0.252080 1.151047
Cr3   Cr    Cr6+3 0.613970 0.008630 0.747920 1.150848
Cr4   Cr    Cr6+3 0.386030 0.008630 0.252080 1.170762
Cr5   Cr    Cr6+3 0.269200 0.666740 0.749850 1.194962
Cr6   Cr    Cr6+3 0.730800 0.666740 0.250150 1.155294
Cr7   Cr    Cr6+3 0.769200 0.166740 0.749850 1.155097
Cr8   Cr    Cr6+3 0.230800 0.166740 0.250150 1.194951
Cr9   Cr    Cr6+3 0.112300 0.820070 0.749800 1.144380
Cr10  Cr    Cr6+3 0.887700 0.820070 0.250200 1.134221
Cr11  Cr    Cr6+3 0.612300 0.320070 0.749800 1.133931
Cr12  Cr    Cr6+3 0.387700 0.320070 0.250200 1.144381
O49   O     O_3   0.165160 0.665150 0.749190 -0.335907
O50   O     O_3   0.834840 0.665150 0.250810 -0.321723
O51   O     O_3   0.665160 0.165150 0.749190 -0.321630
O52   O     O_3   0.334840 0.165150 0.250810 -0.335889
C25   C     C_2   0.257670 0.932001 0.586258 0.227655
C26   C     C_2   0.749349 0.918072 0.421570 0.235732
C27   C     C_2   0.750640 0.418059 0.578421 0.235716
C28   C     C_2   0.242370 0.431872 0.413823 0.227493
C29   C     C_2   0.246412 0.906387 0.419332 0.002365
C30   C     C_2   0.756159 0.905423 0.581047 0.001521
C31   C     C_2   0.743841 0.405403 0.418950 0.001649
C32   C     C_2   0.253543 0.406450 0.580622 0.002818
C33   C     C_2   0.298092 0.887703 0.465238 -0.038204
C34   C     C_2   0.705025 0.861650 0.540592 -0.060791
C35   C     C_2   0.794973 0.361620 0.459409 -0.060783
C36   C     C_2   0.201814 0.387596 0.534790 -0.038886
C37   C     C_2   0.279281 0.852388 0.536597 -0.075466
C38   C     C_2   0.717879 0.837390 0.465337 -0.131714
C39   C     C_2   0.782106 0.337364 0.534662 -0.131847
C40   C     C_2   0.220529 0.352279 0.463397 -0.075268
H1    H     H_    0.352230 0.909429 0.453069 0.195923
H2    H     H_    0.653176 0.847102 0.562105 0.165288
H3    H     H_    0.846825 0.347069 0.437902 0.165403
H4    H     H_    0.147663 0.409068 0.547057 0.195751
H5    H     H_    0.269880 0.756446 0.544331 0.201520
H6    H     H_    0.704156 0.747347 0.446598 0.172589
H7    H     H_    0.795820 0.247314 0.553408 0.172567
H8    H     H_    0.229657 0.256282 0.455583 0.201831
H9    H     H_    0.192613 0.892387 0.435805 0.162760
H10   H     H_    0.808623 0.914918 0.559278 0.161901
H11   H     H_    0.691379 0.414907 0.440720 0.161955
H12   H     H_    0.307329 0.392555 0.564075 0.163258
C41   C     C_R   0.004007 0.656584 0.427980 0.072421
C42   C     C_R   0.988320 0.670185 0.577622 0.067734
C43   C     C_R   0.511730 0.170087 0.422348 0.067886
C44   C     C_R   0.496023 0.156639 0.571993 0.072412
C45   C     C_R   0.040043 0.870942 0.427048 0.206162
C46   C     C_R   0.994407 0.893034 0.569248 0.218062
C47   C     C_R   0.505840 0.392921 0.430618 0.217899
C48   C     C_R   0.460002 0.371052 0.572763 0.206101
C49   C     C_R   0.045717 0.982653 0.462488 0.167681
C50   C     C_R   0.024642 0.994554 0.535005 0.169399
C51   C     C_R   0.475559 0.494546 0.464727 0.169483
C52   C     C_R   0.454266 0.482689 0.537200 0.167619
C53   C     C_R   0.998130 0.777599 0.537059 -0.077789
C54   C     C_R   0.013293 0.768799 0.463081 -0.068973
C55   C     C_R   0.486814 0.268854 0.536836 -0.068934
C56   C     C_R   0.502010 0.277547 0.462867 -0.077705
C57   C     C_R   0.973342 0.562396 0.541628 -0.013369
C58   C     C_R   0.996551 0.550204 0.470604 -0.031025
C59   C     C_R   0.503429 0.050205 0.529409 -0.031079
C60   C     C_R   0.526635 0.062287 0.458377 -0.013360
C61   C     C_R   0.942881 0.462167 0.577050 0.265146
C62   C     C_R   0.008615 0.431213 0.444747 0.258432
C63   C     C_R   0.491335 0.931257 0.555326 0.258455
C64   C     C_R   0.557047 0.961970 0.422996 0.265164
C65   C     C_R   0.945584 0.348439 0.545585 -0.108308
C66   C     C_R   0.980526 0.332365 0.481277 -0.092203
C67   C     C_R   0.519438 0.832343 0.518878 -0.091839
C68   C     C_R   0.554345 0.848290 0.454537 -0.108082
H13   H     H_    0.921287 0.271805 0.571514 0.192727
H14   H     H_    0.983969 0.242763 0.459375 0.208748
H15   H     H_    0.515998 0.742777 0.540852 0.208720
H16   H     H_    0.578607 0.771588 0.428642 0.192621
C69   C     C_2   0.238743 0.905032 0.927315 0.272362
C70   C     C_2   0.759534 0.904404 0.073367 0.250291
C71   C     C_2   0.740472 0.404399 0.926630 0.250275
C72   C     C_2   0.261262 0.405037 0.072681 0.272377
C73   C     C_2   0.247352 0.887278 0.088887 -0.021398
C74   C     C_2   0.752629 0.891565 0.912415 -0.038713
C75   C     C_2   0.747374 0.391579 0.087587 -0.038689
C76   C     C_2   0.252656 0.387256 0.911110 -0.021346
C77   C     C_2   0.190854 0.902589 0.048751 -0.104945
C78   C     C_2   0.808773 0.913681 0.951990 -0.113964
C79   C     C_2   0.691233 0.413715 0.048007 -0.113960
C80   C     C_2   0.309151 0.402571 0.951249 -0.104969
C81   C     C_2   0.192599 0.860391 0.975162 -0.103109
C82   C     C_2   0.810469 0.876590 0.026138 -0.114349
C83   C     C_2   0.689533 0.376619 0.973863 -0.114341
C84   C     C_2   0.307402 0.360373 0.024841 -0.103114
H17   H     H_    0.146868 0.957189 0.066373 0.176816
H18   H     H_    0.852367 0.966848 0.931935 0.177541
H19   H     H_    0.647641 0.466895 0.068057 0.177558
H20   H     H_    0.353129 0.457193 0.933632 0.176795
H21   H     H_    0.151780 0.797903 0.958482 0.112057
H22   H     H_    0.858489 0.833375 0.044017 0.120880
H23   H     H_    0.641507 0.333432 0.955989 0.120911
H24   H     H_    0.348213 0.297864 0.041526 0.112043
H25   H     H_    0.289366 0.829329 0.069862 0.197750
H26   H     H_    0.711089 0.833479 0.932544 0.178185
H27   H     H_    0.788911 0.333480 0.067464 0.178202
H28   H     H_    0.210650 0.329291 0.930132 0.197757
C85   C     C_2   0.009378 0.652318 0.927560 -0.109214
C86   C     C_2   0.012383 0.660074 0.084742 -0.099072
C87   C     C_2   0.487619 0.160064 0.915258 -0.099044
C88   C     C_2   0.490629 0.152324 0.072442 -0.109212
C89   C     C_2   0.025472 0.557252 0.048028 0.205770
C90   C     C_2   0.018896 0.551945 0.969398 0.192600
C91   C     C_2   0.481130 0.051944 0.030614 0.192588
C92   C     C_2   0.474549 0.057241 0.951984 0.205775
H29   H     H_    0.012955 0.748545 0.059987 0.056537
H30   H     H_    0.000529 0.741365 0.949734 0.057792
H31   H     H_    0.499464 0.241373 0.050259 0.057805
H32   H     H_    0.487037 0.248536 0.940005 0.056521
Cl1   Cl    Cl    0.294794 0.027274 0.947274 -0.582825
Cl2   Cl    Cl    0.683453 0.987580 0.052513 -0.563194
Cl3   Cl    Cl    0.816568 0.487523 0.947475 -0.563185
Cl4   Cl    Cl    0.205222 0.527302 0.052710 -0.582894
N1    N     N_R   0.038293 0.444871 0.085816 0.151456
O53   O     O_R   0.999243 0.350447 0.073869 -0.246085
O54   O     O_R   0.081274 0.442628 0.139679 -0.238971
N2    N     N_R   0.022572 0.432604 0.938315 0.147712
O55   O     O_R   0.078561 0.367021 0.945726 -0.287054
O56   O     O_R   0.968218 0.386695 0.906558 -0.216710
N3    N     N_R   0.477474 0.932602 0.061709 0.147726
O57   O     O_R   0.421492 0.867006 0.054314 -0.287027
O58   O     O_R   0.531832 0.886718 0.093477 -0.216681
N4    N     N_R   0.461745 0.944851 0.914211 0.151438
O59   O     O_R   0.500813 0.850444 0.926165 -0.246170
O60   O     O_R   0.418758 0.942585 0.860353 -0.238924
N5    N     N_R   0.263454 0.061829 0.578927 0.097969
O61   O     O_R   0.307617 0.109682 0.534146 -0.384331
O62   O     O_R   0.233397 0.131946 0.625632 -0.263801
N6    N     N_R   0.761802 0.041776 0.442307 0.064050
O63   O     O_R   0.713638 0.101775 0.476410 -0.375890
O64   O     O_R   0.815961 0.099687 0.417807 -0.338866
N7    N     N_R   0.738185 0.541763 0.557670 0.064068
O65   O     O_R   0.786346 0.601754 0.523557 -0.375906
O66   O     O_R   0.684023 0.599681 0.582161 -0.339152
N8    N     N_R   0.236911 0.561696 0.421352 0.097317
O67   O     O_R   0.192208 0.609632 0.465550 -0.383732
O68   O     O_R   0.267915 0.631852 0.375291 -0.263632
N9    N     N_R   0.069278 0.084935 0.422206 0.107096
O69   O     O_R   0.131710 0.126635 0.432702 -0.289344
O70   O     O_R   0.036840 0.114174 0.363579 -0.256311
N10   N     N_R   0.038194 0.104973 0.574637 0.082026
O71   O     O_R   0.003581 0.131346 0.632375 -0.267442
O72   O     O_R   0.093214 0.169676 0.560674 -0.275985
N11   N     N_R   0.462308 0.605058 0.425023 0.082054
O73   O     O_R   0.496739 0.630785 0.367064 -0.266804
O74   O     O_R   0.407841 0.670951 0.439361 -0.275813
N12   N     N_R   0.430165 0.584849 0.577253 0.107465
O75   O     O_R   0.367589 0.625699 0.566437 -0.290065
O76   O     O_R   0.462172 0.614510 0.636050 -0.256165
Cl5   Cl    Cl    0.080786 0.856080 0.342036 -0.485617
Cl6   Cl    Cl    0.941914 0.909722 0.647041 -0.493716
Cl7   Cl    Cl    0.558435 0.409264 0.352867 -0.493881
Cl8   Cl    Cl    0.419224 0.356248 0.657760 -0.485373
Cl9   Cl    Cl    0.066201 0.401254 0.373073 -0.441949
Cl10  Cl    Cl    0.898287 0.477031 0.659323 -0.502367
Cl11  Cl    Cl    0.601620 0.976667 0.340700 -0.502235
Cl12  Cl    Cl    0.433706 0.901432 0.626985 -0.442172

loop_
_geom_bond_atom_site_label_1
_geom_bond_atom_site_label_2
_geom_bond_distance
_ccdc_geom_bond_type
C18   O42   1.263675 A    
C78   C82   1.447176 S    
Cr11  O51   1.986535 S    
C16   C73   1.450604 S    
O4    C12   1.285788 A    
C57   C61   1.414857 A    
N6    O64   1.300640 A    
O39   C19   1.277764 A    
C47   C56   1.410923 A    
O20   Cr12  2.051774 S    
C44   C55   1.413441 A    
O29   C13   1.271852 A    
C66   H14   1.072472 S    
C35   C39   1.454276 S    
N11   O73   1.299844 A    
C36   C40   1.436778 S    
C45   C54   1.409497 A    
C68   H16   1.080024 S    
O26   C22   1.266109 A    
C30   H10   1.088062 S    
O1    C9    1.285957 A    
C59   C60   1.407405 A    
C5    C25   1.448177 S    
N5    O61   1.301451 A    
C80   H20   1.086114 S    
C67   H15   1.072580 S    
C14   C75   1.445708 S    
O5    C1    1.273164 A    
N4    O60   1.302021 A    
O30   Cr2   1.947490 S    
O24   C12   1.277240 A    
C87   C92   1.349885 D    
O25   C21   1.255880 A    
O30   C14   1.271828 A    
C31   C35   1.328861 D    
C70   Cl2   1.765144 S    
C30   C34   1.328892 D    
C37   H5    1.083686 S    
C85   C90   1.368776 D    
C80   C84   1.454207 S    
C73   H25   1.086944 S    
O8    Cr4   1.937061 S    
O23   Cr11  1.949222 S    
C39   H7    1.086164 S    
C20   C72   1.446411 S    
C77   C81   1.454219 S    
C23   C87   1.453819 S    
O32   Cr4   1.947490 S    
C12   C43   1.493841 S    
C1    O9    1.266127 A    
O44   Cr12  2.067218 S    
O25   Cr1   2.053982 S    
C21   C85   1.462899 S    
C86   H29   1.080752 S    
C3    O11   1.264003 A    
C60   C64   1.414904 A    
C25   N5    1.443603 S    
C4    O12   1.265975 A    
O21   C9    1.277100 A    
C31   H11   1.088051 S    
N6    O63   1.301486 A    
N1    O54   1.302022 A    
C17   C69   1.446425 S    
C64   Cl11  1.767147 S    
C28   N8    1.443454 S    
O32   C16   1.271818 A    
O27   Cr3   2.053982 S    
C83   H23   1.088344 S    
Cr4   O52   1.985926 S    
C46   C53   1.411010 A    
O47   C23   1.278556 A    
O2    Cr2   2.068005 S    
C88   C91   1.368789 D    
C51   N11   1.450608 S    
C48   C52   1.404639 A    
C81   H21   1.088040 S    
O2    C10   1.262988 A    
C10   C41   1.499365 S    
C64   C68   1.387432 A    
O42   Cr10  2.067218 S    
Cr5   O49   1.991036 S    
C9    C42   1.493857 S    
O18   Cr10  2.051774 S    
O17   Cr9   2.051723 S    
C11   C44   1.499488 S    
C69   Cl1   1.763854 S    
C63   C67   1.394766 A    
C79   H19   1.086437 S    
O24   Cr12  1.949108 S    
C41   C58   1.426426 A    
C8    C28   1.448344 S    
Cr7   O51   1.991036 S    
N10   O71   1.299754 A    
C50   N10   1.450175 S    
Cr9   O49   1.986535 S    
O6    Cr2   1.937061 S    
O9    Cr5   2.059763 S    
C7    O19   1.272252 A    
N5    O62   1.300959 A    
O31   Cr3   1.947402 S    
C70   C82   1.350358 D    
O11   Cr7   2.059763 S    
C36   H4    1.087213 S    
C45   Cl5   1.778510 S    
N4    O59   1.301854 A    
O22   C10   1.301512 A    
C75   C79   1.328306 D    
O48   Cr12  1.932641 S    
Cr12  O52   1.986610 S    
C76   C80   1.328005 D    
C92   N4    1.448744 S    
C27   N7    1.439301 S    
C62   C66   1.394801 A    
C77   H17   1.086114 S    
C40   H8    1.083633 S    
O16   Cr8   1.937619 S    
N8    O67   1.301612 A    
C22   C86   1.453825 S    
O7    Cr3   1.937088 S    
C87   H32   1.080752 S    
N9    O69   1.295497 A    
C89   C90   1.478267 S    
C91   N3    1.441550 S    
C85   H30   1.080062 S    
O28   Cr4   2.053966 S    
C48   C55   1.409494 A    
O43   Cr11  2.067352 S    
O48   C24   1.288873 A    
O12   Cr8   2.059649 S    
C46   C50   1.414153 A    
O15   C7    1.273193 A    
C91   C92   1.478255 S    
C45   C49   1.404270 A    
C86   C89   1.349888 D    
C88   H31   1.080064 S    
O46   Cr10  1.932641 S    
O39   Cr7   1.941813 S    
O3    C11   1.263141 A    
O7    C3    1.279558 A    
N7    O65   1.301486 A    
C82   H22   1.088343 S    
C13   O33   1.275726 A    
O8    C4    1.273182 A    
O13   Cr5   1.937480 S    
C43   C56   1.419824 A    
C6    C26   1.454785 S    
C47   Cl7   1.777457 S    
C13   C76   1.450602 S    
C29   H9    1.085367 S    
O47   Cr11  1.932609 S    
Cr2   O50   1.985926 S    
O15   Cr7   1.937480 S    
C41   C54   1.413226 A    
C1    C32   1.438712 S    
Cr1   O49   1.986003 S    
C48   Cl8   1.778485 S    
C42   C57   1.397014 A    
C26   N6    1.439295 S    
C3    C30   1.445900 S    
Cr3   O51   1.986003 S    
O14   Cr6   1.937619 S    
N7    O66   1.300660 A    
O21   Cr9   1.949222 S    
N1    O53   1.301854 A    
N12   O76   1.301880 A    
C61   C65   1.387373 A    
C2    O10   1.263969 A    
C49   C50   1.421442 A    
O38   C18   1.277790 A    
C7    C27   1.454763 S    
C4    C29   1.438508 S    
C84   H24   1.088040 S    
C90   N2    1.441543 S    
C24   C88   1.462903 S    
C55   C56   1.417463 A    
C29   C33   1.326903 D    
C47   C51   1.414313 A    
O34   Cr6   2.056120 S    
O3    Cr3   2.067939 S    
C78   H18   1.086436 S    
C46   Cl6   1.777392 S    
C53   C54   1.417591 A    
O26   Cr2   2.053966 S    
C75   H27   1.088126 S    
C18   C70   1.441261 S    
C5    O17   1.273167 A    
C76   H28   1.086938 S    
O37   C17   1.282686 A    
O22   Cr10  1.949108 S    
O28   C24   1.255867 A    
C25   C37   1.343866 D    
O14   C6    1.273244 A    
C19   O43   1.263648 A    
O5    Cr1   1.937088 S    
C8    O20   1.273228 A    
C27   C39   1.351010 D    
N2    O55   1.300494 A    
C72   C84   1.349933 D    
O40   Cr8   1.941688 S    
C58   C62   1.418368 A    
C15   O35   1.273560 A    
N11   O74   1.298631 A    
C17   O41   1.261446 A    
C15   C74   1.445704 S    
C19   C71   1.441273 S    
N9    O70   1.301862 A    
C35   H3    1.082298 S    
C14   O34   1.273535 A    
C71   C83   1.350360 D    
C43   C60   1.397056 A    
C34   H2    1.082287 S    
N10   O72   1.298496 A    
C20   O44   1.261474 A    
C44   C59   1.426472 A    
O1    Cr1   2.067939 S    
C26   C38   1.351001 D    
O19   Cr11  2.051723 S    
C67   C68   1.387512 A    
C61   Cl10  1.767158 S    
N8    O68   1.301267 A    
C33   H1    1.087226 S    
Cr8   O52   1.991033 S    
C42   C53   1.419993 A    
C34   C38   1.454303 S    
C65   C66   1.387490 A    
C72   Cl4   1.763856 S    
Cr10  O50   1.986610 S    
Cr6   O50   1.991033 S    
C57   C58   1.407395 A    
C2    C31   1.445863 S    
O45   C21   1.288857 A    
C32   C36   1.327018 D    
O23   C11   1.301479 A    
C71   Cl3   1.765142 S    
C65   H13   1.079992 S    
O33   Cr5   2.055970 S    
C59   C63   1.418366 A    
C79   C83   1.447180 S    
O10   Cr6   2.059649 S    
C73   C77   1.328007 D    
O35   Cr7   2.055970 S    
O4    Cr4   2.068005 S    
N2    O56   1.301277 A    
C38   H6    1.086162 S    
O6    C2    1.279533 A    
C28   C40   1.343897 D    
N3    O57   1.300499 A    
O29   Cr1   1.947402 S    
O40   C20   1.282709 A    
C16   O36   1.275706 A    
C74   H26   1.088127 S    
C69   C81   1.349937 D    
O46   C22   1.278556 A    
C52   N12   1.430033 S    
N12   O75   1.295620 A    
C6    O18   1.272290 A    
C63   Cl12  1.766195 S    
N3    O58   1.301277 A    
C74   C78   1.328304 D    
O27   C23   1.266109 A    
O45   Cr9   1.932609 S    
C32   H12   1.085346 S    
C62   Cl9   1.766197 S    
O41   Cr9   2.067352 S    
C89   N1    1.448743 S    
O37   Cr5   1.941813 S    
O36   Cr8   2.056120 S    
O31   C15   1.271855 A    
O16   C8    1.270459 A    
C33   C37   1.436596 S    
C51   C52   1.421797 A    
C49   N9    1.430009 S    
O38   Cr6   1.941688 S    
O13   C5    1.270389 A    
