data_mof_unit_2395.cif
_audit_creation_date              2012-12-10T19:10:24-0500
_audit_creation_method            fapswitch 2.2
_symmetry_space_group_name_H-M    P1
_symmetry_Int_Tables_number       1
_space_group_crystal_system       triclinic
_cell_length_a                    10.609381
_cell_length_b                    9.764041
_cell_length_c                    15.743928
_cell_angle_alpha                 90.449804
_cell_angle_beta                  89.408148
_cell_angle_gamma                 89.946969
_cell_volume                      1630.78219474

loop_
_atom_site_label
_atom_site_type_symbol
_atom_type_description
_atom_site_fract_x
_atom_site_fract_y
_atom_site_fract_z
_atom_type_partial_charge
C1    C     C_R   0.257993 0.499859 0.496618 0.853982
C2    C     C_3   0.608029 0.440375 0.946974 -0.624682
C3    C     C_3   0.623531 0.454951 0.045616 -0.207089
C4    C     C_1   0.486384 0.506893 0.825504 0.055696
C5    C     C_1   0.492275 0.500961 0.175024 0.075569
C6    C     C_1   0.496815 0.499159 0.250114 -0.053863
C7    C     C_3   0.070386 0.494221 0.586230 -0.447783
C8    C     C_3   0.074283 0.371910 0.443642 -0.433527
C9    C     C_3   0.925665 0.497329 0.586473 -0.210318
C10   C     C_3   0.929380 0.366647 0.446206 -0.187648
C11   C     C_3   0.073159 0.630223 0.449609 -0.394285
C12   C     C_3   0.121485 0.499105 0.494010 0.143984
C13   C     C_3   0.878214 0.499461 0.492575 0.001184
C14   C     C_R   0.500212 0.499576 0.338510 0.928008
C15   C     C_3   0.929621 0.627861 0.445290 -0.363810
C16   C     C_3   0.383930 0.081998 0.540372 -0.146712
C17   C     C_3   0.382290 0.919363 0.538113 -0.149106
C18   C     C_3   0.502202 0.080139 0.410290 -0.260189
C19   C     C_3   0.505074 0.917774 0.410314 -0.254885
C20   C     C_3   0.613161 0.081142 0.540184 -0.231585
C21   C     C_3   0.611373 0.919990 0.542257 -0.211149
C22   C     C_R   0.741839 0.499893 0.495155 0.903883
C23   C     C_R   0.498484 0.500713 0.661599 0.945297
C24   C     C_3   0.459731 0.660525 0.053482 0.292921
C25   C     C_3   0.373936 0.406225 0.050409 0.363179
C26   C     C_3   0.374641 0.412840 0.949893 0.271241
C27   C     C_3   0.478900 0.658458 0.954044 0.289567
C28   C     C_1   0.491940 0.503412 0.750314 -0.101193
C29   C     C_3   0.487945 0.504796 0.083450 -0.195429
C30   C     C_3   0.482720 0.507693 0.917152 -0.057100
H1    H     H_    0.102544 0.723535 0.485302 0.240956
H2    H     H_    0.113723 0.637224 0.384243 0.146065
H3    H     H_    0.891917 0.724641 0.473050 0.215810
H4    H     H_    0.900412 0.627410 0.377782 0.212083
H5    H     H_    0.301650 0.115084 0.502128 0.118272
H6    H     H_    0.302172 0.890384 0.496335 0.114932
H7    H     H_    0.418522 0.116112 0.374702 0.169537
H8    H     H_    0.424778 0.877806 0.372602 0.171330
H9    H     H_    0.699489 0.114752 0.505455 0.151329
H10   H     H_    0.699124 0.881055 0.511261 0.162629
H11   H     H_    0.624183 0.123984 0.604971 0.210608
H12   H     H_    0.616569 0.883591 0.608534 0.220811
H13   H     H_    0.585934 0.119288 0.374940 0.198093
H14   H     H_    0.591989 0.881048 0.377098 0.197804
H15   H     H_    0.397526 0.310583 0.921160 0.108224
H16   H     H_    0.577869 0.690423 0.942600 0.193295
H17   H     H_    0.689586 0.483157 0.911196 0.269981
H18   H     H_    0.608502 0.330615 0.927137 0.260820
H19   H     H_    0.109658 0.579680 0.624235 0.208977
H20   H     H_    0.111503 0.376377 0.377356 0.160506
H21   H     H_    0.101830 0.398990 0.617304 0.207059
H22   H     H_    0.110905 0.275547 0.471657 0.210427
H23   H     H_    0.892276 0.400039 0.615736 0.139864
H24   H     H_    0.902282 0.276679 0.485498 0.134460
N1    N     N_3   0.499750 0.138610 0.498180 -0.094580
N2    N     N_3   0.499750 0.861390 0.498180 -0.099713
O1    O     O_R   0.314910 0.616040 0.499980 -0.632784
O2    O     O_R   0.314910 0.383960 0.499980 -0.630186
O3    O     O_R   0.500120 0.616090 0.377110 -0.619773
O4    O     O_R   0.500120 0.383910 0.377110 -0.617761
O5    O     O_R   0.685320 0.616040 0.499960 -0.627881
O6    O     O_R   0.685320 0.383960 0.499960 -0.642597
O7    O     O_R   0.500110 0.615990 0.622830 -0.591614
O8    O     O_R   0.500110 0.384010 0.622830 -0.603148
Zn1   Zn    Zn3+2 0.500150 0.654960 0.499960 0.955222
Zn2   Zn    Zn3+2 0.500150 0.345040 0.499960 0.950406
O9    O     O_3   0.414377 0.763953 0.909293 -0.584295
C31   C     C_3   0.288968 0.735367 0.886238 0.242797
H25   H     H_    0.233357 0.690993 0.938769 0.241773
H26   H     H_    0.287178 0.666687 0.829896 0.165874
C32   C     C_3   0.224140 0.868638 0.861851 -0.864980
H27   H     H_    0.278138 0.920991 0.810967 0.310127
H28   H     H_    0.127575 0.846612 0.838888 0.223691
H29   H     H_    0.216945 0.939169 0.917222 0.247783
O10   O     O_3   0.256485 0.455163 0.917584 -0.616327
C33   C     C_3   0.174040 0.342987 0.905737 0.097473
H30   H     H_    0.164290 0.281094 0.964510 0.186958
H31   H     H_    0.208979 0.275966 0.853171 0.129299
C34   C     C_3   0.044434 0.396832 0.882433 -0.720328
H32   H     H_    0.050760 0.457263 0.823017 0.237159
H33   H     H_    0.978702 0.309855 0.872517 0.230888
H34   H     H_    0.006913 0.463218 0.934474 0.286846
C35   C     C_2   0.874906 0.612201 0.642869 0.923092
O11   O     O_2   0.904868 0.731258 0.630071 -0.616249
O12   O     O_R   0.794862 0.580314 0.710956 -0.825888
H35   H     H_    0.766691 0.664479 0.744204 0.357994
C36   C     C_2   0.877603 0.336487 0.358211 0.907180
O13   O     O_2   0.805099 0.415236 0.323535 -0.607595
O14   O     O_R   0.912894 0.214693 0.317140 -0.810741
H36   H     H_    0.873051 0.204229 0.259181 0.358981
C37   C     C_2   0.357864 0.143257 0.627891 0.979279
O15   O     O_2   0.434013 0.132935 0.685256 -0.606210
O16   O     O_R   0.241866 0.206045 0.643981 -0.841959
H37   H     H_    0.234066 0.242284 0.704263 0.322787
C38   C     C_2   0.347998 0.854806 0.622593 0.964183
O17   O     O_2   0.421304 0.856414 0.681960 -0.597161
O18   O     O_R   0.227664 0.799851 0.633731 -0.821076
H38   H     H_    0.214209 0.760795 0.692491 0.326694
O19   O     O_3   0.330872 0.691616 0.074179 -0.596320
C39   C     C_3   0.300245 0.831025 0.090145 0.119572
H39   H     H_    0.335413 0.897625 0.038538 0.188037
H40   H     H_    0.339241 0.865882 0.151803 0.182132
C40   C     C_3   0.157645 0.846317 0.097637 -0.813906
H41   H     H_    0.121561 0.785421 0.151975 0.252613
H42   H     H_    0.132980 0.955655 0.108547 0.243125
H43   H     H_    0.110987 0.810331 0.038867 0.249747
O20   O     O_3   0.250423 0.453238 0.076129 -0.533643
C41   C     C_3   0.220722 0.461195 0.164298 0.150900
H44   H     H_    0.243903 0.564050 0.189879 0.169033
H45   H     H_    0.269219 0.385404 0.204287 0.142925
C42   C     C_3   0.079286 0.442297 0.175329 -0.720864
H46   H     H_    0.052321 0.336006 0.157736 0.267136
H47   H     H_    0.051527 0.462810 0.242277 0.199793
H48   H     H_    0.028116 0.515138 0.134180 0.275194
C43   C     C_2   0.387436 0.252686 0.072823 0.777125
O21   O     O_2   0.313740 0.197374 0.121848 -0.643978
O22   O     O_R   0.475505 0.170235 0.029849 -0.820289
H49   H     H_    0.476834 0.073014 0.051412 0.374161
C44   C     C_2   0.549921 0.766480 0.095383 0.797049
O23   O     O_2   0.555507 0.775928 0.172800 -0.617718
O24   O     O_R   0.621510 0.856572 0.045745 -0.790533
H50   H     H_    0.675459 0.920421 0.081112 0.361473
C45   C     C_2   0.730257 0.555030 0.067774 0.891589
O25   O     O_2   0.759232 0.572147 0.142222 -0.582466
O26   O     O_R   0.797885 0.624815 0.004737 -0.812191
H51   H     H_    0.866319 0.685766 0.028836 0.350816
C46   C     C_2   0.674847 0.319537 0.080133 1.027754
O27   O     O_2   0.640173 0.274809 0.148868 -0.620719
O28   O     O_R   0.770667 0.251124 0.034988 -0.798418
H52   H     H_    0.800107 0.165111 0.064537 0.339200

loop_
_geom_bond_atom_site_label_1
_geom_bond_atom_site_label_2
_ccdc_geom_bond_type
C19   N2    S    
C36   O13   D    
O7    Zn1   S    
O16   H37   S    
C24   O19   S    
C38   O17   D    
C24   C27   S    
O18   H38   S    
C45   O25   D    
O12   H35   S    
C14   O3    A    
C18   H7    S    
C33   H31   S    
C25   C43   S    
C16   H5    S    
C5    C6    T    
C3    C46   S    
C45   O26   S    
C6    C14   S    
N2    Zn1   S    
C41   H44   S    
C18   C19   S    
C3    C29   S    
C9    C13   S    
C24   C29   S    
C32   H29   S    
C11   C15   S    
O2    Zn2   S    
O19   C39   S    
C31   H25   S    
C43   O22   S    
O20   C41   S    
C33   C34   S    
C17   C38   S    
C17   H6    S    
C40   H43   S    
C8    H22   S    
C15   H4    S    
C26   H15   S    
C23   O7    A    
C11   H1    S    
C27   C30   S    
C21   N2    S    
C1    C12   S    
C1    O2    A    
C20   N1    S    
C22   O6    A    
C4    C28   T    
C3    C45   S    
C20   H11   S    
C5    C29   S    
C44   O24   S    
C25   C29   S    
C7    C12   S    
C10   C36   S    
O6    Zn2   S    
O9    C31   S    
C33   H30   S    
C7    H19   S    
C42   H47   S    
C37   O15   D    
C32   H28   S    
C20   H9    S    
C16   C17   S    
C2    H18   S    
C25   C26   S    
C39   C40   S    
C34   H32   S    
O8    Zn2   S    
O10   C33   S    
C46   O28   S    
C19   H8    S    
C1    O1    A    
C37   O16   S    
C35   O11   D    
C8    C12   S    
C39   H40   S    
C26   O10   S    
C40   H42   S    
C23   C28   S    
C17   N2    S    
O24   H50   S    
C18   N1    S    
C9    C35   S    
C27   H16   S    
C8    C10   S    
C23   O8    A    
C35   O12   S    
C11   H2    S    
C26   C30   S    
C13   C15   S    
O26   H51   S    
C9    H23   S    
C46   O27   D    
C8    H20   S    
N1    Zn2   S    
C19   H14   S    
C25   O20   S    
C34   H33   S    
O28   H52   S    
C7    C9    S    
C24   C44   S    
C42   H46   S    
O1    Zn1   S    
C10   C13   S    
C34   H34   S    
C44   O23   D    
C38   O18   S    
C2    H17   S    
C14   O4    A    
C41   C42   S    
C2    C30   S    
C36   O14   S    
C2    C3    S    
C16   N1    S    
C7    H21   S    
C32   H27   S    
O22   H49   S    
O3    Zn1   S    
C22   O5    A    
C21   H10   S    
C31   C32   S    
C39   H39   S    
C41   H45   S    
C13   C22   S    
C42   H48   S    
C10   H24   S    
C27   O9    S    
O4    Zn2   S    
C21   H12   S    
O5    Zn1   S    
C20   C21   S    
C16   C37   S    
C31   H26   S    
C40   H41   S    
O14   H36   S    
C18   H13   S    
C15   H3    S    
C4    C30   S    
C43   O21   D    
C11   C12   S    
