data_mof_unit_2147.cif
_audit_creation_date              2012-12-10T17:15:54-0500
_audit_creation_method            fapswitch 2.2
_symmetry_space_group_name_H-M    P1
_symmetry_Int_Tables_number       1
_space_group_crystal_system       triclinic
_cell_length_a                    10.192313
_cell_length_b                    10.6665
_cell_length_c                    10.726922
_cell_angle_alpha                 91.472373
_cell_angle_beta                  95.553136
_cell_angle_gamma                 80.042453
_cell_volume                      1143.18560661

loop_
_atom_site_label
_atom_site_type_symbol
_atom_type_description
_atom_site_fract_x
_atom_site_fract_y
_atom_site_fract_z
_atom_type_partial_charge
C1    C     C_R   0.443820 0.504414 0.266624 0.841303
C2    C     C_2   0.493521 0.437203 0.930610 -0.173071
C3    C     C_2   0.070138 0.491913 0.489455 -0.004246
C4    C     C_R   0.500513 0.260572 0.495671 0.875551
C5    C     C_2   0.923003 0.517559 0.505095 -0.127865
C6    C     C_R   0.556309 0.485625 0.732616 1.020622
C7    C     C_R   0.499725 0.739552 0.505438 1.012447
C8    C     C_R   0.606526 0.124587 0.717550 -0.146605
C9    C     C_R   0.644865 0.060986 0.830059 -0.236544
C10   C     C_R   0.622294 0.937550 0.841437 -0.219464
C11   C     C_R   0.562660 0.875960 0.739515 0.538945
C12   C     C_R   0.551129 0.062901 0.611710 0.007965
C13   C     C_R   0.537403 0.934975 0.619632 -0.058551
C14   C     C_3   0.528228 0.154783 0.204610 -0.783424
C15   C     C_3   0.199983 0.423814 0.069295 -0.800264
C16   C     C_3   0.100492 0.607642 0.755849 -0.769974
C17   C     C_3   0.399260 0.791607 0.817178 -0.309847
C18   C     C_3   0.494105 0.815437 0.201370 -0.769862
C19   C     C_R   0.506368 0.127300 0.498636 -0.171147
C20   C     C_R   0.462265 0.065663 0.389396 0.169911
C21   C     C_R   0.456808 0.937259 0.393844 0.156627
C22   C     C_R   0.495214 0.873057 0.508088 -0.235917
C23   C     C_2   0.411548 0.488839 0.133047 0.047033
C24   C     C_2   0.512378 0.441608 0.064611 -0.196756
C25   C     C_2   0.589142 0.463709 0.864722 -0.373745
H1    H     H_    0.881652 0.594258 0.565665 0.203544
H2    H     H_    0.349228 0.212741 0.283373 0.216690
H3    H     H_    0.488634 0.176716 0.106107 0.245931
H4    H     H_    0.608991 0.070447 0.205243 0.238164
H5    H     H_    0.572528 0.236113 0.245443 0.240338
H6    H     H_    0.227724 0.606722 0.117760 0.229666
H7    H     H_    0.101052 0.457466 0.017322 0.238316
H8    H     H_    0.183976 0.394272 0.164500 0.237124
H9    H     H_    0.251427 0.340430 0.018311 0.250879
H10   H     H_    0.163830 0.722239 0.630522 0.245798
H11   H     H_    0.033797 0.535580 0.754850 0.240457
H12   H     H_    0.106415 0.418177 0.423442 0.107491
H13   H     H_    0.058824 0.690299 0.813445 0.224104
H14   H     H_    0.200827 0.565489 0.799558 0.256068
H15   H     H_    0.319056 0.845645 0.751883 0.160274
H16   H     H_    0.410148 0.845403 0.906736 0.158722
H17   H     H_    0.367157 0.701817 0.840405 0.212809
H18   H     H_    0.332806 0.819393 0.306213 0.222139
H19   H     H_    0.440482 0.765295 0.125972 0.221074
H20   H     H_    0.573459 0.744940 0.251011 0.250181
H21   H     H_    0.540480 0.886768 0.156565 0.251506
H22   H     H_    0.884064 0.375392 0.392634 0.157255
H23   H     H_    0.622242 0.221847 0.714090 0.144078
H24   H     H_    0.688007 0.109124 0.909865 0.162952
H25   H     H_    0.645690 0.890946 0.931333 0.151202
H26   H     H_    0.396106 0.425421 0.886022 0.203588
H27   H     H_    0.614624 0.415924 0.106964 0.165889
H28   H     H_    0.687478 0.474141 0.908522 0.157170
N1    N     N_2   0.157290 0.551390 0.551110 -0.029503
N2    N     N_2   0.842740 0.448550 0.448960 -0.212444
N3    N     N_2   0.420379 0.132328 0.274984 -0.283959
N4    N     N_2   0.277761 0.525542 0.077808 -0.310714
N5    N     N_2   0.109655 0.649197 0.630067 -0.248544
N6    N     N_2   0.400183 0.876243 0.286480 -0.290072
O1    O     O_R   0.568950 0.489660 0.307530 -0.631516
O2    O     O_R   0.348880 0.522640 0.340350 -0.618912
O3    O     O_R   0.610060 0.300270 0.483590 -0.616556
O4    O     O_R   0.389990 0.333260 0.516410 -0.628890
O5    O     O_R   0.651120 0.477360 0.659650 -0.611598
O6    O     O_R   0.431050 0.510340 0.692470 -0.604873
O7    O     O_R   0.610010 0.666740 0.483590 -0.613465
O8    O     O_R   0.389940 0.699730 0.516410 -0.622778
O9    O     O_3   0.520954 0.762832 0.761019 -0.636531
Zn1   Zn    Zn3+2 0.646940 0.477980 0.478090 0.932898
Zn2   Zn    Zn3+2 0.353060 0.522020 0.521910 0.940927

loop_
_geom_bond_atom_site_label_1
_geom_bond_atom_site_label_2
_ccdc_geom_bond_type
O2    Zn2   S    
C24   H27   S    
C14   N3    S    
C23   C24   D    
C8    H23   S    
C21   N6    S    
C18   H19   S    
C7    C22   S    
C11   C13   A    
C9    C10   A    
C15   H9    S    
C19   C20   A    
N1    Zn2   S    
O4    Zn2   S    
H18   N6    S    
C8    C12   A    
O8    Zn2   S    
H6    N4    S    
N1    N5    S    
C15   H7    S    
C10   H25   S    
C16   N5    S    
O5    Zn1   S    
C16   H11   S    
C7    O7    A    
C12   C13   A    
C15   N4    S    
C4    O4    A    
N2    Zn1   S    
O1    Zn1   S    
C14   H5    S    
H10   N5    S    
C18   H21   S    
C12   C19   A    
C15   H8    S    
C13   C22   A    
C1    C23   S    
C2    C25   D    
C20   N3    S    
C2    C24   S    
H2    N3    S    
C3    N1    D    
C17   H16   S    
C6    C25   S    
C16   H13   S    
C10   C11   A    
C16   H14   S    
C7    O8    A    
O6    Zn2   S    
O7    Zn1   S    
C18   H20   S    
C4    O3    A    
C18   N6    S    
C17   H17   S    
C9    H24   S    
C20   C21   A    
C3    H12   S    
H22   N2    S    
C2    H26   S    
C1    O1    A    
C6    O5    A    
C23   N4    S    
C11   O9    S    
C17   O9    S    
C14   H4    S    
C14   H3    S    
C21   C22   A    
C4    C19   S    
C5    N2    D    
C6    O6    A    
C5    H1    S    
O3    Zn1   S    
C25   H28   S    
C8    C9    A    
C3    C5    S    
C17   H15   S    
C1    O2    A    
