data_mof_unit_365.cif
_audit_creation_date              2012-12-10T20:48:17-0500
_audit_creation_method            fapswitch 2.2
_symmetry_space_group_name_H-M    P1
_symmetry_Int_Tables_number       1
_space_group_crystal_system       triclinic
_cell_length_a                    10.780445
_cell_length_b                    8.917225
_cell_length_c                    8.117814
_cell_angle_alpha                 90.076173
_cell_angle_beta                  89.978999
_cell_angle_gamma                 89.861636
_cell_volume                      780.375865471

loop_
_atom_site_label
_atom_site_type_symbol
_atom_type_description
_atom_site_fract_x
_atom_site_fract_y
_atom_site_fract_z
_atom_type_partial_charge
C1    C     C_R   0.499306 0.218069 0.499931 0.959329
C2    C     C_1   0.499688 0.934734 0.500133 -0.172547
C3    C     C_3   0.074039 0.633347 0.656506 0.213026
C4    C     C_3   0.925721 0.611707 0.671628 0.199588
C5    C     C_3   0.122278 0.522906 0.507907 -0.322149
C6    C     C_3   0.879068 0.518586 0.508999 -0.309067
C7    C     C_3   0.124640 0.259816 0.677027 -0.889171
C8    C     C_3   0.143189 0.718800 0.254777 -0.880799
C9    C     C_3   0.862091 0.235558 0.623093 -0.859528
C10   C     C_3   0.870876 0.753586 0.302469 -0.898577
C11   C     C_3   0.141523 0.610078 0.827634 -0.688305
C12   C     C_R   0.258222 0.514807 0.501405 1.003862
C13   C     C_3   0.110810 0.800612 0.624493 -0.881943
C14   C     C_3   0.892649 0.532334 0.840270 -0.658387
C15   C     C_3   0.854582 0.765282 0.692385 -0.837073
C16   C     C_R   0.742521 0.509726 0.501583 0.978424
C17   C     C_R   0.499923 0.781911 0.500076 0.874713
C18   C     C_1   0.499454 0.065212 0.499933 -0.158175
C19   C     C_3   0.075062 0.352264 0.527873 0.632776
C20   C     C_3   0.072230 0.581942 0.332198 0.653371
C21   C     C_3   0.930117 0.349402 0.508822 0.632121
C22   C     C_3   0.926849 0.595890 0.341251 0.645314
F1    F     F_    0.124545 0.269164 0.397906 -0.545898
F2    F     F_    0.096165 0.470789 0.215507 -0.538785
F3    F     F_    0.905208 0.286786 0.355388 -0.524237
F4    F     F_    0.881501 0.512253 0.209854 -0.567344
H1    H     H_    0.107744 0.138947 0.653736 0.254970
H2    H     H_    0.864066 0.770060 0.167220 0.259127
H3    H     H_    0.774944 0.765843 0.349690 0.235787
H4    H     H_    0.925352 0.849871 0.344804 0.220364
H5    H     H_    0.236048 0.659456 0.832775 0.242500
H6    H     H_    0.093336 0.673942 0.924997 0.232768
H7    H     H_    0.151626 0.493457 0.868188 0.264367
H8    H     H_    0.063960 0.853290 0.520684 0.246125
H9    H     H_    0.088449 0.873189 0.731993 0.252173
H10   H     H_    0.212560 0.811820 0.606484 0.228096
H11   H     H_    0.902593 0.612259 0.943236 0.267400
H12   H     H_    0.226294 0.266748 0.691252 0.270089
H13   H     H_    0.797746 0.491951 0.859142 0.271112
H14   H     H_    0.953321 0.439661 0.873410 0.239131
H15   H     H_    0.866169 0.846450 0.593324 0.227473
H16   H     H_    0.753410 0.749661 0.708117 0.258329
H17   H     H_    0.886151 0.825576 0.804646 0.238029
H18   H     H_    0.080532 0.281873 0.795833 0.219851
H19   H     H_    0.213913 0.678361 0.165532 0.273288
H20   H     H_    0.084109 0.794959 0.181583 0.231138
H21   H     H_    0.200048 0.784701 0.340226 0.213937
H22   H     H_    0.762082 0.229287 0.592516 0.244937
H23   H     H_    0.898517 0.120978 0.599623 0.247386
H24   H     H_    0.869995 0.255118 0.756009 0.221588
N1    N     N_1   0.500000 0.500030 0.073640 -0.014729
N2    N     N_1   0.500000 0.500030 0.926360 -0.035065
O1    O     O_R   0.500000 0.285340 0.636850 -0.628996
O2    O     O_R   0.500000 0.285340 0.363150 -0.586047
O3    O     O_R   0.314790 0.499970 0.636880 -0.657026
O4    O     O_R   0.314790 0.499970 0.363120 -0.553074
O5    O     O_R   0.685210 0.499970 0.636880 -0.662411
O6    O     O_R   0.685210 0.499970 0.363120 -0.530222
O7    O     O_R   0.500000 0.714650 0.636900 -0.636059
O8    O     O_R   0.500000 0.714650 0.363100 -0.632696
Zn1   Zn    Zn3+2 0.500000 0.499990 0.682780 0.959335
Zn2   Zn    Zn3+2 0.500000 0.499990 0.317220 1.056484

loop_
_geom_bond_atom_site_label_1
_geom_bond_atom_site_label_2
_ccdc_geom_bond_type
O6    Zn2   S    
C19   F1    S    
C1    O2    A    
O5    Zn1   S    
C5    C19   S    
C2    C18   T    
C10   H4    S    
C7    H1    S    
C11   H5    S    
C16   O5    A    
C4    C15   S    
C3    C4    S    
C8    H21   S    
C15   H17   S    
C13   H8    S    
C5    C20   S    
C16   O6    A    
C7    H18   S    
C10   C22   S    
C2    C17   S    
C10   H3    S    
C9    C21   S    
C1    C18   S    
C12   O4    A    
N1    Zn2   S    
O1    Zn1   S    
C17   O7    A    
O3    Zn1   S    
O8    Zn2   S    
C8    C20   S    
C7    H12   S    
C20   C22   S    
C11   H6    S    
C13   H9    S    
C7    C19   S    
N2    Zn1   S    
C4    C14   S    
O4    Zn2   S    
O7    Zn1   S    
C12   O3    A    
C3    C11   S    
C5    C12   S    
C17   O8    A    
C6    C16   S    
N1    N2    T    
C6    C22   S    
C3    C5    S    
C9    H22   S    
C11   H7    S    
C9    H23   S    
C15   H15   S    
C13   H10   S    
C4    C6    S    
C22   F4    S    
C10   H2    S    
C1    O1    A    
C8    H19   S    
C21   F3    S    
O2    Zn2   S    
C8    H20   S    
C19   C21   S    
C14   H13   S    
C6    C21   S    
C14   H14   S    
C9    H24   S    
C20   F2    S    
C15   H16   S    
C14   H11   S    
C3    C13   S    
