data_mof_unit_2046.cif
_audit_creation_date              2012-12-10T20:45:32-0500
_audit_creation_method            fapswitch 2.2
_symmetry_space_group_name_H-M    P1
_symmetry_Int_Tables_number       1
_space_group_crystal_system       triclinic
_cell_length_a                    10.804286
_cell_length_b                    10.636741
_cell_length_c                    9.883605
_cell_angle_alpha                 87.015978
_cell_angle_beta                  91.415215
_cell_angle_gamma                 90.405271
_cell_volume                      1133.94236418

loop_
_atom_site_label
_atom_site_type_symbol
_atom_type_description
_atom_site_fract_x
_atom_site_fract_y
_atom_site_fract_z
_atom_type_partial_charge
C1    C     C_R   0.502563 0.259953 0.503319 0.874805
C2    C     C_R   0.209226 0.616348 0.981182 -0.186930
C3    C     C_R   0.931192 0.528549 0.379689 -0.194164
C4    C     C_R   0.873010 0.505727 0.503853 -0.078126
C5    C     C_R   0.943249 0.488591 0.625319 0.001889
C6    C     C_R   0.069692 0.489336 0.618442 -0.249546
C7    C     C_R   0.127849 0.508857 0.494682 -0.098965
C8    C     C_R   0.058531 0.531442 0.373344 0.033644
C9    C     C_R   0.872492 0.571454 0.841670 -0.110016
C10   C     C_R   0.830720 0.551801 0.973832 -0.165930
C11   C     C_R   0.806125 0.429662 0.025836 -0.066663
C12   C     C_R   0.260171 0.503222 0.497913 0.861010
C13   C     C_R   0.826947 0.326819 0.947315 -0.071257
C14   C     C_R   0.869776 0.345948 0.815484 -0.121793
C15   C     C_R   0.891191 0.468476 0.761544 0.121116
C16   C     C_R   0.611050 0.061459 0.509259 -0.068867
C17   C     C_R   0.499765 0.127182 0.508783 0.031199
C18   C     C_R   0.387687 0.066894 0.477717 -0.216963
C19   C     C_R   0.385860 0.937185 0.468032 -0.195469
C20   C     C_R   0.496920 0.871277 0.485831 -0.048152
C21   C     C_R   0.609343 0.933787 0.494017 -0.108971
C22   C     C_3   0.714795 0.910031 0.593463 0.288536
C23   C     C_R   0.496247 0.739439 0.496269 0.869376
C24   C     C_3   0.716614 0.050881 0.611718 0.128982
C25   C     C_R   0.445583 0.403656 0.075254 0.207894
C26   C     C_R   0.540454 0.601807 0.067426 -0.132911
C27   C     C_R   0.540653 0.601755 0.923598 -0.099082
C28   C     C_R   0.444606 0.404265 0.932686 0.162917
C29   C     C_3   0.481457 0.270227 0.935621 -0.428484
C30   C     C_3   0.482533 0.268936 0.088774 -0.514309
C31   C     C_R   0.740173 0.501215 0.501643 0.884254
C32   C     C_R   0.220851 0.703463 0.081632 -0.120963
C33   C     C_R   0.173859 0.675155 0.210163 -0.197553
C34   C     C_R   0.113608 0.559591 0.238870 0.040348
C35   C     C_R   0.107382 0.469636 0.139583 0.523899
C36   C     C_R   0.153597 0.499526 0.010372 -0.250919
H1    H     H_    0.245315 0.638370 0.881479 0.169814
H2    H     H_    0.772449 0.414366 0.127550 0.149969
H3    H     H_    0.810518 0.232295 0.989091 0.169375
H4    H     H_    0.887370 0.265738 0.755827 0.154363
H5    H     H_    0.302171 0.119420 0.465477 0.131278
H6    H     H_    0.298602 0.888296 0.453411 0.126731
H7    H     H_    0.685191 0.852466 0.684368 0.155587
H8    H     H_    0.801984 0.100404 0.577026 0.123049
H9    H     H_    0.576954 0.682355 0.118005 0.145939
H10   H     H_    0.266616 0.792855 0.060062 0.146392
H11   H     H_    0.577885 0.682234 0.866566 0.156426
H12   H     H_    0.408719 0.209082 0.891567 0.212435
H13   H     H_    0.574948 0.262731 0.894895 0.275065
H14   H     H_    0.409486 0.207532 0.134454 0.195230
H15   H     H_    0.576560 0.255368 0.135372 0.222434
H16   H     H_    0.185907 0.742640 0.287504 0.135823
H17   H     H_    0.147297 0.430974 0.933735 0.136878
H18   H     H_    0.877745 0.547230 0.286786 0.157706
H19   H     H_    0.122949 0.472833 0.711436 0.165135
H20   H     H_    0.891407 0.666374 0.802198 0.159099
H21   H     H_    0.816994 0.631269 0.035757 0.126508
N1    N     N_R   0.499160 0.499140 0.142800 -0.104046
N2    N     N_R   0.499160 0.499180 0.857150 -0.105189
O1    O     O_R   0.500020 0.316790 0.614690 -0.588172
O2    O     O_R   0.500000 0.316760 0.385350 -0.636483
O3    O     O_R   0.316770 0.500030 0.614670 -0.630897
O4    O     O_R   0.316750 0.499990 0.385330 -0.621879
O5    O     O_R   0.500000 0.683240 0.614650 -0.631154
O6    O     O_R   0.499980 0.683210 0.385310 -0.623441
O7    O     O_R   0.683250 0.500010 0.614670 -0.600150
O8    O     O_R   0.683230 0.499970 0.385330 -0.639723
Zn1   Zn    Zn3+2 0.500010 0.500020 0.653130 0.960585
Zn2   Zn    Zn3+2 0.499990 0.499980 0.346870 0.933850
O9    O     O_3   0.828174 0.864069 0.545815 -0.619252
C37   C     C_3   0.846075 0.888443 0.405848 0.131882
H22   H     H_    0.823827 0.987288 0.371978 0.137048
H23   H     H_    0.788880 0.822156 0.346845 0.153122
C38   C     C_3   0.981292 0.867243 0.378412 -0.876710
H24   H     H_    0.009028 0.773066 0.420518 0.273204
H25   H     H_    0.996443 0.874473 0.267607 0.219315
H26   H     H_    0.039428 0.937861 0.429500 0.253996
Cl1   Cl    Cl    0.675450 0.080708 0.779586 -0.733676
O10   O     O_3   0.052046 0.354237 0.168511 -0.625918
C39   C     C_3   0.144392 0.260970 0.178546 0.090124
H27   H     H_    0.220378 0.286258 0.250847 0.153193
H28   H     H_    0.183200 0.245874 0.077456 0.138991
C40   C     C_3   0.087115 0.138156 0.231255 -0.861530
H29   H     H_    0.012410 0.108489 0.160311 0.264659
H30   H     H_    0.159097 0.063939 0.240734 0.209777
H31   H     H_    0.047481 0.150817 0.332243 0.259400

loop_
_geom_bond_atom_site_label_1
_geom_bond_atom_site_label_2
_ccdc_geom_bond_type
C31   O7    A    
O7    Zn1   S    
C30   H15   S    
C16   C21   A    
C19   C20   A    
C6    H19   S    
C7    C8    A    
C29   H13   S    
C25   C28   A    
C31   O8    A    
C26   C27   A    
C38   H25   S    
O5    Zn1   S    
C28   C29   S    
C18   C19   A    
C5    C6    A    
C3    H18   S    
C2    C36   A    
C2    C32   A    
C34   C35   A    
C36   H17   S    
C26   H9    S    
C35   C36   A    
C16   C17   A    
C38   H26   S    
O9    C37   S    
C9    C10   A    
C19   H6    S    
C30   H14   S    
C16   C24   S    
C21   C22   S    
C39   C40   S    
C33   C34   A    
C7    C12   S    
C5    C15   S    
C38   H24   S    
C29   H12   S    
O4    Zn2   S    
C10   H21   S    
C39   H28   S    
C3    C8    A    
C18   H5    S    
C37   H23   S    
C12   O4    A    
C39   H27   S    
C33   H16   S    
C11   H2    S    
C29   C30   S    
N2    Zn1   S    
C12   O3    A    
C40   H29   S    
C20   C23   S    
C17   C18   A    
C9    H20   S    
C8    C34   S    
C26   N1    A    
C24   Cl1   S    
C23   O5    A    
C40   H30   S    
C24   H8    S    
C22   C24   S    
C1    O1    A    
C25   N1    A    
C3    C4    A    
C28   N2    A    
C27   H11   S    
C25   C30   S    
C32   H10   S    
C4    C5    A    
C1    O2    A    
C37   C38   S    
N1    Zn2   S    
C6    C7    A    
C1    C17   S    
O3    Zn1   S    
O2    Zn2   S    
C32   C33   A    
C23   O6    A    
C9    C15   A    
C37   H22   S    
C27   N2    A    
C11   C13   A    
C2    H1    S    
O6    Zn2   S    
C35   O10   S    
C13   H3    S    
C4    C31   S    
C10   C11   A    
C14   H4    S    
O10   C39   S    
C40   H31   S    
C20   C21   A    
O1    Zn1   S    
C14   C15   A    
O8    Zn2   S    
C13   C14   A    
C22   O9    S    
C22   H7    S    
