data_mof_unit_1766.cif
_audit_creation_date              2012-12-10T17:11:07-0500
_audit_creation_method            fapswitch 2.2
_symmetry_space_group_name_H-M    P1
_symmetry_Int_Tables_number       1
_space_group_crystal_system       triclinic
_cell_length_a                    10.026226
_cell_length_b                    10.719233
_cell_length_c                    16.732284
_cell_angle_alpha                 90.613526
_cell_angle_beta                  85.845456
_cell_angle_gamma                 92.556094
_cell_volume                      1791.71597892

loop_
_atom_site_label
_atom_site_type_symbol
_atom_type_description
_atom_site_fract_x
_atom_site_fract_y
_atom_site_fract_z
_atom_type_partial_charge
C1    C     C_R   0.502952 0.737066 0.502089 0.902779
C2    C     C_R   0.354020 0.533555 0.784084 -0.231209
C3    C     C_R   0.417527 0.538752 0.138193 -0.057153
C4    C     C_R   0.410448 0.512359 0.219144 -0.230750
C5    C     C_R   0.652788 0.535914 0.218079 -0.198248
C6    C     C_R   0.659634 0.562118 0.136711 -0.175175
C7    C     C_R   0.541782 0.567590 0.097449 0.211992
C8    C     C_2   0.464880 0.664798 0.977823 0.490971
C9    C     C_2   0.549945 0.592027 0.012003 -0.319109
C10   C     C_R   0.527744 0.513374 0.259960 -0.040069
C11   C     C_2   0.605869 0.069356 0.475119 -0.257774
C12   C     C_R   0.482435 0.506713 0.653037 0.863433
C13   C     C_2   0.490022 0.128296 0.482529 0.312516
C14   C     C_2   0.606011 0.935079 0.468845 -0.127915
C15   C     C_2   0.511135 0.868064 0.510784 -0.249866
C16   C     C_2   0.074833 0.412842 0.466298 -0.108728
C17   C     C_2   0.927756 0.424774 0.456192 0.035238
C18   C     C_R   0.496943 0.261645 0.496875 0.794414
C19   C     C_R   0.517864 0.500593 0.346678 0.878726
C20   C     C_R   0.474396 0.547584 0.736379 -0.100462
C21   C     C_R   0.583606 0.615522 0.765421 -0.157064
C22   C     C_R   0.574137 0.666283 0.841766 -0.281679
C23   C     C_R   0.456954 0.646173 0.891286 -0.064618
C24   C     C_R   0.345267 0.581130 0.861998 0.408988
H1    H     H_    0.676530 0.630123 0.729241 0.164711
H2    H     H_    0.756277 0.580498 0.104739 0.154016
H3    H     H_    0.702654 0.118415 0.477765 0.146601
H4    H     H_    0.684527 0.891664 0.431490 0.153049
H5    H     H_    0.438865 0.909522 0.552995 0.153637
H6    H     H_    0.122205 0.330700 0.441556 0.130948
H7    H     H_    0.108288 0.584845 0.507341 0.214227
H8    H     H_    0.883122 0.367915 0.410314 0.084076
H9    H     H_    0.312986 0.493054 0.249855 0.164785
H10   H     H_    0.744668 0.536260 0.248373 0.158850
H11   H     H_    0.623246 0.540731 0.975202 0.143697
H12   H     H_    0.326098 0.535697 0.107358 0.196000
H13   H     H_    0.268211 0.483289 0.761542 0.188037
H14   H     H_    0.661144 0.714633 0.864299 0.161170
N1    N     N_2   0.147950 0.498670 0.499150 -0.171753
N2    N     N_2   0.852290 0.498640 0.499130 0.057402
O1    O     O_R   0.386960 0.680940 0.500010 -0.614700
O2    O     O_R   0.613100 0.680900 0.499990 -0.656986
O3    O     O_R   0.373570 0.500040 0.615810 -0.606760
O4    O     O_R   0.599710 0.500000 0.615790 -0.596022
O5    O     O_R   0.386900 0.319100 0.500010 -0.617420
O6    O     O_R   0.613040 0.319060 0.499990 -0.624635
O7    O     O_R   0.400290 0.500000 0.384210 -0.609710
O8    O     O_R   0.626430 0.499960 0.384190 -0.632911
Zn1   Zn    Zn3+2 0.349000 0.500030 0.500020 0.950558
Zn2   Zn    Zn3+2 0.651000 0.499970 0.499980 0.964713
O9    O     O_3   0.371668 0.067077 0.460592 -0.588557
C25   C     C_3   0.264883 0.079076 0.520171 0.124378
H15   H     H_    0.210459 0.164509 0.510142 0.177104
H16   H     H_    0.299299 0.081433 0.582113 0.110050
C26   C     C_3   0.164148 0.969382 0.513519 -0.857006
H17   H     H_    0.210760 0.879970 0.524833 0.261499
H18   H     H_    0.078102 0.980367 0.558294 0.208457
H19   H     H_    0.126547 0.966036 0.452680 0.262281
O10   O     O_3   0.900463 0.534382 0.569492 -0.527264
C27   C     C_3   0.875804 0.661913 0.581134 0.197458
H20   H     H_    0.770031 0.674098 0.601462 0.182436
H21   H     H_    0.901485 0.716661 0.525387 0.112869
C28   C     C_3   0.960850 0.714889 0.646332 -0.918634
H22   H     H_    0.068907 0.708627 0.627692 0.259297
H23   H     H_    0.939013 0.814471 0.657568 0.215317
H24   H     H_    0.937816 0.662087 0.702775 0.276520
Cl1   Cl    Cl    0.197588 0.548449 0.923142 -0.643429
O11   O     O_3   0.373893 0.733701 0.024879 -0.587419
C29   C     C_3   0.344655 0.843947 0.985385 0.134296
H25   H     H_    0.281274 0.821964 0.934756 0.173481
H26   H     H_    0.438138 0.896333 0.962701 0.123055
C30   C     C_3   0.267356 0.927774 0.044316 -0.780984
H27   H     H_    0.328289 0.952375 0.095537 0.256982
H28   H     H_    0.243633 0.014897 0.014018 0.208360
H29   H     H_    0.172382 0.878953 0.067186 0.264635

loop_
_geom_bond_atom_site_label_1
_geom_bond_atom_site_label_2
_ccdc_geom_bond_type
C29   C30   S    
C23   C24   A    
C28   H23   S    
C8    O11   S    
C6    C7    A    
C1    C15   S    
C11   H3    S    
C26   H18   S    
O4    Zn2   S    
O6    Zn2   S    
C25   C26   S    
O5    Zn1   S    
C10   C19   S    
C26   H17   S    
C5    H10   S    
C12   C20   S    
O8    Zn2   S    
C28   H24   S    
O10   C27   S    
O7    Zn1   S    
N2    O10   S    
C21   C22   A    
C20   C21   A    
C11   C13   D    
C2    H13   S    
C30   H29   S    
C6    H2    S    
C13   C18   S    
O2    Zn2   S    
C27   C28   S    
N2    Zn2   S    
C5    C6    A    
C3    H12   S    
C27   H21   S    
N1    Zn1   S    
C25   H16   S    
C15   H5    S    
C12   O3    A    
C3    C7    A    
C22   C23   A    
C2    C24   A    
C29   H25   S    
C11   C14   S    
C19   O7    A    
C16   C17   S    
C4    H9    S    
C16   N1    D    
C2    C20   A    
O9    C25   S    
C22   H14   S    
C18   O5    A    
C18   O6    A    
C1    O2    A    
C5    C10   A    
C8    C23   S    
C25   H15   S    
C30   H27   S    
C30   H28   S    
C26   H19   S    
O1    Zn1   S    
C29   H26   S    
C17   H8    S    
C7    C9    S    
C14   C15   D    
C12   O4    A    
C9    H11   S    
C21   H1    S    
C16   H6    S    
C19   O8    A    
C24   Cl1   S    
C14   H4    S    
C13   O9    S    
C4    C10   A    
O11   C29   S    
C27   H20   S    
O3    Zn1   S    
C3    C4    A    
C1    O1    A    
H7    N1    S    
C8    C9    D    
C17   N2    D    
C28   H22   S    
