data_mof_unit_4474.cif
_audit_creation_date              2012-12-11T15:55:57-0500
_audit_creation_method            fapswitch 2.2
_symmetry_space_group_name_H-M    P1
_symmetry_Int_Tables_number       1
_space_group_crystal_system       triclinic
_cell_length_a                    11.083363
_cell_length_b                    10.933799
_cell_length_c                    18.747426
_cell_angle_alpha                 90.6228
_cell_angle_beta                  90.857298
_cell_angle_gamma                 59.693044
_cell_volume                      1961.15290288

loop_
_atom_site_label
_atom_site_type_symbol
_atom_type_description
_atom_site_fract_x
_atom_site_fract_y
_atom_site_fract_z
_atom_type_partial_charge
C1    C     C_R   0.361134 0.765102 0.395472 0.541484
C2    C     C_R   0.229208 0.423832 0.203508 -0.157924
C3    C     C_R   0.238480 0.423764 0.277217 -0.033051
C4    C     C_R   0.391279 0.357054 0.386068 0.544309
C5    C     C_R   0.920881 0.686546 0.423586 0.286610
C6    C     C_R   0.940707 0.745689 0.361799 -0.101322
C7    C     C_R   0.034683 0.658408 0.309877 -0.143214
C8    C     C_R   0.110339 0.510935 0.319308 0.029889
C9    C     C_R   0.371446 0.346438 0.309763 -0.005060
C10   C     C_R   0.944891 0.307131 0.194344 0.020504
C11   C     C_R   0.993081 0.192600 0.241568 0.005985
C12   C     C_R   0.610208 0.199397 0.149228 0.047731
C13   C     C_R   0.943839 0.212753 0.310816 0.002797
C14   C     C_R   0.818897 0.464441 0.291621 -0.142611
C15   C     C_R   0.868550 0.444538 0.222868 -0.152188
C16   C     C_R   0.778213 0.378818 0.403206 0.553795
C17   C     C_3   0.995435 0.055726 0.235422 -0.268733
C18   C     C_3   0.940987 0.078418 0.311099 -0.285429
C19   C     C_R   0.847308 0.347893 0.334814 0.020879
C20   C     C_R   0.360815 0.834142 0.172930 0.017727
C21   C     C_R   0.378449 0.920768 0.221950 0.022527
C22   C     C_R   0.378450 0.900857 0.294788 -0.001738
C23   C     C_R   0.349047 0.342759 0.161941 -0.008012
C24   C     C_R   0.334614 0.709190 0.271499 -0.157219
C25   C     C_R   0.335900 0.728879 0.198196 -0.173454
C26   C     C_3   0.498549 0.944201 0.227649 -0.262621
C27   C     C_3   0.499698 0.922070 0.307031 -0.295463
C28   C     C_R   0.345952 0.767836 0.604940 0.525661
C29   C     C_R   0.356927 0.794810 0.320348 0.020811
C30   C     C_R   0.324520 0.328932 0.818443 0.022468
C31   C     C_R   0.426264 0.217269 0.778334 0.029870
C32   C     C_R   0.449958 0.234688 0.709630 0.014320
C33   C     C_R   0.283676 0.484043 0.719157 -0.162118
C34   C     C_R   0.492587 0.279380 0.267583 -0.159036
C35   C     C_R   0.256775 0.465835 0.790029 -0.156046
C36   C     C_3   0.441069 0.076039 0.763489 -0.252378
C37   C     C_3   0.465326 0.096190 0.686796 -0.268234
C38   C     C_R   0.375413 0.366012 0.677738 0.010324
C39   C     C_R   0.793920 0.349940 0.839820 -0.016594
C40   C     C_R   0.405090 0.378312 0.604688 0.535417
C41   C     C_R   0.769742 0.473046 0.804202 0.051156
C42   C     C_R   0.739427 0.490708 0.732769 0.011533
C43   C     C_R   0.720181 0.282207 0.730586 -0.168481
C44   C     C_R   0.756475 0.260086 0.803893 -0.177270
C45   C     C_R   0.483082 0.279466 0.193462 -0.037595
C46   C     C_3   0.857029 0.542409 0.799386 0.188861
C47   C     C_3   0.828299 0.555164 0.719828 0.163891
C48   C     C_R   0.723212 0.391959 0.693240 0.022349
C49   C     C_R   0.307288 0.827860 0.828920 0.000176
C50   C     C_R   0.199809 0.835093 0.786596 -0.021765
C51   C     C_R   0.210716 0.825450 0.714014 0.064243
C52   C     C_R   0.701065 0.412198 0.616148 0.565495
C53   C     C_R   0.443119 0.785755 0.721720 -0.176403
C54   C     C_R   0.434377 0.791409 0.796216 -0.165617
C55   C     C_3   0.047416 0.941828 0.781635 -0.228429
C56   C     C_R   0.080641 0.451554 0.377792 -0.106128
C57   C     C_3   0.059482 0.922567 0.700758 0.150805
C58   C     C_R   0.327632 0.809530 0.679415 -0.022084
C59   C     C_R   0.974847 0.289405 0.118153 0.561655
C60   C     C_R   0.327038 0.296735 0.092000 0.531463
C61   C     C_R   0.310845 0.893547 0.103037 0.535473
C62   C     C_R   0.877877 0.312432 0.905824 0.534172
C63   C     C_R   0.297117 0.290686 0.886979 0.536500
C64   C     C_R   0.799747 0.027790 0.043946 -0.057908
C65   C     C_R   0.275703 0.892434 0.898817 0.545374
C66   C     C_R   0.711772 0.172663 0.032068 -0.045277
C67   C     C_R   0.990660 0.539195 0.430833 -0.041733
C68   C     C_R   0.620853 0.258989 0.085174 -0.056626
C69   C     C_3   0.702553 0.847889 0.460295 -0.034798
C70   C     C_3   0.615341 0.922293 0.525116 -0.343426
C71   C     C_3   0.880524 0.727452 0.842238 -0.153863
C72   C     C_3   0.988527 0.535532 0.636622 -0.090963
C73   C     C_3   0.857984 0.928562 0.662632 -0.132184
C74   C     C_R   0.702761 0.054626 0.161880 -0.116841
C75   C     C_R   0.796422 0.969067 0.109167 -0.127417
Cr1   Cr    Cr6+3 0.601740 0.606840 0.505840 0.968413
Cr2   Cr    Cr6+3 0.291500 0.601560 0.495070 1.045083
Cr3   Cr    Cr6+3 0.606780 0.291630 0.499130 0.984444
Cr4   Cr    Cr6+3 0.062440 0.063060 0.008240 0.983732
Cr5   Cr    Cr6+3 0.062950 0.375000 0.998920 1.004164
Cr6   Cr    Cr6+3 0.374550 0.061770 0.992470 1.023861
H1    H     H_    0.595144 0.228448 0.292387 0.132655
H2    H     H_    0.317179 0.626477 0.290253 0.149806
H3    H     H_    0.865753 0.857180 0.118841 0.097611
H4    H     H_    0.311588 0.666777 0.161570 0.125758
H5    H     H_    0.464917 0.054230 0.213005 0.166937
H6    H     H_    0.592883 0.860559 0.200041 0.136247
H7    H     H_    0.595044 0.824167 0.324634 0.121947
H8    H     H_    0.471416 0.019048 0.338879 0.140657
H9    H     H_    0.228542 0.587206 0.695366 0.176843
H10   H     H_    0.182185 0.555559 0.821020 0.113144
H11   H     H_    0.341703 0.076369 0.771624 0.155056
H12   H     H_    0.889074 0.859266 0.355800 0.098884
H13   H     H_    0.535288 0.989338 0.790226 0.158497
H14   H     H_    0.572580 0.019256 0.669463 0.109059
H15   H     H_    0.977428 0.492198 0.478345 0.129221
H16   H     H_    0.380310 0.108181 0.650034 0.157287
H17   H     H_    0.698633 0.209385 0.702174 0.123283
H18   H     H_    0.766510 0.167611 0.830120 0.116314
H19   H     H_    0.969379 0.471287 0.813970 0.162653
H20   H     H_    0.768021 0.666442 0.700224 0.098327
H21   H     H_    0.538211 0.766755 0.697131 0.131764
H22   H     H_    0.521474 0.781683 0.827494 0.188667
H23   H     H_    0.056022 0.706496 0.265241 0.106061
H24   H     H_    0.026166 0.048257 0.798954 0.127172
H25   H     H_    0.870333 0.961231 0.002663 0.098491
H26   H     H_    0.982175 0.905109 0.807249 0.125798
H27   H     H_    0.036796 0.017924 0.669268 0.127259
H28   H     H_    0.710501 0.217997 0.981007 0.113312
H29   H     H_    0.549754 0.369962 0.073853 0.091715
H30   H     H_    0.137386 0.337912 0.385684 0.104731
H31   H     H_    0.701113 0.007060 0.211796 0.091252
H32   H     H_    0.125788 0.478162 0.179334 0.140621
H33   H     H_    0.667567 0.775636 0.439306 0.177860
H34   H     H_    0.750805 0.572472 0.309159 0.136120
H35   H     H_    0.683664 0.929883 0.420060 0.125776
H36   H     H_    0.645981 0.997786 0.546269 0.166925
H37   H     H_    0.502772 0.981472 0.510061 0.121489
H38   H     H_    0.632518 0.843592 0.566839 0.140546
H39   H     H_    0.929547 0.725832 0.790629 0.130248
H40   H     H_    0.961704 0.666115 0.883379 0.136211
H41   H     H_    0.820152 0.839076 0.860736 0.127957
H42   H     H_    0.013238 0.606113 0.668326 0.160781
H43   H     H_    0.905149 0.598533 0.596796 0.166161
H44   H     H_    0.083104 0.458834 0.607227 0.167297
H45   H     H_    0.836903 0.538146 0.190966 0.140056
H46   H     H_    0.833708 0.015329 0.624431 0.153618
H47   H     H_    0.804265 0.969801 0.714317 0.097691
H48   H     H_    0.817891 0.862431 0.639220 0.136066
H49   H     H_    0.101887 0.964665 0.230805 0.162858
H50   H     H_    0.922008 0.060188 0.194330 0.174375
H51   H     H_    0.833726 0.095516 0.314453 0.131800
H52   H     H_    0.018070 0.000653 0.349598 0.159468
O1    O     O_R   0.748670 0.497520 0.427970 -0.543082
O2    O     O_R   0.417470 0.174910 0.067830 -0.500698
O3    O     O_R   0.375160 0.946380 0.070880 -0.493967
O4    O     O_R   0.476470 0.723930 0.429450 -0.523626
O5    O     O_R   0.160500 0.919670 0.926690 -0.527605
O6    O     O_R   0.933140 0.190380 0.936050 -0.519076
O7    O     O_R   0.909010 0.403210 0.925030 -0.496503
O8    O     O_R   0.179590 0.361290 0.918480 -0.520671
O9    O     O_R   0.391360 0.170840 0.907510 -0.517682
O10   O     O_R   0.350950 0.942600 0.922260 -0.500955
O11   O     O_3   0.166650 0.166610 0.999880 -0.263918
O12   O     O_R   0.300170 0.471020 0.567120 -0.507666
O13   O     O_R   0.264730 0.744140 0.416740 -0.512759
O14   O     O_R   0.309440 0.472410 0.418220 -0.484741
O15   O     O_R   0.501630 0.260530 0.414310 -0.538662
O16   O     O_R   0.727920 0.305730 0.428950 -0.493546
O17   O     O_R   0.738670 0.496020 0.588600 -0.493180
O18   O     O_R   0.467190 0.722540 0.578350 -0.542879
O19   O     O_R   0.254720 0.742640 0.577370 -0.475672
O20   O     O_3   0.844741 0.770767 0.480257 -0.591008
O21   O     O_3   0.788488 0.675032 0.834455 -0.600367
O22   O     O_3   0.949390 0.459710 0.681556 -0.584429
O23   O     O_R   0.491630 0.259030 0.574940 -0.544124
O24   O     O_3   0.002494 0.841904 0.673170 -0.574386
O25   O     O_R   0.718640 0.304340 0.577850 -0.521748
O26   O     O_3   0.500010 0.500010 0.500020 -0.288657
O27   O     O_R   0.186620 0.923750 0.087000 -0.534477
O28   O     O_R   0.957350 0.194160 0.084660 -0.493553
O29   O     O_R   0.935120 0.407280 0.085350 -0.528925
O30   O     O_R   0.203800 0.365060 0.067090 -0.530462

loop_
_geom_bond_atom_site_label_1
_geom_bond_atom_site_label_2
_ccdc_geom_bond_type
C66   C68   A    
C21   C26   S    
C69   H35   S    
C47   H20   S    
C22   C29   A    
C12   C74   A    
C17   H50   S    
C11   C13   A    
C41   C42   A    
C71   H41   S    
Cr4   O6    S    
C43   H17   S    
C5    C67   A    
C16   O1    A    
C8    C56   A    
C37   H16   S    
C7    C8    A    
Cr1   O26   S    
Cr1   O4    S    
C12   C68   A    
C26   C27   S    
Cr6   O10   S    
C49   C65   S    
C13   C18   S    
C55   H24   S    
C23   C45   A    
C36   C37   S    
C24   H2    S    
C10   C15   A    
C74   H31   S    
C30   C31   A    
C65   O10   A    
C44   H18   S    
C75   H3    S    
C20   C25   A    
C70   H36   S    
C49   C54   A    
C4    O15   A    
C73   O24   S    
C60   O30   A    
C37   H14   S    
C18   H52   S    
C20   C61   S    
C24   C29   A    
C57   O24   S    
C18   H51   S    
Cr3   O25   S    
Cr6   O11   S    
Cr4   O11   S    
C26   H6    S    
Cr5   O11   S    
C15   H45   S    
C41   C46   S    
C16   O16   A    
C51   C57   S    
C32   C38   A    
C62   O6    A    
C43   C48   A    
Cr2   O14   S    
C56   H30   S    
Cr3   O15   S    
C36   H11   S    
C72   O22   S    
C21   C22   A    
C72   H43   S    
C1    O13   A    
C27   H7    S    
Cr4   O28   S    
Cr2   O19   S    
C25   H4    S    
Cr6   O2    S    
C52   O25   A    
C23   C60   S    
C46   O21   S    
C73   H48   S    
C69   H33   S    
C74   C75   A    
C13   C19   A    
C54   H22   S    
C24   C25   A    
C39   C41   A    
C3    C8    S    
C61   O27   A    
Cr4   O27   S    
C51   C58   A    
Cr1   O1    S    
C64   C75   A    
C42   C48   A    
Cr1   O18   S    
C50   C51   A    
C73   H46   S    
C71   O21   S    
C69   O20   S    
C55   H26   S    
C64   C66   A    
C43   C44   A    
Cr5   O30   S    
C59   O28   A    
C31   C32   A    
Cr1   O17   S    
C53   H21   S    
C26   H5    S    
C6    H12   S    
C57   H27   S    
C1    C29   S    
C17   C18   S    
C63   O8    A    
C34   C45   A    
C68   H29   S    
C32   C37   S    
C64   H25   S    
C3    C9    A    
C60   O2    A    
Cr5   O29   S    
C67   H15   S    
C6    C7    A    
Cr2   O26   S    
C65   O5    A    
C40   O12   A    
Cr6   O9    S    
C28   O19   A    
C7    H23   S    
C55   C57   S    
C72   H42   S    
C9    C34   A    
C70   H38   S    
C73   H47   S    
Cr2   O12   S    
C1    O4    A    
Cr6   O3    S    
C2    H32   S    
C39   C62   S    
C46   H19   S    
C46   C47   S    
C11   C17   S    
C17   H49   S    
C31   C36   S    
C14   C19   A    
C71   H40   S    
C50   C55   S    
C12   C45   S    
C53   C58   A    
C53   C54   A    
C39   C44   A    
C28   C58   S    
C56   C67   A    
C30   C35   A    
C33   C38   A    
C72   H44   S    
C22   C27   S    
C2    C3    A    
C59   O29   A    
Cr5   O7    S    
C33   H9    S    
C38   C40   S    
C4    O14   A    
Cr3   O23   S    
C5    C6    A    
C47   O22   S    
C70   H37   S    
C16   C19   S    
C5    O20   S    
C33   C35   A    
C63   O9    A    
C27   H8    S    
C42   C47   S    
C66   H28   S    
C69   C70   S    
C71   H39   S    
C10   C11   A    
C36   H13   S    
Cr3   O26   S    
C48   C52   S    
Cr4   O5    S    
C20   C21   A    
C61   O3    A    
C28   O18   A    
C52   O17   A    
C49   C50   A    
C2    C23   A    
C14   C15   A    
C40   O23   A    
C34   H1    S    
C62   O7    A    
C4    C9    S    
C30   C63   S    
C10   C59   S    
Cr2   O13   S    
Cr5   O8    S    
C14   H34   S    
Cr3   O16   S    
C35   H10   S    
