data_mof_unit_1839.cif
_audit_creation_date              2013-03-05T15:45:31-0500
_audit_creation_method            fapswitch 2.2
_symmetry_space_group_name_H-M    P1
_symmetry_Int_Tables_number       1
_space_group_crystal_system       triclinic
_cell_length_a                    9.85569
_cell_length_b                    11.040826
_cell_length_c                    13.547237
_cell_angle_alpha                 95.41328
_cell_angle_beta                  81.871616
_cell_angle_gamma                 111.612536
_cell_volume                      1355.304342

loop_
_atom_site_label
_atom_site_type_symbol
_atom_site_description
_atom_site_fract_x
_atom_site_fract_y
_atom_site_fract_z
_atom_type_partial_charge
O1    O     O_R   0.426290 0.668220 0.490680 -0.624926
O2    O     O_R   0.659360 0.703290 0.520190 -0.555142
C1    C     C_R   0.556378 0.745675 0.509281 0.721508
O3    O     O_R   0.326580 0.473880 0.629020 -0.592604
O4    O     O_R   0.559660 0.508940 0.658530 -0.608258
C2    C     C_R   0.422485 0.480436 0.689974 0.798647
Cu1   Cu    Cu3+1 0.362000 0.479240 0.482530 1.032777
Cu2   Cu    Cu3+1 0.638000 0.520760 0.517470 0.994354
O5    O     O_R   0.340640 0.296710 0.479810 -0.541103
O6    O     O_R   0.573710 0.331780 0.509320 -0.550056
O7    O     O_R   0.440340 0.491060 0.341470 -0.561531
O8    O     O_R   0.673420 0.526120 0.370980 -0.538768
C3    C     C_R   0.442970 0.254307 0.492533 0.884296
C4    C     C_R   0.577581 0.514835 0.310531 0.830726
C5    C     C_R   0.812389 0.592193 0.064849 -0.090888
H1    H     H_    0.856839 0.613100 0.216395 0.193725
H2    H     H_    0.928193 0.623827 0.037525 0.182622
C6    C     C_R   0.623687 0.532392 0.204078 -0.095215
C7    C     C_R   0.232151 0.433109 0.836278 -0.344875
C8    C     C_R   0.189055 0.441041 0.938805 0.300598
C9    C     C_R   0.298377 0.490734 0.004130 0.358614
C10   C     C_R   0.445155 0.498026 0.970744 -0.096909
C11   C     C_R   0.485827 0.482613 0.866996 -0.031165
C12   C     C_R   0.553584 0.521377 0.037094 0.021093
C13   C     C_R   0.704099 0.555776 0.999243 0.038723
C14   C     C_R   0.742553 0.542131 0.897022 0.420139
C15   C     C_R   0.631857 0.488884 0.835504 -0.224734
C16   C     C_R   0.515890 0.501240 0.139254 -0.152502
C17   C     C_R   0.772121 0.583360 0.166984 -0.120051
C18   C     C_R   0.380006 0.462962 0.798849 -0.144396
H3    H     H_    0.402621 0.453917 0.168768 0.236009
H4    H     H_    0.149991 0.407510 0.784925 0.224303
H5    H     H_    0.665113 0.449198 0.764769 0.202387
H6    H     H_    0.620393 0.137554 0.523784 0.249534
H7    H     H_    0.383149 0.865506 0.473801 0.151830
C19   C     C_2   0.587570 0.885916 0.519238 0.303105
C20   C     C_2   0.487474 0.931522 0.497033 -0.268451
H8    H     H_    0.304434 0.047959 0.468716 0.170024
C21   C     C_2   0.411331 0.114588 0.487141 -0.368595
C22   C     C_2   0.514445 0.070387 0.504205 -0.067154
H9    H     H_    0.134617 0.595744 0.554726 0.084871
N1    N     N_2   0.845330 0.551960 0.543750 -0.361717
C23   C     C_2   0.928741 0.501940 0.482923 0.404347
N2    N     N_2   0.154690 0.448120 0.456210 -0.041666
C24   C     C_2   0.079788 0.515894 0.504363 -0.078028
H10   H     H_    0.883996 0.594256 0.610168 0.160920
O9    O     O_3   0.721805 0.970398 0.546941 -0.526619
C25   C     C_3   0.718747 0.968049 0.651355 0.038793
H11   H     H_    0.716292 0.872178 0.672512 0.140840
H12   H     H_    0.621645 0.987550 0.691943 0.129457
C26   C     C_3   0.856605 0.073610 0.684691 -0.662036
H13   H     H_    0.858960 0.171257 0.668673 0.266809
H14   H     H_    0.857417 0.069888 0.766236 0.199333
H15   H     H_    0.956071 0.058545 0.644755 0.250140
N3    N     N_R   0.886322 0.445359 0.387044 0.177094
O10   O     O_R   0.974144 0.492793 0.307637 -0.349402
O11   O     O_R   0.788357 0.328674 0.379789 -0.286925
N4    N     N_R   0.076987 0.324374 0.417355 0.295409
O12   O     O_R   0.132710 0.280502 0.335441 -0.275206
O13   O     O_R   0.971627 0.242022 0.473522 -0.333478
O14   O     O_3   0.885616 0.559054 0.858688 -0.544527
C27   C     C_3   0.957136 0.688979 0.829784 0.035260
H16   H     H_    0.952688 0.759849 0.893331 0.135866
H17   H     H_    0.906217 0.708064 0.767526 0.134702
C28   C     C_3   0.117828 0.711583 0.794779 -0.788150
H18   H     H_    0.126572 0.640134 0.733212 0.246513
H19   H     H_    0.174404 0.811761 0.767717 0.198727
H20   H     H_    0.172717 0.699815 0.857487 0.237369
O15   O     O_3   0.261915 0.539114 0.097993 -0.531110
C29   C     C_3   0.308369 0.676283 0.095750 0.067523
H21   H     H_    0.251915 0.704530 0.041110 0.126884
H22   H     H_    0.429503 0.720916 0.075930 0.136330
C30   C     C_3   0.270639 0.731793 0.198515 -0.677573
H23   H     H_    0.317360 0.698246 0.255906 0.255172
H24   H     H_    0.316940 0.840007 0.199365 0.190646
H25   H     H_    0.149671 0.699903 0.216614 0.263923
N5    N     N_R   0.034849 0.401381 0.975503 0.146067
O16   O     O_R   0.936038 0.343767 0.915074 -0.345575
O17   O     O_R   0.991892 0.402880 0.070816 -0.258674

loop_
_geom_bond_atom_site_label_1
_geom_bond_atom_site_label_2
_geom_bond_distance
_ccdc_geom_bond_type
N3    O10   1.299894 A    
C30   H23   1.111272 S    
C4    C6    1.458216 S    
C7    C8    1.398181 A    
Cu1   Cu2   2.690372 S    
N5    O16   1.301560 A    
C15   H5    1.074920 S    
Cu1   O7    1.954628 S    
C14   C15   1.386582 A    
C8    N5    1.444261 S    
H6    C22   1.086918 S    
C19   C20   1.340030 D    
H7    C20   1.087960 S    
C14   O14   1.381969 S    
Cu2   N1    2.021106 S    
C20   C22   1.452483 S    
O4    C2    1.287360 A    
O7    C4    1.293453 A    
C5    C13   1.405483 A    
N4    O13   1.302123 A    
C19   O9    1.387973 S    
C5    H2    1.083010 S    
N1    H10   1.029314 S    
O5    C3    1.295456 A    
C27   H17   1.112989 S    
C25   C26   1.521855 S    
N2    N4    1.392026 S    
C28   H19   1.110425 S    
C29   H21   1.114724 S    
C11   C15   1.420107 A    
C25   H12   1.115897 S    
C9    C10   1.428192 A    
C30   H24   1.110460 S    
O15   C29   1.413536 S    
O3    Cu1   1.968447 S    
C7    H4    1.083127 S    
C5    C17   1.386785 A    
N5    O17   1.301278 A    
C26   H13   1.110961 S    
C11   C18   1.433491 A    
C6    C16   1.398543 A    
C12   C13   1.419278 A    
O3    C2    1.318933 A    
C21   C22   1.333222 D    
C13   C14   1.392229 A    
C9    O15   1.383993 S    
C26   H14   1.110600 S    
C27   H16   1.114805 S    
O9    C25   1.413052 S    
Cu2   O8    1.968445 S    
C28   H20   1.110750 S    
C29   C30   1.520708 S    
C6    C17   1.395833 A    
Cu1   N2    2.021272 S    
C23   C24   1.506355 S    
C23   N3    1.435356 S    
C25   H11   1.113357 S    
C2    C18   1.485784 S    
O8    C4    1.300427 A    
N3    O11   1.299320 A    
C30   H25   1.108994 S    
C10   C12   1.428756 A    
N4    O12   1.299961 A    
N1    C23   1.310288 D    
N2    C24   1.307317 D    
Cu1   O5    1.944915 S    
C27   C28   1.521237 S    
O1    Cu1   1.941532 S    
C16   H3    1.078238 S    
O2    Cu2   1.944913 S    
C12   C16   1.398098 A    
O6    C3    1.295353 A    
O4    Cu2   1.954628 S    
C26   H15   1.111093 S    
O2    C1    1.294723 A    
H1    C17   1.080579 S    
H8    C21   1.087293 S    
C1    C19   1.460083 S    
O14   C27   1.411018 S    
C3    C21   1.453636 S    
C8    C9    1.409831 A    
Cu2   O6    1.941534 S    
C28   H18   1.109509 S    
H9    C24   1.083777 S    
C10   C11   1.418052 A    
C29   H22   1.114070 S    
O1    C1    1.296780 A    
C7    C18   1.399282 A    
