data_mof_unit_2595.cif
_audit_creation_date              2012-12-11T14:49:43-0500
_audit_creation_method            fapswitch 2.2
_symmetry_space_group_name_H-M    P1
_symmetry_Int_Tables_number       1
_space_group_crystal_system       triclinic
_cell_length_a                    10.998046
_cell_length_b                    11.121557
_cell_length_c                    18.921999
_cell_angle_alpha                 89.958608
_cell_angle_beta                  90.088913
_cell_angle_gamma                 120.116036
_cell_volume                      2002.02389735

loop_
_atom_site_label
_atom_site_type_symbol
_atom_type_description
_atom_site_fract_x
_atom_site_fract_y
_atom_site_fract_z
_atom_type_partial_charge
C1    C     C_R   0.530060 0.467029 0.646221 0.591996
C2    C     C_R   0.462850 0.529301 0.354898 0.565301
C3    C     C_R   0.474088 0.940493 0.146592 0.597825
C4    C     C_R   0.063229 0.534243 0.353218 0.559780
C5    C     C_R   0.407886 0.043306 0.531821 0.052158
C6    C     C_R   0.633179 0.587835 0.969258 0.029685
C7    C     C_R   0.861407 0.396519 0.519826 0.088240
C8    C     C_R   0.407867 0.044750 0.968163 0.052837
C9    C     C_R   0.637751 0.584160 0.531605 0.063690
C10   C     C_R   0.863442 0.396119 0.979634 0.068846
C11   C     C_R   0.893642 0.410460 0.051316 0.071294
C12   C     C_R   0.930619 0.468127 0.855221 0.586270
C13   C     C_R   0.623008 0.579237 0.457642 0.059220
C14   C     C_R   0.414342 0.039638 0.042615 0.061624
C15   C     C_R   0.892320 0.410140 0.448220 0.066056
C16   C     C_R   0.616662 0.584394 0.042190 0.080860
C17   C     C_R   0.414861 0.038201 0.457487 0.061936
C18   C     C_R   0.500055 0.992313 0.426697 0.096172
C19   C     C_R   0.482245 0.511768 0.070745 0.055468
C20   C     C_R   0.026926 0.508845 0.426863 0.027592
C21   C     C_R   0.500623 0.995266 0.073791 0.097925
C22   C     C_R   0.486915 0.508908 0.428550 0.034554
C23   C     C_R   0.529620 0.058959 0.647036 0.588911
C24   C     C_R   0.027742 0.509859 0.072975 0.032437
C25   C     C_R   0.967948 0.478057 0.929340 0.008551
C26   C     C_R   0.516141 0.507335 0.574701 0.027099
C27   C     C_R   0.488963 0.005656 0.925591 0.051399
C28   C     C_R   0.965866 0.478010 0.570308 0.030287
C29   C     C_R   0.513893 0.508621 0.924818 0.021903
C30   C     C_R   0.488435 0.004026 0.574742 0.051079
C31   C     C_R   0.585778 0.960654 0.470445 0.076842
C32   C     C_R   0.362566 0.433912 0.026673 0.042438
C33   C     C_R   0.131063 0.590591 0.476600 0.056940
C34   C     C_R   0.529960 0.467168 0.853800 0.579213
C35   C     C_R   0.588322 0.966533 0.030298 0.083870
C36   C     C_R   0.366771 0.432151 0.472490 0.052580
C37   C     C_R   0.132018 0.592145 0.023499 0.062515
C38   C     C_R   0.100612 0.579783 0.951252 0.036964
C39   C     C_R   0.381532 0.440258 0.545293 0.029903
C40   C     C_R   0.567271 0.953728 0.957545 0.032447
C41   C     C_R   0.099044 0.578874 0.548712 0.032587
C42   C     C_R   0.378398 0.440433 0.953688 0.037799
C43   C     C_R   0.565779 0.950394 0.543301 0.034601
C44   C     C_R   0.928837 0.467620 0.644391 0.601573
C45   C     C_R   0.529819 0.059364 0.853094 0.589352
C46   C     C_R   0.461542 0.529908 0.144798 0.600098
C47   C     C_R   0.473940 0.939623 0.353627 0.600385
C48   C     C_R   0.063551 0.534564 0.146678 0.559976
Cr1   Cr    Cr6+3 0.776430 0.541680 0.750000 1.032746
Cr2   Cr    Cr6+3 0.765250 0.223570 0.750000 1.033074
Cr3   Cr    Cr6+3 0.458320 0.234750 0.750000 1.072737
Cr4   Cr    Cr6+3 0.541680 0.776430 0.250000 1.071748
Cr5   Cr    Cr6+3 0.223570 0.765250 0.250000 1.074205
Cr6   Cr    Cr6+3 0.234750 0.458320 0.250000 1.066497
H1    H     H_    0.351277 0.187444 0.545227 0.247606
H2    H     H_    0.773816 0.740963 0.595015 0.231302
H3    H     H_    0.685421 0.339974 0.924251 0.226242
H4    H     H_    0.740569 0.222069 0.932032 0.258444
H5    H     H_    0.823152 0.266697 0.129451 0.239492
H6    H     H_    0.771921 0.386624 0.136621 0.223938
H7    H     H_    0.809766 0.601651 0.427738 0.241332
H8    H     H_    0.722288 0.611663 0.360728 0.239217
H9    H     H_    0.365510 0.181625 0.078207 0.247858
H10   H     H_    0.226693 0.016136 0.073552 0.230568
H11   H     H_    0.821207 0.266695 0.369936 0.239840
H12   H     H_    0.215433 0.021110 0.547950 0.211289
H13   H     H_    0.771387 0.387712 0.362624 0.216398
H14   H     H_    0.802115 0.750744 0.075015 0.252436
H15   H     H_    0.795205 0.596701 0.079161 0.252820
H16   H     H_    0.369175 0.182331 0.421536 0.248858
H17   H     H_    0.228649 0.017741 0.425792 0.232061
H18   H     H_    0.790816 0.013326 0.461921 0.225358
H19   H     H_    0.674164 0.840210 0.454962 0.257134
H20   H     H_    0.194501 0.240995 0.042768 0.208135
H21   H     H_    0.152504 0.366320 0.034141 0.233617
H22   H     H_    0.340070 0.662821 0.476616 0.220648
H23   H     H_    0.810077 0.608543 0.926710 0.279041
H24   H     H_    0.287881 0.781054 0.472477 0.226664
H25   H     H_    0.794579 0.024013 0.038227 0.225419
H26   H     H_    0.679568 0.850752 0.046182 0.243595
H27   H     H_    0.196331 0.239524 0.457925 0.207256
H28   H     H_    0.157436 0.367807 0.463239 0.235224
H29   H     H_    0.341564 0.667030 0.024103 0.218514
H30   H     H_    0.287057 0.783429 0.028048 0.226817
H31   H     H_    0.223919 0.770803 0.909199 0.246579
H32   H     H_    0.293992 0.665086 0.905146 0.239076
H33   H     H_    0.201632 0.267724 0.579249 0.234626
H34   H     H_    0.773042 0.735322 0.901311 0.256350
H35   H     H_    0.195708 0.416343 0.580779 0.237320
H36   H     H_    0.738262 0.944685 0.922780 0.240980
H37   H     H_    0.586128 0.788924 0.930394 0.226357
H38   H     H_    0.222787 0.769839 0.590778 0.246491
H39   H     H_    0.292170 0.663594 0.595417 0.239665
H40   H     H_    0.199178 0.266275 0.920469 0.233470
H41   H     H_    0.192991 0.414604 0.916141 0.239198
H42   H     H_    0.736201 0.941246 0.578744 0.234538
H43   H     H_    0.583965 0.785417 0.571358 0.218574
H44   H     H_    0.683664 0.342570 0.574656 0.238909
H45   H     H_    0.736620 0.223061 0.567524 0.251834
H46   H     H_    0.350402 0.188164 0.954372 0.247221
H47   H     H_    0.215146 0.021586 0.951308 0.215135
H48   H     H_    0.854917 0.719412 0.527062 0.243268
N1    N     N_3   0.319219 0.087815 0.563735 -0.590970
N2    N     N_3   0.785690 0.323875 0.398185 -0.585112
N3    N     N_3   0.737333 0.646235 0.088129 -0.601654
N4    N     N_3   0.335065 0.077455 0.412814 -0.606497
N5    N     N_3   0.693696 0.938974 0.441076 -0.571626
N6    N     N_3   0.225461 0.343593 0.056021 -0.573067
N7    N     N_3   0.269043 0.686635 0.452891 -0.588403
N8    N     N_3   0.698647 0.949185 0.059872 -0.581950
N9    N     N_3   0.229328 0.341908 0.443189 -0.570047
N10   N     N_3   0.269423 0.689373 0.047599 -0.590000
N11   N     N_3   0.201631 0.669267 0.899827 -0.605791
N12   N     N_3   0.772722 0.673058 0.942741 -0.646186
N13   N     N_3   0.259537 0.373969 0.590282 -0.591788
N14   N     N_3   0.629541 0.892249 0.914913 -0.609989
N15   N     N_3   0.199995 0.668183 0.600325 -0.608092
N16   N     N_3   0.257077 0.371998 0.908252 -0.588110
N17   N     N_3   0.627504 0.888998 0.586528 -0.610244
N18   N     N_3   0.723115 0.296517 0.540538 -0.576941
N19   N     N_3   0.318951 0.088697 0.935826 -0.589720
N20   N     N_3   0.775091 0.664417 0.563617 -0.575944
N21   N     N_3   0.725733 0.294979 0.958649 -0.579831
N22   N     N_3   0.787086 0.323419 0.101094 -0.582726
N23   N     N_3   0.746555 0.642908 0.413260 -0.621865
N24   N     N_3   0.332856 0.077052 0.086927 -0.607224
O1    O     O_R   0.916700 0.566820 0.669930 -0.466146
O2    O     O_R   0.566820 0.916700 0.330070 -0.485191
O3    O     O_R   0.083300 0.650120 0.169930 -0.503026
O4    O     O_R   0.349880 0.433180 0.330070 -0.470058
O5    O     O_R   0.649840 0.534790 0.674920 -0.495726
O6    O     O_R   0.884950 0.350160 0.825080 -0.511551
O7    O     O_R   0.465210 0.115050 0.674920 -0.474535
O8    O     O_R   0.649840 0.534790 0.825080 -0.534551
O9    O     O_R   0.884950 0.350160 0.674920 -0.518984
O10   O     O_R   0.465210 0.115050 0.825080 -0.474358
O11   O     O_R   0.534790 0.649840 0.174920 -0.483187
O12   O     O_R   0.650120 0.083300 0.830070 -0.500135
O13   O     O_R   0.350160 0.884950 0.325080 -0.467591
O14   O     O_R   0.115050 0.465210 0.174920 -0.492412
O15   O     O_R   0.534790 0.649840 0.325080 -0.498832
O16   O     O_R   0.350160 0.884950 0.174920 -0.467942
O17   O     O_R   0.115050 0.465210 0.325080 -0.491418
O18   O     O_3   0.666667 0.333333 0.750000 -0.304074
O19   O     O_3   0.333333 0.666667 0.250000 -0.277026
O20   O     O_R   0.433180 0.349880 0.669930 -0.468686
O21   O     O_R   0.916700 0.566820 0.830070 -0.506645
O22   O     O_R   0.650120 0.083300 0.669930 -0.500228
O23   O     O_R   0.433180 0.349880 0.830070 -0.462120
O24   O     O_R   0.566820 0.916700 0.169930 -0.487777
O25   O     O_R   0.083300 0.650120 0.330070 -0.503396
O26   O     O_R   0.349880 0.433180 0.169930 -0.479431

loop_
_geom_bond_atom_site_label_1
_geom_bond_atom_site_label_2
_ccdc_geom_bond_type
C46   O26   A    
Cr1   O8    S    
C5    N1    S    
C44   O1    A    
Cr4   O19   S    
C29   C42   A    
H40   N16   S    
C11   C24   A    
H42   N17   S    
C11   N22   S    
C18   C47   S    
C4    O17   A    
H35   N13   S    
Cr4   O2    S    
C19   C46   S    
C47   O2    A    
Cr3   O18   S    
Cr1   O5    S    
H4    N21   S    
H30   N10   S    
C31   C43   A    
H32   N11   S    
C48   O3    A    
C14   C21   A    
H46   N19   S    
Cr2   O9    S    
C8    N19   S    
H19   N5    S    
C5    C17   A    
C34   O8    A    
Cr1   O18   S    
H1    N1    S    
C28   C41   A    
H37   N14   S    
Cr1   O21   S    
C17   C18   A    
Cr5   O16   S    
H6    N22   S    
C9    C13   A    
C6    N12   S    
C37   N10   S    
H45   N18   S    
Cr6   O14   S    
H27   N9    S    
H22   N7    S    
C3    O24   A    
C2    C22   S    
C8    C14   A    
H36   N14   S    
C15   N2    S    
H33   N13   S    
C13   N23   S    
C27   C45   S    
C44   O9    A    
C7    C15   A    
Cr6   O17   S    
H21   N6    S    
C1    O20   A    
C3    O16   A    
H39   N15   S    
Cr6   O4    S    
C19   C32   A    
C7    N18   S    
C34   O23   A    
Cr2   O18   S    
C9    C26   A    
C9    N20   S    
H41   N16   S    
C15   C20   A    
Cr1   O1    S    
C48   O14   A    
C24   C48   S    
C23   C30   S    
C24   C37   A    
C10   N21   S    
H16   N4    S    
C38   N11   S    
C23   O7    A    
C42   N16   S    
Cr6   O26   S    
Cr3   O20   S    
H20   N6    S    
C29   C34   S    
C28   C44   S    
H47   N19   S    
C7    C28   A    
H2    N20   S    
H43   N17   S    
H38   N15   S    
C37   C38   A    
C25   C38   A    
H3    N21   S    
Cr3   O10   S    
H18   N5    S    
C27   C40   A    
C36   N9    S    
Cr5   O19   S    
Cr4   O11   S    
C35   N8    S    
Cr2   O6    S    
C16   N3    S    
Cr6   O19   S    
C20   C33   A    
C10   C25   A    
C39   N13   S    
C46   O11   A    
C1    C26   S    
C30   C43   A    
C3    C21   S    
C33   N7    S    
H14   N3    S    
C47   O13   A    
H23   N12   S    
C12   O21   A    
C5    C30   A    
Cr2   O22   S    
H5    N22   S    
C8    C27   A    
C4    O25   A    
C45   O10   A    
H15   N3    S    
C12   O6    A    
H25   N8    S    
Cr5   O13   S    
C31   N5    S    
H12   N1    S    
C36   C39   A    
H13   N2    S    
C1    O5    A    
H8    N23   S    
Cr2   O12   S    
H44   N18   S    
C21   C35   A    
C22   C36   A    
C23   O22   A    
H10   N24   S    
Cr4   O15   S    
C14   N24   S    
C12   C25   S    
C33   C41   A    
H28   N9    S    
H31   N11   S    
C35   C40   A    
C17   N4    S    
Cr3   O7    S    
C40   N14   S    
C16   C19   A    
C45   O12   A    
C2    O4    A    
C13   C22   A    
H24   N7    S    
H34   N12   S    
C26   C39   A    
H9    N24   S    
C10   C11   A    
C6    C16   A    
C4    C20   S    
C6    C29   A    
Cr5   O3    S    
Cr3   O23   S    
Cr4   O24   S    
C32   N6    S    
H17   N4    S    
H26   N8    S    
Cr5   O25   S    
C2    O15   A    
C32   C42   A    
H29   N10   S    
H7    N23   S    
C18   C31   A    
H11   N2    S    
C41   N15   S    
H48   N20   S    
C43   N17   S    
