data_mof_unit_2249.cif
_audit_creation_date              2012-12-11T14:13:12-0500
_audit_creation_method            fapswitch 2.2
_symmetry_space_group_name_H-M    P1
_symmetry_Int_Tables_number       1
_space_group_crystal_system       triclinic
_cell_length_a                    8.363587
_cell_length_b                    15.23144
_cell_length_c                    17.501817
_cell_angle_alpha                 95.296635
_cell_angle_beta                  94.474635
_cell_angle_gamma                 99.944057
_cell_volume                      2176.61792346

loop_
_atom_site_label
_atom_site_type_symbol
_atom_type_description
_atom_site_fract_x
_atom_site_fract_y
_atom_site_fract_z
_atom_type_partial_charge
Ba1   Ba    Ba6+2 0.849890 0.543710 0.463630 1.633164
Ba2   Ba    Ba6+2 0.339940 0.456360 0.536380 1.648209
C1    C     C_3   0.496338 0.817225 0.188161 -0.343678
C2    C     C_3   0.541470 0.763538 0.253874 0.546154
C3    C     C_3   0.439357 0.320889 0.299103 0.322682
C4    C     C_3   0.430336 0.297039 0.212153 -0.408943
C5    C     C_3   0.102479 0.262798 0.744081 0.361357
C6    C     C_3   0.131773 0.236931 0.825254 -0.378610
C7    C     C_3   0.606712 0.219493 0.730085 0.470769
C8    C     C_3   0.683974 0.173718 0.793537 -0.343295
C9    C     C_R   0.308356 0.501429 0.267836 -0.293068
C10   C     C_R   0.142379 0.472655 0.248680 -0.008109
C11   C     C_R   0.079338 0.472077 0.171265 -0.159942
C12   C     C_3   0.066935 0.743914 0.262325 0.308758
C13   C     C_R   0.185058 0.497142 0.114199 -0.024733
C14   C     C_R   0.354460 0.530037 0.137423 0.131759
C15   C     C_R   0.411099 0.539725 0.216915 0.027767
C16   C     C_R   0.114817 0.520686 0.828569 0.134832
C17   C     C_R   0.055262 0.516905 0.749398 0.034472
C18   C     C_R   0.791722 0.437099 0.776715 -0.006627
C19   C     C_R   0.847305 0.442565 0.855430 -0.161558
C20   C     C_R   0.009870 0.482485 0.882166 -0.020481
C21   C     C_1   0.067372 0.485925 0.964602 -0.003703
C22   C     C_1   0.119102 0.490205 0.032645 -0.004180
C23   C     C_3   0.041826 0.777458 0.183053 -0.148584
C24   C     C_R   0.897861 0.470880 0.724806 -0.292041
C25   C     C_R   0.764668 0.233341 0.525281 -0.241172
C26   C     C_R   0.856166 0.173983 0.555026 0.018107
C27   C     C_R   0.789934 0.082044 0.549704 -0.121890
C28   C     C_R   0.632055 0.047390 0.511544 0.029786
C29   C     C_R   0.545941 0.110006 0.479091 -0.121288
C30   C     C_R   0.610743 0.201793 0.486943 0.037227
C31   C     C_R   0.395071 0.915926 0.472187 -0.119852
C32   C     C_R   0.325487 0.825044 0.466191 0.020384
C33   C     C_R   0.578041 0.791300 0.523473 0.076893
C34   C     C_3   0.124960 0.740578 0.682663 0.411837
C35   C     C_R   0.649247 0.882691 0.529149 -0.162982
C36   C     C_R   0.558437 0.947887 0.504617 0.013823
C37   C     C_R   0.414366 0.764451 0.496285 -0.062434
C38   C     C_3   0.094467 0.777765 0.763759 -0.075326
C39   C     C_3   0.884630 0.271722 0.251666 0.485328
C40   C     C_3   0.005817 0.239932 0.198457 -0.075673
C41   C     C_3   0.704985 0.644695 0.698268 0.412859
C42   C     C_3   0.658541 0.662856 0.779619 -0.341480
H1    H     H_    0.211244 0.814299 0.795232 0.070848
H2    H     H_    0.044683 0.720978 0.795642 0.036126
H3    H     H_    0.823394 0.319647 0.221450 0.008001
H4    H     H_    0.061322 0.185730 0.222103 0.083452
H5    H     H_    0.104657 0.297580 0.196133 0.050353
H6    H     H_    0.822733 0.622425 0.702190 -0.148222
H7    H     H_    0.614675 0.588886 0.667969 0.095231
H8    H     H_    0.606862 0.847178 0.161858 0.103168
H9    H     H_    0.755911 0.711655 0.815004 0.096272
H10   H     H_    0.639235 0.600065 0.807705 0.090603
H11   H     H_    0.545196 0.691155 0.777091 0.137987
H12   H     H_    0.425309 0.721606 0.264739 -0.068120
H13   H     H_    0.433273 0.871577 0.209965 0.097313
H14   H     H_    0.316703 0.330256 0.314612 0.009347
H15   H     H_    0.530111 0.383710 0.314545 0.053396
H16   H     H_    0.354225 0.229806 0.195149 0.120139
H17   H     H_    0.377767 0.347413 0.181441 0.067020
H18   H     H_    0.553128 0.296488 0.193401 0.111583
H19   H     H_    0.412982 0.772709 0.142689 0.063282
H20   H     H_    0.150326 0.826589 0.172985 0.116358
H21   H     H_    0.198770 0.320525 0.736800 0.110042
H22   H     H_    0.981616 0.283392 0.737925 -0.068801
H23   H     H_    0.122579 0.293888 0.868138 0.068607
H24   H     H_    0.039971 0.177924 0.834443 0.105404
H25   H     H_    0.255035 0.219775 0.834272 0.152135
H26   H     H_    0.707363 0.251794 0.698295 -0.036856
H27   H     H_    0.756088 0.125557 0.768117 0.092566
H28   H     H_    0.588352 0.137039 0.825350 0.111131
H29   H     H_    0.948008 0.708359 0.276567 0.128520
H30   H     H_    0.765879 0.224829 0.834870 0.081383
H31   H     H_    0.764623 0.415217 0.895482 0.084922
H32   H     H_    0.950617 0.448119 0.154814 0.098462
H33   H     H_    0.361155 0.490290 0.322869 -0.001116
H34   H     H_    0.853592 0.465538 0.664463 0.068817
H35   H     H_    0.318065 0.959356 0.450249 0.081215
H36   H     H_    0.864459 0.039510 0.575396 0.074069
H37   H     H_    0.774833 0.900689 0.552633 0.094997
H38   H     H_    0.153442 0.696308 0.260297 -0.016078
H39   H     H_    0.429967 0.089922 0.445485 0.071271
H40   H     H_    0.816492 0.303982 0.528846 0.073506
H41   H     H_    0.936017 0.812600 0.181211 0.121789
H42   H     H_    0.011325 0.701654 0.653111 0.083275
O1    O     O_2   0.849470 0.455720 0.314640 -0.464676
O2    O     O_3   0.718099 0.724693 0.663026 -0.614862
O3    O     O_3   0.127950 0.817460 0.317552 -0.632649
O4    O     O_2   0.340240 0.544310 0.685400 -0.436217
O5    O     O_3   0.079710 0.546180 0.591070 -0.505415
O6    O     O_3   0.542640 0.381210 0.637190 -0.480612
O7    O     O_3   0.247931 0.688007 0.686397 -0.649820
O8    O     O_3   0.602990 0.392320 0.460230 -0.483751
O9    O     O_3   0.114850 0.335810 0.598580 -0.484939
O10   O     O_2   0.187914 0.177897 0.548992 -0.479796
O11   O     O_3   0.108883 0.189425 0.690149 -0.607569
O12   O     O_3   0.110000 0.453900 0.408940 -0.476100
O13   O     O_3   0.586730 0.607760 0.539780 -0.499111
O14   O     O_2   0.329480 0.280220 0.460820 -0.442788
O15   O     O_3   0.486746 0.250774 0.336250 -0.623149
O16   O     O_2   0.457595 0.441809 0.772714 -0.487309
O17   O     O_3   0.515039 0.279800 0.764050 -0.602278
O18   O     O_3   0.647080 0.618870 0.362820 -0.502377
O19   O     O_2   0.753149 0.560038 0.229535 -0.488186
O20   O     O_3   0.967401 0.311564 0.323331 -0.619593
O21   O     O_3   0.658006 0.711926 0.231074 -0.629983
O22   O     O_2   0.860230 0.719810 0.539220 -0.476361
O23   O     O_3   0.074870 0.664270 0.401430 -0.515272
O24   O     O_2   0.985241 0.821296 0.444806 -0.487637
P1    P     P_3+3 0.017890 0.428700 0.326140 0.983637
P2    P     P_3+3 0.687140 0.705880 0.561850 1.015638
P3    P     P_3+3 0.125812 0.782026 0.410126 0.934006
P4    P     P_3+3 0.171830 0.571380 0.673870 0.978253
P5    P     P_3+3 0.066466 0.218921 0.597226 0.962922
P6    P     P_3+3 0.614237 0.603826 0.260465 0.931871
P7    P     P_3+3 0.507322 0.279854 0.436147 0.983965
P8    P     P_3+3 0.579291 0.387547 0.738043 0.928121
N1    N     N_2   0.604919 0.822291 0.323956 -0.432066
H43   H     H_    0.621677 0.787501 0.370671 0.191903
C43   C     C_3   0.742275 0.893272 0.319485 -0.192656
H44   H     H_    0.776231 0.932639 0.376800 0.115018
H45   H     H_    0.710685 0.939598 0.277962 0.078691
H46   H     H_    0.848330 0.864873 0.301872 0.154906
N2    N     N_3   0.977940 0.838956 0.760197 -0.465795
H47   H     H_    0.035773 0.899223 0.742577 0.197048
H48   H     H_    0.949504 0.854740 0.816364 0.165367
N3    N     N_2   0.758801 0.197356 0.264899 -0.404072
H49   H     H_    0.681235 0.168794 0.217024 0.170047
C44   C     C_3   0.802860 0.133123 0.315151 -0.178740
H50   H     H_    0.690145 0.089613 0.328596 0.094861
H51   H     H_    0.867571 0.167226 0.370565 0.127563
H52   H     H_    0.880623 0.090586 0.286498 0.069242
N4    N     N_2   0.927670 0.209850 0.121281 -0.443118
H53   H     H_    0.845368 0.150495 0.117713 0.195961
C45   C     C_3   0.037095 0.210846 0.061175 -0.243410
H54   H     H_    0.122812 0.163880 0.070852 0.104336
H55   H     H_    0.107104 0.279625 0.059913 0.122170
H56   H     H_    0.965464 0.189833 0.004320 0.110436
N5    N     N_3   0.499374 0.151924 0.675992 -0.500170
H57   H     H_    0.456001 0.184648 0.631036 0.206442
H58   H     H_    0.398206 0.124853 0.703353 0.209832
N6    N     N_2   0.280819 0.557591 0.853485 -0.389139
H59   H     H_    0.333754 0.521109 0.891877 0.211409
C46   C     C_3   0.311137 0.651958 0.880107 -0.274276
H60   H     H_    0.227965 0.667312 0.924017 0.105130
H61   H     H_    0.296520 0.690428 0.831052 0.126248
H62   H     H_    0.439350 0.673530 0.904900 0.096817
N7    N     N_2   0.469592 0.536321 0.081479 -0.419118
H63   H     H_    0.442334 0.484937 0.037174 0.191408
C47   C     C_3   0.510434 0.622664 0.053389 -0.250962
H64   H     H_    0.398507 0.649571 0.038020 0.098434
H65   H     H_    0.579407 0.615962 0.002123 0.105105
H66   H     H_    0.591391 0.670125 0.096886 0.163477
N8    N     N_2   0.344034 0.672963 0.492919 -0.422606
H67   H     H_    0.234377 0.657918 0.515824 0.228411
C48   C     C_3   0.364521 0.622477 0.421690 0.007090
H68   H     H_    0.405508 0.666625 0.377843 -0.018128
H69   H     H_    0.434857 0.569652 0.430923 0.152488
H70   H     H_    0.253835 0.583234 0.395308 0.104264
N9    N     N_3   0.013402 0.703960 0.120968 -0.515934
H71   H     H_    0.915213 0.655759 0.131901 0.219618
H72   H     H_    0.116755 0.673974 0.120671 0.171616
N10   N     N_3   0.176847 0.816054 0.639174 -0.490432
H73   H     H_    0.159519 0.792211 0.581057 0.166497
H74   H     H_    0.301578 0.840341 0.653195 0.170907

loop_
_geom_bond_atom_site_label_1
_geom_bond_atom_site_label_2
_ccdc_geom_bond_type
Ba1   O1    S    
C48   H68   S    
N8    C48   S    
Ba2   P4    S    
C39   C40   S    
O19   P6    D    
C33   C37   A    
C30   P7    S    
N3    H49   S    
Ba1   O13   S    
C18   P8    S    
C46   H60   S    
C5    C6    S    
C32   P3    S    
C38   H2    S    
C10   C11   A    
C6    H25   S    
C24   H34   S    
C3    H14   S    
C41   O2    S    
C4    H17   S    
C25   H40   S    
C33   C35   A    
C35   C36   A    
N5    H58   S    
C16   C17   A    
N7    C47   S    
Ba1   P2    S    
C28   C29   A    
C7    N5    S    
O1    P1    D    
C38   N2    S    
C13   C14   A    
C29   H39   S    
C28   C36   S    
Ba1   Ba2   S    
C47   H66   S    
Ba2   O4    S    
C17   C24   A    
O6    P8    S    
C43   H46   S    
C9    H33   S    
Ba1   O23   S    
O18   P6    S    
C34   O7    S    
C9    C15   A    
O9    P5    S    
C14   C15   A    
C47   H64   S    
C2    N1    S    
C14   N7    S    
O11   P5    S    
C7    C8    S    
O16   P8    D    
O23   P3    S    
C8    H27   S    
C47   H65   S    
Ba2   O14   S    
C48   H69   S    
C19   C20   A    
C2    H12   S    
C39   N3    S    
C35   H37   S    
C45   H56   S    
C42   H9    S    
C46   H61   S    
N9    H71   S    
C3    O15   S    
O20   P1    S    
N1    C43   S    
C38   H1    S    
C2    O21   S    
O3    P3    S    
C39   O20   S    
C3    H15   S    
C32   C37   A    
C12   H29   S    
C4    H16   S    
C34   C38   S    
C7    H26   S    
C45   H55   S    
C23   N9    S    
C31   H35   S    
N9    H72   S    
Ba1   O22   S    
C17   P4    S    
C34   H42   S    
O22   P2    D    
C37   N8    S    
C23   H20   S    
O2    P2    S    
C44   H51   S    
C41   C42   S    
C12   O3    S    
C27   C28   A    
N10   H73   S    
C26   P5    S    
C5    H21   S    
C29   C30   A    
O24   P3    D    
C11   H32   S    
Ba2   O8    S    
N1    H43   S    
C23   H41   S    
C31   C32   A    
C39   H3    S    
C21   C22   T    
O10   P5    D    
C40   H4    S    
N5    H57   S    
Ba2   O6    S    
Ba1   O18   S    
C43   H44   S    
C1    H13   S    
C13   C22   S    
Ba2   O13   S    
C6    H24   S    
C48   H70   S    
C11   C13   A    
N2    H47   S    
O17   P8    S    
C12   H38   S    
C1    C2    S    
C25   C26   A    
C46   H62   S    
C34   N10   S    
N6    C46   S    
C26   C27   A    
O12   P1    S    
C5    O11   S    
C25   C30   A    
C16   C20   A    
C45   H54   S    
N3    C44   S    
Ba1   O12   S    
Ba1   O8    S    
N4    C45   S    
C9    C10   A    
C41   H6    S    
N4    H53   S    
C1    H19   S    
C19   H31   S    
C31   C36   A    
O5    P4    S    
C40   N4    S    
O15   P7    S    
C4    H18   S    
N10   H74   S    
C44   H50   S    
C16   N6    S    
N7    H63   S    
C1    H8    S    
C5    H22   S    
C8    H30   S    
C42   H11   S    
C41   H7    S    
C3    C4    S    
C27   H36   S    
C18   C24   A    
O13   P2    S    
C7    O17   S    
O8    P7    S    
O7    P4    S    
O4    P4    D    
C12   C23   S    
Ba2   O5    S    
O21   P6    S    
C43   H45   S    
C40   H5    S    
C44   H52   S    
C42   H10   S    
C18   C19   A    
Ba2   O12   S    
C6    H23   S    
Ba1   O5    S    
N8    H67   S    
N2    H48   S    
C20   C21   S    
O14   P7    D    
Ba2   O9    S    
C10   P1    S    
Ba1   P1    S    
C33   P2    S    
N6    H59   S    
C15   P6    S    
C8    H28   S    
