data_mof_unit_2498.cif
_audit_creation_date              2012-12-10T18:23:06-0500
_audit_creation_method            fapswitch 2.2
_symmetry_space_group_name_H-M    P1
_symmetry_Int_Tables_number       1
_space_group_crystal_system       triclinic
_cell_length_a                    14.9618
_cell_length_b                    14.02753
_cell_length_c                    10.49546
_cell_angle_alpha                 90.436195
_cell_angle_beta                  90.945738
_cell_angle_gamma                 89.927529
_cell_volume                      2202.39136568

loop_
_atom_site_label
_atom_site_type_symbol
_atom_type_description
_atom_site_fract_x
_atom_site_fract_y
_atom_site_fract_z
_atom_type_partial_charge
C1    C     C_R   0.327013 0.499985 0.494355 0.889036
C2    C     C_R   0.672990 0.500003 0.505673 0.888746
C3    C     C_R   0.953294 0.499772 0.503967 0.028356
C4    C     C_R   0.046731 0.499821 0.496486 0.028570
C5    C     C_R   0.903095 0.447500 0.412960 0.127137
C6    C     C_R   0.096930 0.552122 0.587464 0.127305
C7    C     C_R   0.962756 0.604815 0.689986 -0.225677
C8    C     C_R   0.037269 0.394752 0.310493 -0.224782
C9    C     C_R   0.055001 0.604439 0.682832 -0.219486
C10   C     C_R   0.945026 0.395118 0.317657 -0.219551
C11   C     C_R   0.549366 0.797013 0.413538 -0.046248
C12   C     C_R   0.450825 0.203089 0.586793 -0.044416
C13   C     C_R   0.449581 0.798003 0.585306 -0.050843
C14   C     C_R   0.549868 0.201857 0.414141 -0.051040
C15   C     C_R   0.446956 0.899166 0.588211 -0.030725
C16   C     C_R   0.553335 0.100703 0.412488 -0.031476
C17   C     C_R   0.550224 0.898099 0.408667 -0.021968
C18   C     C_R   0.448849 0.101954 0.590526 -0.030521
C19   C     C_R   0.499609 0.949477 0.499693 -0.006126
C20   C     C_R   0.500137 0.050490 0.500376 -0.003895
C21   C     C_R   0.393243 0.950220 0.676678 0.137487
C22   C     C_R   0.607648 0.049568 0.324862 0.131455
C23   C     C_R   0.600763 0.947988 0.316308 0.135644
C24   C     C_R   0.397078 0.052024 0.681322 0.136193
C25   C     C_R   0.498560 0.499636 0.257115 0.862162
C26   C     C_R   0.501439 0.500386 0.742893 0.862468
C27   C     C_3   0.432366 0.555484 0.039745 -0.169204
C28   C     C_3   0.567640 0.444676 0.960293 -0.171838
C29   C     C_3   0.512114 0.590288 0.961399 -0.142940
C30   C     C_3   0.487888 0.409852 0.038620 -0.144669
C31   C     C_3   0.421951 0.466388 0.953451 -0.187485
C32   C     C_3   0.578041 0.533770 0.046584 -0.185758
C33   C     C_3   0.501625 0.501126 0.877849 0.038336
C34   C     C_3   0.498374 0.498999 0.122175 0.039033
C35   C     C_R   0.811219 0.448827 0.417185 -0.306088
C36   C     C_R   0.188801 0.550947 0.583090 -0.304927
C37   C     C_R   0.768451 0.499826 0.512331 -0.100532
C38   C     C_R   0.231557 0.500079 0.487816 -0.100088
C39   C     C_R   0.816199 0.548732 0.610031 0.106326
C40   C     C_R   0.183806 0.451047 0.390234 0.105933
C41   C     C_R   0.910283 0.551605 0.602453 0.104102
C42   C     C_R   0.089737 0.448027 0.397960 0.104457
H1    H     H_    0.359172 0.438989 0.908918 0.127686
H2    H     H_    0.640784 0.561235 0.091143 0.127853
H3    H     H_    0.377885 0.601235 0.076528 0.135192
H4    H     H_    0.622148 0.398957 0.923532 0.135687
H5    H     H_    0.522416 0.663660 0.925648 0.138837
H6    H     H_    0.477665 0.336419 0.074300 0.136851
H7    H     H_    0.772201 0.410729 0.344956 0.150286
H8    H     H_    0.227827 0.589080 0.655278 0.150224
H9    H     H_    0.934001 0.647467 0.764921 0.160150
H10   H     H_    0.066025 0.352105 0.235552 0.160227
H11   H     H_    0.093717 0.645302 0.752283 0.144262
H12   H     H_    0.906309 0.354253 0.248209 0.144328
H13   H     H_    0.588123 0.753660 0.349691 0.154197
H14   H     H_    0.412624 0.246659 0.651025 0.155092
H15   H     H_    0.412724 0.755290 0.651186 0.153585
H16   H     H_    0.585154 0.244371 0.346270 0.150796
N1    N     N_R   0.500000 0.750030 0.500000 -0.113428
N2    N     N_R   0.500000 0.249970 0.500000 -0.112872
O1    O     O_R   0.367850 0.580280 0.500030 -0.615166
O2    O     O_R   0.632150 0.419720 0.499970 -0.615021
O3    O     O_R   0.632150 0.580280 0.499970 -0.634281
O4    O     O_R   0.367850 0.419720 0.500030 -0.633531
O5    O     O_R   0.499970 0.580260 0.313950 -0.623925
O6    O     O_R   0.500030 0.419740 0.686050 -0.624470
O7    O     O_R   0.500030 0.580260 0.686050 -0.640616
O8    O     O_R   0.499970 0.419740 0.313950 -0.640538
Zn1   Zn    Zn3+2 0.500000 0.607200 0.500000 0.928120
Zn2   Zn    Zn3+2 0.500000 0.392800 0.500000 0.928803
C43   C     C_3   0.768053 0.591219 0.724705 -0.412185
C44   C     C_3   0.784333 0.531144 0.843731 -0.896542
H17   H     H_    0.856422 0.525521 0.868556 0.266241
H18   H     H_    0.749969 0.564485 0.925533 0.248375
H19   H     H_    0.757426 0.458215 0.827978 0.257282
H20   H     H_    0.789028 0.666140 0.741686 0.196026
H21   H     H_    0.694773 0.595106 0.710693 0.224789
C45   C     C_3   0.231923 0.408593 0.275507 -0.411347
C46   C     C_3   0.215533 0.468635 0.156475 -0.896891
H22   H     H_    0.249832 0.435280 0.074620 0.248730
H23   H     H_    0.143420 0.474241 0.131784 0.266186
H24   H     H_    0.242455 0.541570 0.172138 0.257264
H25   H     H_    0.305212 0.404775 0.289428 0.225057
H26   H     H_    0.211009 0.333647 0.258578 0.196879
C47   C     C_3   0.329043 0.896037 0.761791 -0.414281
C48   C     C_3   0.376049 0.859475 0.882331 -0.898812
H27   H     H_    0.398690 0.920104 0.943009 0.255815
H28   H     H_    0.328902 0.815627 0.937619 0.252948
H29   H     H_    0.434957 0.815020 0.858760 0.257496
H30   H     H_    0.270777 0.939852 0.789181 0.216538
H31   H     H_    0.297080 0.836077 0.708788 0.190582
C49   C     C_3   0.676076 0.103244 0.246265 -0.415685
C50   C     C_3   0.636713 0.134705 0.117978 -0.873135
H32   H     H_    0.616934 0.072056 0.058894 0.266635
H33   H     H_    0.577064 0.180526 0.131979 0.249847
H34   H     H_    0.687423 0.176083 0.065647 0.246049
H35   H     H_    0.702736 0.166106 0.299003 0.190936
H36   H     H_    0.737820 0.061008 0.232683 0.190875
C51   C     C_3   0.643526 0.892572 0.206388 -0.416774
C52   C     C_3   0.572801 0.855191 0.111616 -0.877344
H37   H     H_    0.524798 0.806435 0.156996 0.264233
H38   H     H_    0.535196 0.915907 0.069887 0.261798
H39   H     H_    0.605890 0.815668 0.033380 0.243969
H40   H     H_    0.689848 0.935062 0.149419 0.219710
H41   H     H_    0.685605 0.833443 0.243354 0.185997
C53   C     C_3   0.348428 0.107364 0.785408 -0.423070
C54   C     C_3   0.257887 0.144714 0.737790 -0.880080
H42   H     H_    0.265688 0.192790 0.655286 0.260728
H43   H     H_    0.213732 0.084713 0.708239 0.255332
H44   H     H_    0.225072 0.185144 0.815478 0.250923
H45   H     H_    0.338282 0.064091 0.871636 0.217101
H46   H     H_    0.390192 0.166958 0.822716 0.191011

loop_
_geom_bond_atom_site_label_1
_geom_bond_atom_site_label_2
_ccdc_geom_bond_type
C23   C51   S    
C50   H32   S    
C27   C29   S    
C19   C20   A    
C6    C9    A    
C47   H31   S    
C49   H36   S    
C39   C41   A    
C53   H46   S    
C47   C48   S    
C15   C19   A    
C28   H4    S    
C17   C23   A    
C31   H1    S    
C29   H5    S    
C18   C24   A    
C26   O7    A    
C30   H6    S    
C35   C37   A    
C8    C42   A    
C29   C32   S    
C30   C31   S    
C48   H28   S    
C13   H15   S    
C53   C54   S    
C29   C33   S    
O2    Zn2   S    
C49   C50   S    
C45   H25   S    
C11   C17   A    
O3    Zn1   S    
C14   H16   S    
C35   H7    S    
C54   H42   S    
C31   C33   S    
O4    Zn2   S    
C8    H10   S    
C18   C20   A    
C25   C34   S    
C27   H3    S    
C40   C42   A    
C51   H40   S    
C50   H33   S    
C54   H43   S    
C25   O8    A    
C44   H19   S    
C11   N1    A    
C49   H35   S    
C53   H45   S    
C27   C34   S    
C51   H41   S    
C21   C47   S    
C30   C34   S    
C27   C31   S    
C26   O6    A    
C28   C32   S    
C25   O5    A    
C44   H18   S    
C46   H23   S    
C48   H27   S    
C52   H39   S    
O7    Zn1   S    
C32   C34   S    
C26   C33   S    
C51   C52   S    
N2    Zn2   S    
C16   C20   A    
C52   H38   S    
C32   H2    S    
C12   H14   S    
C1    C38   S    
N1    Zn1   S    
C4    C6    A    
C28   C33   S    
C50   H34   S    
C13   C15   A    
C54   H44   S    
C40   C45   S    
C9    H11   S    
C3    C4    A    
C1    O4    A    
C43   H21   S    
C36   H8    S    
C2    O3    A    
O1    Zn1   S    
C7    C9    A    
C3    C41   A    
C16   C22   A    
C45   C46   S    
C22   C49   S    
C44   H17   S    
C3    C5    A    
C48   H29   S    
C1    O1    A    
C46   H24   S    
C47   H30   S    
C13   N1    A    
C14   N2    A    
O6    Zn2   S    
C11   H13   S    
C43   C44   S    
C28   C30   S    
C7    H9    S    
C5    C10   A    
C37   C39   A    
C38   C40   A    
C2    C37   S    
C43   H20   S    
C4    C42   A    
O5    Zn1   S    
C5    C35   A    
C36   C38   A    
C52   H37   S    
C17   C19   A    
C6    C36   A    
C14   C16   A    
C7    C41   A    
C10   H12   S    
C46   H22   S    
C12   N2    A    
C45   H26   S    
C15   C21   A    
C24   C53   S    
C8    C10   A    
C21   C24   A    
C12   C18   A    
O8    Zn2   S    
C39   C43   S    
C22   C23   A    
C2    O2    A    
