data_mof_unit_2202.cif
_audit_creation_date              2012-10-26T18:50:05-0400
_audit_creation_method            fapswitch 2.2
_symmetry_space_group_name_H-M    P1
_symmetry_Int_Tables_number       1
_space_group_crystal_system       triclinic
_cell_length_a                    10.786943
_cell_length_b                    12.995693
_cell_length_c                    11.676994
_cell_angle_alpha                 99.790408
_cell_angle_beta                  93.491584
_cell_angle_gamma                 90.392102
_cell_volume                      1609.84537222

loop_
_atom_site_label
_atom_site_type_symbol
_atom_type_description
_atom_site_fract_x
_atom_site_fract_y
_atom_site_fract_z
_atom_type_partial_charge
C1    C     C_R   0.498104 0.299095 0.478676 0.528217
C2    C     C_R   0.494810 0.860669 0.433734 -0.142146
C3    C     C_R   0.504523 0.031278 0.555908 0.045011
C4    C     C_R   0.495477 0.968722 0.444092 0.045011
C5    C     C_R   0.387363 0.398413 0.021893 -0.174234
C6    C     C_R   0.612637 0.601587 0.978106 -0.174234
C7    C     C_R   0.397629 0.408539 0.144066 0.048367
C8    C     C_R   0.602371 0.591461 0.855934 0.048367
C9    C     C_R   0.547905 0.544491 0.157007 0.049498
C10   C     C_R   0.452095 0.455509 0.842992 0.049498
C11   C     C_R   0.540709 0.537061 0.034186 0.007589
C12   C     C_R   0.501896 0.700905 0.521324 0.528216
C13   C     C_R   0.459291 0.462939 0.965814 0.007589
C14   C     C_R   0.262862 0.500148 0.500595 0.531653
C15   C     C_R   0.737137 0.499852 0.499405 0.531654
C16   C     C_R   0.129914 0.317686 0.535314 -0.102943
C17   C     C_R   0.870085 0.682313 0.464683 -0.102944
C18   C     C_R   0.065488 0.228120 0.550360 -0.123847
C19   C     C_R   0.934511 0.771877 0.449633 -0.123848
C20   C     C_R   0.936530 0.227600 0.548497 -0.120236
C21   C     C_R   0.063469 0.772397 0.451496 -0.120236
C22   C     C_R   0.871510 0.316667 0.531652 -0.092401
C23   C     C_R   0.502986 0.814294 0.533631 -0.008158
C24   C     C_R   0.128489 0.683331 0.468344 -0.092401
C25   C     C_R   0.935072 0.408795 0.516625 0.008717
C26   C     C_R   0.064928 0.591205 0.483374 0.008717
C27   C     C_R   0.065749 0.409284 0.518415 0.005806
C28   C     C_R   0.934251 0.590716 0.481583 0.005806
C29   C     C_R   0.870805 0.499548 0.498340 -0.015616
C30   C     C_R   0.129195 0.500452 0.501660 -0.015616
C31   C     C_R   0.497014 0.185706 0.466369 -0.008158
C32   C     C_R   0.487205 0.015169 0.344377 -0.141632
C33   C     C_R   0.512795 0.984831 0.655622 -0.141632
C34   C     C_R   0.487951 0.123307 0.355451 -0.135971
C35   C     C_R   0.512049 0.876693 0.644549 -0.135971
C36   C     C_R   0.505190 0.139331 0.566266 -0.142145
Cu1   Cu    Cu3+1 0.509250 0.507730 0.615930 0.926160
Cu2   Cu    Cu3+1 0.490750 0.492270 0.384070 0.926159
H1    H     H_    0.113437 0.842171 0.440263 0.114319
H2    H     H_    0.228736 0.687826 0.470122 0.129723
H3    H     H_    0.487867 0.812933 0.347778 0.120617
H4    H     H_    0.512133 0.187067 0.652221 0.120617
H5    H     H_    0.518531 0.842066 0.722726 0.130853
H6    H     H_    0.481469 0.157934 0.277274 0.130853
H7    H     H_    0.480201 0.968014 0.258176 0.103182
H8    H     H_    0.519799 0.031985 0.741823 0.103182
H9    H     H_    0.389437 0.398929 0.789581 0.115279
H10   H     H_    0.610563 0.601071 0.210419 0.115279
H11   H     H_    0.658025 0.641680 0.813668 0.126768
H12   H     H_    0.886562 0.157826 0.559726 0.114319
H13   H     H_    0.341975 0.358320 0.186332 0.126768
H14   H     H_    0.323768 0.340503 0.971807 0.087943
H15   H     H_    0.676232 0.659497 0.028193 0.087943
H16   H     H_    0.230109 0.314030 0.536621 0.122309
H17   H     H_    0.769890 0.685970 0.463375 0.122309
H18   H     H_    0.115871 0.158763 0.563083 0.112624
H19   H     H_    0.884128 0.841233 0.436907 0.112624
H20   H     H_    0.771264 0.312172 0.529874 0.129722
N1    N     N_R   0.523180 0.519350 0.790130 -0.227895
N2    N     N_R   0.476820 0.480650 0.209870 -0.227895
O1    O     O_R   0.506570 0.354460 0.582000 -0.518860
O2    O     O_R   0.493430 0.645540 0.418000 -0.518860
O3    O     O_R   0.490940 0.341410 0.386200 -0.507265
O4    O     O_R   0.509060 0.658590 0.613800 -0.507265
O5    O     O_R   0.327470 0.506520 0.597900 -0.501723
O6    O     O_R   0.672530 0.493480 0.402100 -0.501724
O7    O     O_R   0.311840 0.493460 0.402100 -0.501705
O8    O     O_R   0.688160 0.506540 0.597900 -0.501704

loop_
_geom_bond_atom_site_label_1
_geom_bond_atom_site_label_2
_ccdc_geom_bond_type
C22   H20   S    
Cu1   O1    S    
C14   O7    A    
C5    H14   S    
C15   C29   S    
Cu1   Cu2   S    
C33   C35   A    
C25   C27   A    
C35   H5    S    
C32   H7    S    
C17   H17   S    
C36   H4    S    
C21   H1    S    
C18   H18   S    
C9    N2    A    
C2    C23   A    
C16   C27   A    
C6    C8    A    
C10   N1    A    
C20   C22   A    
C31   C34   A    
C7    H13   S    
C4    C32   A    
C26   C28   A    
C19   H19   S    
C27   C30   A    
C33   H8    S    
C9    C11   A    
C12   C23   S    
Cu1   N1    S    
C3    C36   A    
C14   C30   S    
Cu2   N2    S    
C2    C4    A    
C1    O3    A    
Cu1   O5    S    
C28   C29   A    
C19   C21   A    
C14   O5    A    
C24   C26   A    
C26   C30   A    
C18   C20   A    
C6    C11   A    
C8    N1    A    
C25   C29   A    
C12   O4    A    
C23   C35   A    
C16   H16   S    
C11   C13   A    
C15   O8    A    
C6    H15   S    
C3    C4    A    
Cu1   O8    S    
C7    N2    A    
C1    C31   S    
Cu1   O4    S    
C12   O2    A    
Cu2   O7    S    
C9    H10   S    
C16   C18   A    
Cu2   O3    S    
C15   O6    A    
C21   C24   A    
C10   H9    S    
C5    C7    A    
C34   H6    S    
C3    C33   A    
C31   C36   A    
C24   H2    S    
C20   H12   S    
C2    H3    S    
C17   C19   A    
C17   C28   A    
C5    C13   A    
C8    H11   S    
C10   C13   A    
Cu2   O6    S    
C32   C34   A    
Cu2   O2    S    
C22   C25   A    
C1    O1    A    
