data_mof_unit_3367.cif
_audit_creation_date              2012-12-11T15:09:47-0500
_audit_creation_method            fapswitch 2.2
_symmetry_space_group_name_H-M    P1
_symmetry_Int_Tables_number       1
_space_group_crystal_system       triclinic
_cell_length_a                    20.953444
_cell_length_b                    7.128898
_cell_length_c                    14.00647
_cell_angle_alpha                 89.860911
_cell_angle_beta                  98.299932
_cell_angle_gamma                 90.137607
_cell_volume                      2070.29146498

loop_
_atom_site_label
_atom_site_type_symbol
_atom_type_description
_atom_site_fract_x
_atom_site_fract_y
_atom_site_fract_z
_atom_type_partial_charge
O1    O     O_R   0.447130 0.507140 0.597350 -0.530515
O2    O     O_R   0.552870 0.007140 0.402650 -0.526316
O3    O     O_R   0.578910 0.181280 0.586990 -0.533314
O4    O     O_R   0.421090 0.681280 0.413010 -0.534660
C1    C     C_R   0.604467 0.344509 0.607428 0.753219
C2    C     C_R   0.395495 0.844421 0.392682 0.752100
O5    O     O_R   0.449230 0.177860 0.608640 -0.550773
O6    O     O_R   0.550770 0.677860 0.391360 -0.553686
O7    O     O_R   0.422260 0.000770 0.424450 -0.541535
O8    O     O_R   0.577740 0.500770 0.575550 -0.541171
C3    C     C_R   0.432184 0.345983 0.633790 0.780719
C4    C     C_R   0.567767 0.846785 0.366033 0.780663
O9    O     O_3   0.491310 0.336980 0.439550 -0.377522
O10   O     O_3   0.508690 0.836980 0.560450 -0.376857
V1    V     V_3+5 0.501610 0.064760 0.511210 1.523800
V2    V     V_3+5 0.498390 0.564760 0.488790 1.516598
C5    C     C_R   0.615568 0.991294 0.128383 0.267017
C6    C     C_R   0.388482 0.422783 0.881157 0.263138
C7    C     C_R   0.606125 0.862396 0.286665 -0.228806
C8    C     C_R   0.393848 0.356740 0.713053 -0.225617
C9    C     C_R   0.916256 0.853262 0.301457 0.308036
C10   C     C_R   0.084765 0.359769 0.698849 0.308201
C11   C     C_R   0.879387 0.891293 0.375671 -0.144116
C12   C     C_R   0.122029 0.404688 0.625858 -0.143320
C13   C     C_R   0.812759 0.923199 0.352782 -0.062282
C14   C     C_R   0.188627 0.436228 0.650083 -0.058203
C15   C     C_R   0.780828 0.894370 0.256922 0.086002
C16   C     C_R   0.220136 0.397633 0.745216 0.083608
C17   C     C_R   0.818502 0.884443 0.180286 -0.072674
C18   C     C_R   0.182020 0.385445 0.821180 -0.073266
C19   C     C_R   0.712208 0.890096 0.234960 0.017796
C20   C     C_R   0.288702 0.382472 0.767321 0.015467
C21   C     C_R   0.682335 0.943781 0.141921 -0.117011
C22   C     C_R   0.319601 0.416491 0.862895 -0.105137
C23   C     C_R   0.719160 0.937524 0.064937 -0.072565
C24   C     C_R   0.280714 0.441291 0.936603 -0.064766
C25   C     C_R   0.785948 0.898676 0.083170 -0.103975
C26   C     C_R   0.213985 0.403120 0.918232 -0.108897
C27   C     C_R   0.672893 0.823306 0.301957 0.228793
C28   C     C_R   0.326749 0.324067 0.697066 0.227546
C29   C     C_R   0.577747 0.949633 0.201153 0.322661
C30   C     C_R   0.424505 0.411343 0.804058 0.315180
C31   C     C_R   0.886897 0.862653 0.204741 -0.132471
C32   C     C_R   0.113604 0.364774 0.795895 -0.131378
C33   C     C_1   0.166532 0.857304 0.168422 -0.129569
C34   C     C_1   0.833364 0.356964 0.831848 -0.129532
C35   C     C_1   0.218906 0.855017 0.219641 0.049807
C36   C     C_1   0.780932 0.354654 0.780785 0.044214
C37   C     C_1   0.280630 0.853472 0.279729 0.067244
C38   C     C_1   0.719194 0.353298 0.720745 0.059357
C39   C     C_1   0.333037 0.850994 0.330875 -0.125943
C40   C     C_1   0.666840 0.351097 0.669459 -0.125099
O11   O     O_R   0.922300 0.202240 0.924350 -0.527230
O12   O     O_R   0.077700 0.702240 0.075650 -0.525844
O13   O     O_R   0.050780 0.535130 0.891350 -0.546351
O14   O     O_R   0.949220 0.035130 0.108650 -0.546562
C41   C     C_R   0.069429 0.368857 0.867973 0.791540
C42   C     C_R   0.930659 0.868356 0.132111 0.791679
O15   O     O_R   0.921100 0.531560 0.912990 -0.527220
O16   O     O_R   0.078900 0.031560 0.087010 -0.528686
O17   O     O_R   0.947120 0.708470 0.097370 -0.537382
O18   O     O_R   0.052880 0.208470 0.902630 -0.537655
C43   C     C_R   0.895870 0.363515 0.893500 0.730758
C44   C     C_R   0.104101 0.863629 0.106567 0.730975
O19   O     O_3   0.008710 0.375800 0.060400 -0.369799
O20   O     O_3   0.991290 0.875800 0.939600 -0.369777
V3    V     V_3+5 0.998380 0.648080 0.988790 1.553080
V4    V     V_3+5 0.001620 0.148080 0.011210 1.550185
O21   O     O_3   0.512745 0.993523 0.191686 -0.635189
H1    H     H_    0.498057 0.047638 0.127162 0.344637
O22   O     O_3   0.490679 0.437752 0.816891 -0.633220
H2    H     H_    0.505212 0.490327 0.881772 0.348052
C45   C     C_1   0.687642 0.946312 0.965261 0.356936
N1    N     N_1   0.662827 0.952954 0.885930 -0.313337
C46   C     C_1   0.307646 0.511065 0.031503 0.361449
N2    N     N_1   0.328789 0.566843 0.107055 -0.326297
O23   O     O_3   0.587202 0.090128 0.048683 -0.629002
H3    H     H_    0.618425 0.187259 0.034269 0.302474
O24   O     O_3   0.422032 0.430508 0.973084 -0.626944
H4    H     H_    0.406917 0.322489 0.008658 0.304032
O25   O     O_3   0.701014 0.712985 0.378184 -0.637094
H5    H     H_    0.668007 0.660521 0.414361 0.296172
O26   O     O_3   0.297148 0.227821 0.616692 -0.636228
H6    H     H_    0.329398 0.180088 0.577925 0.293737
O27   O     O_3   0.982165 0.820906 0.319399 -0.639903
H7    H     H_    0.996191 0.798668 0.388941 0.315384
O28   O     O_3   0.018931 0.326386 0.679557 -0.639688
H8    H     H_    0.005678 0.304500 0.609822 0.313356
C47   C     C_1   0.779670 0.013444 0.424771 0.398574
N3    N     N_1   0.753483 0.085717 0.482036 -0.347532
C48   C     C_1   0.222080 0.536136 0.581246 0.400312
N4    N     N_1   0.248570 0.616100 0.526500 -0.348927
C49   C     C_1   0.910262 0.908473 0.474931 0.321001
N5    N     N_1   0.934851 0.922174 0.554094 -0.314096
C50   C     C_1   0.091644 0.428935 0.526770 0.322544
N6    N     N_1   0.067459 0.448114 0.447701 -0.317313
C51   C     C_1   0.818574 0.875328 0.999336 0.245995
N7    N     N_1   0.843151 0.857482 0.931078 -0.304393
C52   C     C_1   0.181048 0.383329 0.002011 0.247737
N8    N     N_1   0.156245 0.367361 0.070225 -0.305130

loop_
_geom_bond_atom_site_label_1
_geom_bond_atom_site_label_2
_ccdc_geom_bond_type
O20   V4    S    
O28   H8    S    
C49   N5    T    
C15   C17   A    
C45   N1    T    
C50   N6    T    
O1    C3    A    
O2    C4    A    
C2    O7    A    
C25   C51   S    
C51   N7    T    
C41   O18   A    
C35   C37   S    
O27   H7    S    
O5    C3    A    
C23   C25   A    
C12   C14   A    
C6    C30   A    
C8    C28   A    
C18   C26   A    
O11   V4    S    
C31   C42   S    
O15   V3    S    
C9    C31   A    
C10   C32   A    
O26   H6    S    
O14   C42   A    
C6    O24   S    
C37   C39   T    
C38   C40   T    
C19   C21   A    
C1    C40   S    
C2    C39   S    
O23   H3    S    
C42   O17   A    
C36   C38   S    
O20   V3    S    
O6    V2    S    
C17   C31   A    
C28   O26   S    
C18   C32   A    
C5    C21   A    
C14   C16   A    
O25   H5    S    
C9    O27   S    
C33   C35   T    
C34   C36   T    
C3    C8    S    
C15   C19   A    
C16   C20   A    
C27   O25   S    
O4    C2    A    
C12   C50   S    
C48   N4    T    
O12   V3    S    
O19   V3    S    
C14   C48   S    
O14   V4    S    
C11   C49   S    
C20   C22   A    
O4    V2    S    
C46   N2    T    
C24   C46   S    
O17   V3    S    
C8    C30   A    
C52   N8    T    
C32   C41   S    
O6    C4    A    
O19   V4    S    
C5    O23   S    
O1    V2    S    
C10   O28   S    
O2    V1    S    
C6    C22   A    
C7    C27   A    
O13   C41   A    
C10   C12   A    
C24   C26   A    
O3    V1    S    
C29   O21   S    
C23   C45   S    
O15   C43   A    
C26   C52   S    
O3    C1    A    
O13   V3    S    
C16   C18   A    
C13   C15   A    
C33   C44   S    
C13   C47   S    
O18   V4    S    
C34   C43   S    
O16   C44   A    
C9    C11   A    
O7    V1    S    
C1    O8    A    
O8    V2    S    
O11   C43   A    
O12   C44   A    
C4    C7    S    
O5    V1    S    
C30   O22   S    
C21   C23   A    
C19   C27   A    
C22   C24   A    
C20   C28   A    
O21   H1    S    
C5    C29   A    
O24   H4    S    
O22   H2    S    
C11   C13   A    
O16   V4    S    
O9    V2    S    
C17   C25   A    
O10   V1    S    
C47   N3    T    
C7    C29   A    
