data_mof_unit_2167.cif
_audit_creation_date              2012-12-10T17:56:18-0500
_audit_creation_method            fapswitch 2.2
_symmetry_space_group_name_H-M    P1
_symmetry_Int_Tables_number       1
_space_group_crystal_system       triclinic
_cell_length_a                    13.038932
_cell_length_b                    10.795804
_cell_length_c                    9.520561
_cell_angle_alpha                 89.928821
_cell_angle_beta                  95.625639
_cell_angle_gamma                 90.175179
_cell_volume                      1333.70737306

loop_
_atom_site_label
_atom_site_type_symbol
_atom_type_description
_atom_site_fract_x
_atom_site_fract_y
_atom_site_fract_z
_atom_type_partial_charge
C1    C     C_R   0.496547 0.262358 0.499629 0.856991
C2    C     C_R   0.503453 0.737642 0.500371 0.856994
C3    C     C_R   0.506082 0.871605 0.499845 -0.101596
C4    C     C_R   0.493917 0.128394 0.500155 -0.101596
C5    C     C_R   0.442736 0.415577 0.066706 0.001369
C6    C     C_R   0.557264 0.584423 0.933294 0.001369
C7    C     C_R   0.443040 0.415388 0.917983 0.011010
C8    C     C_R   0.556960 0.584612 0.082017 0.011010
C9    C     C_R   0.300972 0.497623 0.474453 0.861887
C10   C     C_R   0.699028 0.502377 0.525547 0.861890
C11   C     C_R   0.811061 0.498584 0.538938 -0.092665
C12   C     C_R   0.188939 0.501416 0.461062 -0.092666
C13   C     C_R   0.035735 0.600860 0.353585 -0.141905
C14   C     C_R   0.964265 0.399140 0.646415 -0.141904
C15   C     C_R   0.140454 0.579902 0.358989 -0.201427
C16   C     C_R   0.859546 0.420098 0.641011 -0.201428
C17   C     C_R   0.131577 0.438658 0.557687 -0.046085
C18   C     C_R   0.868422 0.561342 0.442313 -0.046086
C19   C     C_R   0.024287 0.459107 0.551799 0.078174
C20   C     C_R   0.975713 0.540893 0.448201 0.078174
C21   C     C_R   0.432133 0.060665 0.396819 0.012867
C22   C     C_R   0.567867 0.939335 0.603181 0.012866
C23   C     C_R   0.440474 0.932309 0.397009 -0.221137
C24   C     C_R   0.559525 0.067691 0.602991 -0.221137
Cu1   Cu    Cu3+1 0.500000 0.500020 0.640660 1.004331
Cu2   Cu    Cu3+1 0.500000 0.499980 0.359340 1.004331
N1    N     N_R   0.500030 0.500030 0.852080 -0.175800
N2    N     N_R   0.499970 0.499970 0.147920 -0.175800
O1    O     O_R   0.499990 0.319660 0.618740 -0.584176
O2    O     O_R   0.500010 0.680340 0.381260 -0.584176
O3    O     O_R   0.499990 0.319630 0.381170 -0.580644
O4    O     O_R   0.500010 0.680370 0.618830 -0.580644
O5    O     O_R   0.349000 0.499990 0.599490 -0.580457
O6    O     O_R   0.651000 0.500010 0.400510 -0.580457
O7    O     O_R   0.348990 0.499960 0.361920 -0.569843
O8    O     O_R   0.651010 0.500040 0.638080 -0.569843
C25   C     C_2   0.816117 0.648389 0.337279 0.826956
O9    O     O_2   0.766189 0.734982 0.377220 -0.571940
O10   O     O_R   0.822488 0.629540 0.193086 -0.767256
H1    H     H_    0.785915 0.696343 0.132477 0.320864
C26   C     C_2   0.183882 0.351613 0.662723 0.826959
O11   O     O_2   0.233809 0.265018 0.622784 -0.571943
O12   O     O_R   0.177514 0.370465 0.806915 -0.767255
H2    H     H_    0.214086 0.303664 0.867525 0.320863
H3    H     H_    0.815241 0.370058 0.713377 0.166915
H4    H     H_    0.184759 0.629941 0.286623 0.166915
H5    H     H_    0.003427 0.666544 0.275925 0.182329
H6    H     H_    0.996574 0.333456 0.724075 0.182327
C27   C     C_2   0.354590 0.118962 0.292540 0.836483
O13   O     O_2   0.308099 0.211602 0.323661 -0.578974
O14   O     O_R   0.332039 0.064888 0.159637 -0.763209
H7    H     H_    0.277748 0.112438 0.098081 0.332025
C28   C     C_2   0.645410 0.881038 0.707459 0.836482
O15   O     O_2   0.691901 0.788397 0.676337 -0.578971
O16   O     O_R   0.667963 0.935113 0.840361 -0.763209
H8    H     H_    0.722256 0.887564 0.901916 0.332026
H9    H     H_    0.392009 0.878509 0.320382 0.180302
H10   H     H_    0.607991 0.121491 0.679618 0.180302
H11   H     H_    0.396702 0.348048 0.116402 0.153868
H12   H     H_    0.603298 0.651952 0.883598 0.153868
H13   H     H_    0.398010 0.347157 0.855860 0.150741
H14   H     H_    0.601990 0.652843 0.144140 0.150741

loop_
_geom_bond_atom_site_label_1
_geom_bond_atom_site_label_2
_ccdc_geom_bond_type
C16   H3    S    
C12   C17   A    
C6    C8    A    
O12   H2    S    
C11   C18   A    
C25   O9    D    
C14   C16   A    
Cu1   N1    S    
C5    N2    A    
C11   C16   A    
Cu2   N2    S    
C19   C20   A    
C13   C20   A    
C12   C15   A    
C2    O2    A    
C1    C4    S    
Cu1   O4    S    
C21   C27   S    
C2    C3    S    
Cu2   O3    S    
C10   O6    A    
C28   O15   D    
C9    O5    A    
C4    C21   A    
C26   O12   S    
C8    N2    A    
C14   C19   A    
C2    O4    A    
C1    O1    A    
C17   C19   A    
C18   C25   S    
C10   O8    A    
Cu2   O2    S    
C22   C28   S    
C18   C20   A    
C28   O16   S    
C13   C15   A    
Cu1   O1    S    
C4    C24   A    
C9    C12   S    
C22   C24   A    
O16   H8    S    
C17   C26   S    
C23   H9    S    
C10   C11   S    
C5    H11   S    
Cu1   O8    S    
C9    O7    A    
O14   H7    S    
C6    H12   S    
Cu2   O7    S    
C1    O3    A    
C7    N1    A    
C24   H10   S    
C27   O13   D    
C26   O11   D    
Cu1   O5    S    
O10   H1    S    
C5    C7    A    
C3    C23   A    
C7    H13   S    
C3    C22   A    
C14   H6    S    
C15   H4    S    
Cu1   Cu2   S    
C13   H5    S    
C21   C23   A    
Cu2   O6    S    
C6    N1    A    
C8    H14   S    
C27   O14   S    
C25   O10   S    
