data_mof_unit_3635.cif
_audit_creation_date              2012-12-11T14:08:39-0500
_audit_creation_method            fapswitch 2.2
_symmetry_space_group_name_H-M    P1
_symmetry_Int_Tables_number       1
_space_group_crystal_system       triclinic
_cell_length_a                    28.114174
_cell_length_b                    7.180823
_cell_length_c                    17.359365
_cell_angle_alpha                 89.948273
_cell_angle_beta                  101.624726
_cell_angle_gamma                 89.925667
_cell_volume                      3432.66958835

loop_
_atom_site_label
_atom_site_type_symbol
_atom_type_description
_atom_site_fract_x
_atom_site_fract_y
_atom_site_fract_z
_atom_type_partial_charge
O1    O     O_R   0.000700 0.436510 0.857920 -0.536628
O2    O     O_R   0.999300 0.563490 0.142080 -0.536630
O3    O     O_R   0.999300 0.936510 0.642080 -0.534673
O4    O     O_R   0.000700 0.063490 0.357920 -0.534672
O5    O     O_R   0.930080 0.766380 0.721890 -0.505185
O6    O     O_R   0.069920 0.233620 0.278110 -0.505185
O7    O     O_R   0.069920 0.266380 0.778110 -0.495674
O8    O     O_R   0.930080 0.733620 0.221890 -0.495671
C1    C     C_R   0.910584 0.597881 0.708698 0.773224
C2    C     C_R   0.089416 0.402119 0.291301 0.773226
C3    C     C_R   0.089526 0.097300 0.790105 0.766309
C4    C     C_R   0.910474 0.902700 0.209895 0.766305
O9    O     O_R   0.996180 0.766230 0.862310 -0.537859
O10   O     O_R   0.003820 0.233770 0.137690 -0.537859
O11   O     O_R   0.003820 0.266230 0.637690 -0.537409
O12   O     O_R   0.996180 0.733770 0.362310 -0.537409
O13   O     O_R   0.065870 0.936460 0.783500 -0.553091
O14   O     O_R   0.934130 0.063540 0.216500 -0.553092
O15   O     O_R   0.934130 0.436460 0.716500 -0.551022
O16   O     O_R   0.065870 0.563540 0.283500 -0.551022
C5    C     C_R   0.998877 0.595888 0.894319 0.715388
C6    C     C_R   0.001123 0.404112 0.105681 0.715386
C7    C     C_R   0.001123 0.095957 0.605660 0.716517
C8    C     C_R   0.998876 0.904043 0.394340 0.716517
O17   O     O_3   0.022790 0.603020 0.723980 -0.366210
O18   O     O_3   0.977210 0.396980 0.276020 -0.366209
O19   O     O_3   0.977210 0.103020 0.776020 -0.371609
O20   O     O_3   0.022790 0.896980 0.223980 -0.371610
V1    V     V_3+5 0.995770 0.877900 0.754830 1.590129
V2    V     V_3+5 0.004230 0.122100 0.245170 1.590126
V3    V     V_3+5 0.004230 0.377900 0.745170 1.599017
V4    V     V_3+5 0.995770 0.622100 0.254830 1.599017
C9    C     C_2   0.995565 0.081113 0.518859 -0.242321
C10   C     C_2   0.004435 0.918887 0.481141 -0.242324
C11   C     C_2   0.004307 0.581141 0.981068 -0.253903
C12   C     C_2   0.995693 0.418858 0.018932 -0.253902
C13   C     C_R   0.684762 0.035160 0.037298 0.656625
C14   C     C_R   0.315237 0.964840 0.962708 0.656613
C15   C     C_R   0.315443 0.557590 0.465084 0.679736
C16   C     C_R   0.684557 0.442408 0.534912 0.679741
O21   O     O_2   0.716340 0.095896 0.993859 -0.488501
O22   O     O_2   0.283658 0.904104 0.006146 -0.488502
O23   O     O_2   0.284620 0.674807 0.490879 -0.495206
O24   O     O_2   0.715380 0.325186 0.509120 -0.495204
N1    N     N_R   0.702446 0.942010 0.105860 -0.543632
N2    N     N_R   0.297553 0.057987 0.894145 -0.543632
N3    N     N_R   0.296763 0.427770 0.409488 -0.540317
N4    N     N_R   0.703237 0.572231 0.590508 -0.540318
C17   C     C_R   0.672173 0.871498 0.150992 0.756474
C18   C     C_R   0.327826 0.128496 0.849013 0.756484
C19   C     C_R   0.326296 0.302422 0.382723 0.749114
C20   C     C_R   0.673705 0.697583 0.617271 0.749111
C21   C     C_R   0.778968 0.074938 0.177589 0.677382
C22   C     C_R   0.221032 0.925066 0.822411 0.677382
C23   C     C_R   0.222893 0.548195 0.321897 0.693604
C24   C     C_R   0.777107 0.451803 0.678099 0.693606
C25   C     C_R   0.829489 0.068075 0.204002 -0.300381
C26   C     C_R   0.170511 0.931930 0.795996 -0.300377
C27   C     C_R   0.172471 0.544411 0.292349 -0.308323
C28   C     C_R   0.827529 0.455586 0.707647 -0.308322
C29   C     C_R   0.830976 0.764725 0.141767 0.588878
C30   C     C_R   0.169023 0.235269 0.858239 0.588878
C31   C     C_R   0.165437 0.281982 0.377984 0.581343
C32   C     C_R   0.834563 0.718021 0.622015 0.581341
C33   C     C_R   0.780354 0.772440 0.116379 -0.223114
C34   C     C_R   0.219645 0.227553 0.883629 -0.223109
C35   C     C_R   0.215691 0.288618 0.408192 -0.229677
C36   C     C_R   0.784310 0.711385 0.591806 -0.229675
C37   C     C_R   0.754294 0.928704 0.133563 0.128768
C38   C     C_R   0.245705 0.071294 0.866441 0.128768
C39   C     C_R   0.244806 0.420797 0.379643 0.121506
C40   C     C_R   0.755194 0.579204 0.620354 0.121501
C41   C     C_R   0.602194 0.982931 0.055558 -0.139899
C42   C     C_R   0.397805 0.017068 0.944449 -0.139897
C43   C     C_R   0.397465 0.452553 0.461574 -0.109571
C44   C     C_R   0.602535 0.547450 0.538420 -0.109569
C45   C     C_R   0.634104 0.066794 0.012297 -0.030718
C46   C     C_R   0.365895 0.933208 0.987711 -0.030718
C47   C     C_R   0.366411 0.569527 0.494715 0.001155
C48   C     C_R   0.633589 0.430472 0.505280 0.001157
C49   C     C_R   0.614366 0.189546 0.949850 -0.134304
C50   C     C_R   0.385633 0.810461 0.050160 -0.134310
C51   C     C_R   0.387353 0.683848 0.559340 -0.126764
C52   C     C_R   0.612648 0.316151 0.440655 -0.126762
C53   C     C_R   0.621457 0.889618 0.126760 -0.277663
C54   C     C_R   0.378542 0.110377 0.873246 -0.277667
C55   C     C_R   0.377135 0.310733 0.408809 -0.278808
C56   C     C_R   0.622865 0.689272 0.591184 -0.278808
C57   C     C_R   0.856433 0.912558 0.185435 -0.285392
C58   C     C_R   0.143566 0.087442 0.814567 -0.285391
C59   C     C_R   0.143118 0.409642 0.320010 -0.277756
C60   C     C_R   0.856882 0.590358 0.679988 -0.277756
C61   C     C_R   0.480637 0.093803 0.928593 -0.183344
C62   C     C_R   0.519362 0.906195 0.071414 -0.183341
C63   C     C_R   0.520439 0.645991 0.550919 -0.158232
C64   C     C_R   0.479561 0.354014 0.449074 -0.158231
C65   C     C_R   0.468372 0.899914 0.039748 0.120862
C66   C     C_R   0.531627 0.100087 0.960260 0.120863
C67   C     C_R   0.530647 0.389413 0.461974 0.152092
C68   C     C_R   0.469353 0.610589 0.538019 0.152091
C69   C     C_R   0.449054 0.005951 0.971756 0.006721
C70   C     C_R   0.550945 0.994048 0.028252 0.006722
C71   C     C_R   0.551098 0.525613 0.517836 0.045151
C72   C     C_R   0.448903 0.474390 0.482158 0.045150
C73   C     C_R   0.460323 0.157063 0.851661 0.533087
C74   C     C_R   0.539676 0.842932 0.148346 0.533086
C75   C     C_R   0.541746 0.807849 0.589824 0.540381
C76   C     C_R   0.458255 0.192157 0.410168 0.540382
C77   C     C_R   0.410328 0.172849 0.825944 0.604112
C78   C     C_R   0.589671 0.827143 0.174062 0.604109
C79   C     C_R   0.591953 0.824333 0.613129 0.623723
C80   C     C_R   0.408047 0.175674 0.386863 0.623722
O25   O     O_2   0.308700 0.216217 0.781038 -0.439034
O26   O     O_2   0.691300 0.783774 0.218966 -0.439037
O27   O     O_2   0.693566 0.828136 0.669804 -0.427443
O28   O     O_2   0.306434 0.171872 0.330188 -0.427446
C81   C     C_R   0.563872 0.220469 0.930732 -0.034115
C82   C     C_R   0.436126 0.779536 0.069278 -0.034116
C83   C     C_R   0.438338 0.691966 0.584248 -0.070292
C84   C     C_R   0.561663 0.308036 0.415747 -0.070290
C85   C     C_1   0.974346 0.243997 0.475582 0.388288
N5    N     N_1   0.957220 0.374444 0.441696 -0.303297
C86   C     C_1   0.025653 0.756003 0.524418 0.388291
N6    N     N_1   0.042779 0.625555 0.558303 -0.303293
C87   C     C_1   0.024891 0.744787 0.024157 0.390902
N7    N     N_1   0.041480 0.875914 0.057877 -0.302881
C88   C     C_1   0.975109 0.255213 0.975843 0.390900
N8    N     N_1   0.958520 0.124087 0.942123 -0.302884
F1    F     F_    0.855383 0.614489 0.121783 -0.666833
F2    F     F_    0.144615 0.385499 0.878227 -0.666833
F3    F     F_    0.137982 0.154815 0.407392 -0.672129
F4    F     F_    0.862019 0.845190 0.592608 -0.672130
C89   C     C_1   0.755334 0.619609 0.072054 0.539994
N9    N     N_1   0.735205 0.496974 0.036593 -0.263974
C90   C     C_1   0.244663 0.380377 0.927960 0.539981
N10   N     N_1   0.264792 0.503005 0.963426 -0.263982
C91   C     C_1   0.236872 0.163214 0.470678 0.523777
N11   N     N_1   0.253801 0.063350 0.521116 -0.228320
C92   C     C_1   0.763129 0.836789 0.529319 0.523778
N12   N     N_1   0.746200 0.936654 0.478881 -0.228318
C93   C     C_1   0.644978 0.295935 0.907825 0.484343
N13   N     N_1   0.669040 0.380959 0.873819 -0.200683
C94   C     C_1   0.355020 0.704081 0.092187 0.484350
N14   N     N_1   0.330958 0.619064 0.126195 -0.200666
C95   C     C_1   0.357518 0.780836 0.605822 0.458925
N15   N     N_1   0.334123 0.858024 0.643475 -0.184199
C96   C     C_1   0.642483 0.219163 0.394175 0.458924
N16   N     N_1   0.665879 0.141974 0.356522 -0.184207
C97   C     C_1   0.147876 0.779369 0.748014 0.522424
N17   N     N_1   0.130083 0.656617 0.709628 -0.277762
C98   C     C_1   0.852125 0.220644 0.251979 0.522436
N18   N     N_1   0.869917 0.343401 0.290360 -0.277754
C99   C     C_1   0.848010 0.322736 0.767789 0.493816
N19   N     N_1   0.864264 0.215935 0.815905 -0.290444
C100  C     C_1   0.151989 0.677256 0.232206 0.493815
N20   N     N_1   0.135735 0.784054 0.184090 -0.290445
F5    F     F_    0.246671 0.775643 0.804993 -0.640022
F6    F     F_    0.753329 0.224366 0.195003 -0.640026
F7    F     F_    0.749024 0.323814 0.705533 -0.601672
F8    F     F_    0.250976 0.676181 0.294461 -0.601674
F9    F     F_    0.393416 0.242011 0.752647 -0.592113
F10   F     F_    0.606584 0.757977 0.247358 -0.592118
F11   F     F_    0.609992 0.978716 0.653916 -0.564092
F12   F     F_    0.390008 0.021293 0.346075 -0.564095
F13   F     F_    0.488184 0.185408 0.797290 -0.604625
F14   F     F_    0.511816 0.814589 0.202718 -0.604625
F15   F     F_    0.514607 0.960024 0.598636 -0.617626
F16   F     F_    0.485393 0.039982 0.401355 -0.617622
C101  C     C_1   0.546861 0.398065 0.895080 0.384958
N21   N     N_1   0.533532 0.540123 0.867225 -0.279803
C102  C     C_1   0.453136 0.601941 0.104930 0.384963
N22   N     N_1   0.466464 0.459884 0.132787 -0.279803
C103  C     C_1   0.457699 0.750579 0.664589 0.480687
N23   N     N_1   0.472903 0.796238 0.728733 -0.210867
C104  C     C_1   0.542303 0.249422 0.335405 0.480698
N24   N     N_1   0.527099 0.203764 0.271261 -0.210880

loop_
_geom_bond_atom_site_label_1
_geom_bond_atom_site_label_2
_ccdc_geom_bond_type
O17   V3    S    
C67   C71   A    
C102  N22   T    
O1    C5    A    
C10   C86   S    
C23   C27   A    
O19   V1    S    
O13   V1    S    
C101  N21   T    
C30   F2    S    
O3    C7    A    
C96   N16   T    
C75   F15   S    
C68   C72   A    
C48   C52   A    
O4    V2    S    
C21   C37   A    
C95   N15   T    
C78   F10   S    
C97   N17   T    
C86   N6    T    
C34   C38   A    
C103  N23   T    
O7    C3    A    
C21   F6    S    
C87   N7    T    
C25   C57   A    
C32   C36   A    
O9    V1    S    
N4    C40   S    
C14   O22   S    
C24   F7    S    
O16   V4    S    
O4    C8    A    
C20   O27   S    
C11   C87   S    
C94   N14   T    
C64   C67   A    
C49   C81   A    
O1    V3    S    
C52   C84   A    
O2    V4    S    
C65   C69   A    
C51   C83   A    
C65   C82   A    
O3    V1    S    
C28   C99   S    
C61   C73   A    
C67   C84   A    
C51   C95   S    
C56   C79   A    
C1    O15   A    
C62   C74   A    
C32   F4    S    
C63   C71   A    
C24   C40   A    
O2    C6    A    
C98   N18   T    
C16   C48   A    
O14   V2    S    
C31   F3    S    
C44   C56   A    
C26   C97   S    
C29   F1    S    
C44   C71   A    
O11   C7    A    
C17   O26   S    
C76   F16   S    
O15   V3    S    
O12   C8    A    
C9    C85   S    
C31   C59   A    
O10   V2    S    
C1    C60   S    
C29   C57   A    
O5    V1    S    
C28   C60   A    
C80   F12   S    
C31   C35   A    
O7    V3    S    
C30   C34   A    
N1    C37   S    
O8    V4    S    
C17   C53   A    
C4    C57   S    
C90   N10   T    
C54   C77   A    
C79   F11   S    
C53   C78   A    
C2    O16   A    
C27   C100  S    
O18   V4    S    
N3    C19   A    
C55   C80   A    
C14   C46   A    
C62   C65   A    
C7    C9    S    
C66   C70   A    
C13   C45   A    
C8    C10   S    
C76   C80   A    
C36   C40   A    
C11   C12   D    
C15   C47   A    
C61   C69   A    
O5    C1    A    
C81   C101  S    
C46   C50   A    
C84   C104  S    
C104  N24   T    
C22   C38   A    
N1    C17   A    
O8    C4    A    
N3    C39   S    
C49   C93   S    
C9    C10   D    
O9    C5    A    
C68   C83   A    
C27   C59   A    
C42   C54   A    
C26   C58   A    
C41   C53   A    
C85   N5    T    
C30   C58   A    
C63   C75   A    
C42   C69   A    
C43   C55   A    
C41   C70   A    
O6    V2    S    
C2    C59   S    
C19   C55   A    
C89   N9    T    
C12   C88   S    
C50   C82   A    
C13   N1    A    
C88   N8    T    
C74   F14   S    
N2    C38   S    
C66   C81   A    
C15   N3    A    
C22   C26   A    
C52   C96   S    
C16   N4    A    
C73   C77   A    
C3    O13   A    
C21   C25   A    
C63   C68   A    
C75   C79   A    
C44   C48   A    
C50   C94   S    
O6    C2    A    
C15   O23   S    
C92   N12   T    
O11   V3    S    
C5    C11   S    
O12   V4    S    
C6    C12   S    
C91   N11   T    
N2    C18   A    
C19   O28   S    
C23   F8    S    
C18   O25   S    
O10   C6    A    
C64   C72   A    
C77   F9    S    
C93   N13   T    
C83   C103  S    
C22   F5    S    
C47   C51   A    
C3    C58   S    
C43   C72   A    
C82   C102  S    
C33   C37   A    
C25   C98   S    
O20   V2    S    
C73   F13   S    
C35   C39   A    
C13   O21   S    
C35   C91   S    
C20   C56   A    
C33   C89   S    
C14   N2    A    
C18   C54   A    
C34   C90   S    
C29   C33   A    
C16   O24   S    
C24   C28   A    
C62   C70   A    
C74   C78   A    
C45   C49   A    
C42   C46   A    
C4    O14   A    
C100  N20   T    
C41   C45   A    
C64   C76   A    
C36   C92   S    
C32   C60   A    
C99   N19   T    
N4    C20   A    
C43   C47   A    
C61   C66   A    
C23   C39   A    
