data_mof_unit_1923.cif
_audit_creation_date              2012-12-10T20:30:09-0500
_audit_creation_method            fapswitch 2.2
_symmetry_space_group_name_H-M    P1
_symmetry_Int_Tables_number       1
_space_group_crystal_system       triclinic
_cell_length_a                    9.928513
_cell_length_b                    10.685718
_cell_length_c                    13.158536
_cell_angle_alpha                 90.067045
_cell_angle_beta                  71.752861
_cell_angle_gamma                 89.239021
_cell_volume                      1325.69474833

loop_
_atom_site_label
_atom_site_type_symbol
_atom_type_description
_atom_site_fract_x
_atom_site_fract_y
_atom_site_fract_z
_atom_type_partial_charge
C1    C     C_R   0.502141 0.739002 0.495066 0.872504
C2    C     C_R   0.443240 0.427003 0.979642 0.020578
C3    C     C_R   0.484174 0.419954 0.867565 -0.017877
C4    C     C_R   0.550863 0.454010 0.026244 0.038583
C5    C     C_R   0.695938 0.449999 0.963118 0.068423
C6    C     C_R   0.732539 0.400826 0.858866 0.076847
C7    C     C_R   0.625437 0.379187 0.813215 0.133419
C8    C     C_R   0.517773 0.494118 0.131564 -0.290860
C9    C     C_R   0.764043 0.530274 0.113729 0.107724
C10   C     C_R   0.381457 0.450087 0.816022 -0.117219
C11   C     C_R   0.486540 0.936118 0.405411 0.064672
C12   C     C_R   0.423629 0.487271 0.702730 0.860834
C13   C     C_R   0.510608 0.870193 0.489166 -0.075826
C14   C     C_R   0.566328 0.932306 0.560373 -0.216585
C15   C     C_R   0.568923 0.061504 0.559913 -0.242007
C16   C     C_R   0.506272 0.127682 0.494124 -0.092977
C17   C     C_R   0.470334 0.062746 0.414653 0.076792
C18   C     C_3   0.354796 0.065834 0.363410 -0.104877
C19   C     C_3   0.383721 0.924871 0.344524 -0.533479
C20   C     C_R   0.892954 0.551695 0.583314 0.176184
C21   C     C_R   0.961278 0.429571 0.427758 0.113384
C22   C     C_R   0.104415 0.431872 0.427689 -0.144290
C23   C     C_R   0.501241 0.260153 0.498480 0.862517
C24   C     C_R   0.034770 0.553996 0.582184 0.128589
C25   C     C_3   0.014980 0.686404 0.625041 -0.155127
C26   C     C_3   0.860307 0.680367 0.628227 -0.141846
C27   C     C_R   0.577601 0.508183 0.296480 0.854651
C28   C     C_R   0.800009 0.494058 0.006030 -0.230937
C29   C     C_R   0.622757 0.513015 0.179275 -0.089800
C30   C     C_R   0.237358 0.448073 0.875394 -0.247897
C31   C     C_R   0.196434 0.417939 0.983238 -0.157163
C32   C     C_R   0.296963 0.408082 0.037030 0.133738
H1    H     H_    0.613940 0.107352 0.613974 0.170242
H2    H     H_    0.382613 0.121926 0.288735 0.153375
H3    H     H_    0.295014 0.863070 0.383562 0.210695
H4    H     H_    0.438258 0.900977 0.259109 0.183219
H5    H     H_    0.184723 0.376922 0.369811 0.153568
H6    H     H_    0.030684 0.695653 0.704901 0.165969
H7    H     H_    0.828255 0.747127 0.574758 0.182053
H8    H     H_    0.908774 0.502269 0.955821 0.123186
H9    H     H_    0.409586 0.512402 0.178117 0.172057
H10   H     H_    0.156492 0.464337 0.837515 0.153834
H11   H     H_    0.085690 0.402198 0.025749 0.142630
H12   H     H_    0.602558 0.881649 0.618484 0.147443
N1    N     N_R   0.856940 0.500860 0.500710 -0.149756
N2    N     N_R   0.142580 0.500820 0.500710 -0.125554
O1    O     O_R   0.385310 0.683210 0.499990 -0.625701
O2    O     O_R   0.614650 0.683240 0.500000 -0.620292
O3    O     O_R   0.328390 0.499940 0.653610 -0.605332
O4    O     O_R   0.557730 0.499980 0.653620 -0.625108
O5    O     O_R   0.385350 0.316760 0.500000 -0.622272
O6    O     O_R   0.614690 0.316790 0.500010 -0.648133
O7    O     O_R   0.442270 0.500020 0.346380 -0.622769
O8    O     O_R   0.671610 0.500060 0.346390 -0.631812
Zn1   Zn    Zn3+2 0.346870 0.499980 0.499990 0.922380
Zn2   Zn    Zn3+2 0.653130 0.500020 0.500010 0.906825
C33   C     C_3   0.874162 0.594172 0.153258 -0.430040
C34   C     C_3   0.827999 0.728161 0.193093 -0.297527
C35   C     C_3   0.930406 0.785287 0.245333 -0.878729
H13   H     H_    0.932152 0.729666 0.316256 0.267625
H14   H     H_    0.039189 0.788067 0.187398 0.253622
H15   H     H_    0.895279 0.882319 0.272129 0.250571
H16   H     H_    0.824489 0.787210 0.124441 0.212528
H17   H     H_    0.720429 0.729487 0.252794 0.216776
H18   H     H_    0.895845 0.538552 0.216957 0.221978
H19   H     H_    0.976720 0.600328 0.087926 0.190615
C36   C     C_3   0.205710 0.092859 0.442537 -0.344677
C37   C     C_3   0.089861 0.068529 0.390675 -0.363672
C38   C     C_3   0.942157 0.079826 0.472411 -0.829840
H20   H     H_    0.861261 0.070658 0.430789 0.261565
H21   H     H_    0.926179 0.004387 0.532860 0.264601
H22   H     H_    0.927282 0.171922 0.513900 0.273310
H23   H     H_    0.099634 0.136920 0.325322 0.237018
H24   H     H_    0.102103 0.973106 0.355109 0.232282
H25   H     H_    0.187589 0.034148 0.515221 0.219848
H26   H     H_    0.197528 0.191676 0.468844 0.223213
N3    N     N_3   0.929346 0.344161 0.354842 -0.470966
H27   H     H_    0.822434 0.342581 0.364242 0.263358
H28   H     H_    0.980765 0.372665 0.276904 0.162170
N4    N     N_3   0.088025 0.781387 0.548797 -0.468016
H29   H     H_    0.175829 0.810996 0.569306 0.217554
H30   H     H_    0.120478 0.744563 0.471150 0.202738
N5    N     N_3   0.763463 0.679624 0.737646 -0.455416
H31   H     H_    0.660210 0.675507 0.733695 0.211887
H32   H     H_    0.770518 0.766474 0.772185 0.184175
N6    N     N_3   0.876097 0.366807 0.799795 -0.459663
H33   H     H_    0.936977 0.447609 0.784983 0.177208
H34   H     H_    0.915526 0.306228 0.846420 0.185927
N7    N     N_3   0.248730 0.359193 0.143379 -0.493766
H35   H     H_    0.330780 0.313869 0.163415 0.186217
H36   H     H_    0.206570 0.433590 0.195511 0.163813
N8    N     N_3   0.655960 0.293974 0.724465 -0.443412
H37   H     H_    0.562767 0.274436 0.707401 0.174147
H38   H     H_    0.728568 0.334282 0.657751 0.239559

loop_
_geom_bond_atom_site_label_1
_geom_bond_atom_site_label_2
_ccdc_geom_bond_type
C26   N5    S    
C27   C29   S    
C25   N4    S    
C33   H19   S    
C4    C8    A    
C12   O3    A    
C23   O6    A    
C27   O8    A    
N3    H27   S    
C11   C19   S    
C31   H11   S    
C8    C29   A    
O1    Zn1   S    
C3    C7    A    
C19   H4    S    
C30   C31   A    
N6    H34   S    
C26   H7    S    
C28   H8    S    
C37   H24   S    
C15   C16   A    
C2    C32   A    
C18   C19   S    
C38   H21   S    
C37   C38   S    
C32   N7    S    
N1    Zn2   S    
C16   C17   A    
N2    Zn1   S    
N7    H36   S    
C9    C33   S    
C20   N1    A    
C9    C29   A    
C37   H23   S    
N3    H28   S    
C35   H13   S    
C13   C14   A    
C21   N1    A    
O7    Zn1   S    
C34   H17   S    
O8    Zn2   S    
C35   H14   S    
C36   C37   S    
C20   C24   A    
C24   C25   S    
N4    H30   S    
N6    H33   S    
C4    C5    A    
C25   C26   S    
O3    Zn1   S    
C22   H5    S    
O4    Zn2   S    
C38   H22   S    
C2    C4    A    
C25   H6    S    
C5    C28   A    
C10   C30   A    
C23   O5    A    
N5    H31   S    
N8    H38   S    
C17   C18   S    
C8    H9    S    
C18   H2    S    
C10   C12   S    
N5    H32   S    
C16   C23   S    
C34   C35   S    
C1    C13   S    
C14   H12   S    
C34   H16   S    
O2    Zn2   S    
C11   C17   A    
C35   H15   S    
C22   N2    A    
C31   C32   A    
C1    O1    A    
C33   H18   S    
N4    H29   S    
C12   O4    A    
C27   O7    A    
C1    O2    A    
C6    C7    A    
C6    N6    S    
C24   N2    A    
C2    C3    A    
C18   C36   S    
C3    C10   A    
C19   H3    S    
C11   C13   A    
C33   C34   S    
C5    C6    A    
C20   C26   S    
C7    N8    S    
N8    H37   S    
O5    Zn1   S    
C38   H20   S    
C36   H25   S    
C21   N3    S    
C14   C15   A    
C30   H10   S    
C36   H26   S    
N7    H35   S    
C21   C22   A    
C15   H1    S    
O6    Zn2   S    
C9    C28   A    
