data_mof_unit_861.cif
_audit_creation_date              2012-12-10T17:17:31-0500
_audit_creation_method            fapswitch 2.2
_symmetry_space_group_name_H-M    P1
_symmetry_Int_Tables_number       1
_space_group_crystal_system       triclinic
_cell_length_a                    10.246605
_cell_length_b                    10.60575
_cell_length_c                    12.37222
_cell_angle_alpha                 91.496829
_cell_angle_beta                  109.932824
_cell_angle_gamma                 95.709161
_cell_volume                      1255.1161871

loop_
_atom_site_label
_atom_site_type_symbol
_atom_type_description
_atom_site_fract_x
_atom_site_fract_y
_atom_site_fract_z
_atom_type_partial_charge
C1    C     C_R   0.055086 0.733664 0.499478 0.919367
C2    C     C_R   0.204475 0.512025 0.837774 -0.114521
C3    C     C_2   0.094104 0.869535 0.513167 -0.343011
C4    C     C_R   0.133528 0.508440 0.713797 0.850698
C5    C     C_2   0.055829 0.942577 0.585288 0.169602
C6    C     C_2   0.942948 0.135465 0.542808 -0.358496
C7    C     C_2   0.058843 0.076427 0.567572 -0.170362
C8    C     C_2   0.434392 0.499218 0.524198 -0.053765
C9    C     C_2   0.571762 0.472100 0.512180 0.150466
C10   C     C_R   0.952522 0.266782 0.512824 0.916906
C11   C     C_R   0.865151 0.487361 0.285998 0.868930
C12   C     C_R   0.412012 0.481918 0.997602 0.000003
C13   C     C_R   0.715009 0.308506 0.999559 -0.182713
C14   C     C_R   0.785044 0.457979 0.164699 -0.057776
C15   C     C_R   0.162215 0.591733 0.908052 -0.257843
C16   C     C_R   0.233922 0.606620 0.026277 -0.055315
C17   C     C_R   0.360848 0.552492 0.072555 -0.086876
C18   C     C_3   0.008980 0.894741 0.681603 -0.698320
C19   C     C_3   0.578605 0.338346 0.471630 -0.691037
C20   C     C_2   0.689474 0.667061 0.609894 0.954845
C21   C     C_3   0.499641 0.189095 0.787194 -0.920279
C22   C     C_2   0.428658 0.557755 0.198833 0.930529
C23   C     C_R   0.321048 0.446007 0.885041 0.034467
C24   C     C_2   0.170585 0.676590 0.098151 0.955258
C25   C     C_R   0.549342 0.445552 0.028627 0.058589
C26   C     C_R   0.580225 0.348731 0.961878 0.149517
C27   C     C_R   0.475915 0.295166 0.859731 0.165433
C28   C     C_R   0.348610 0.345659 0.821801 -0.183687
C29   C     C_R   0.659149 0.508282 0.120793 -0.183673
C30   C     C_R   0.815326 0.360193 0.102527 -0.182831
H1    H     H_    0.913473 0.320121 0.135891 0.168501
H2    H     H_    0.156130 0.123178 0.563219 0.166445
H3    H     H_    0.060383 0.959113 0.760194 0.225134
H4    H     H_    0.894351 0.894902 0.656546 0.250600
H5    H     H_    0.038796 0.798791 0.705025 0.241024
H6    H     H_    0.476805 0.278281 0.443855 0.191527
H7    H     H_    0.617594 0.338040 0.398452 0.290024
H8    H     H_    0.645826 0.290477 0.545271 0.217063
H9    H     H_    0.607913 0.830877 0.618742 0.336616
H10   H     H_    0.405606 0.158794 0.710363 0.238599
H11   H     H_    0.586525 0.221154 0.756279 0.239756
H12   H     H_    0.845281 0.088100 0.545676 0.165802
H13   H     H_    0.525567 0.105216 0.838938 0.251462
H14   H     H_    0.512444 0.665990 0.347508 0.373540
H15   H     H_    0.127375 0.690342 0.245123 0.349369
H16   H     H_    0.140988 0.912160 0.454067 0.138939
H17   H     H_    0.436308 0.561743 0.595581 0.169659
H18   H     H_    0.310468 0.395173 0.382216 0.218533
H19   H     H_    0.742213 0.233774 0.952849 0.160765
H20   H     H_    0.647552 0.594392 0.163351 0.153628
H21   H     H_    0.069786 0.639520 0.870859 0.215434
H22   H     H_    0.269679 0.304511 0.742653 0.163469
N1    N     N_2   0.313640 0.446500 0.454900 -0.185529
N2    N     N_2   0.686360 0.553430 0.545150 -0.153585
O1    O     O_R   0.936910 0.692950 0.509080 -0.594144
O2    O     O_R   0.593797 0.753797 0.564055 -0.841129
O3    O     O_2   0.455757 0.459651 0.246649 -0.652358
O4    O     O_R   0.464116 0.674737 0.262340 -0.773698
O5    O     O_2   0.109535 0.768347 0.061189 -0.621201
O6    O     O_R   0.175319 0.635160 0.205671 -0.773724
O7    O     O_R   0.138320 0.658600 0.480130 -0.585389
O8    O     O_R   0.002900 0.525670 0.675280 -0.594492
O9    O     O_R   0.204310 0.491320 0.646330 -0.620532
O10   O     O_R   0.861680 0.341400 0.519870 -0.625144
O11   O     O_R   0.063090 0.307050 0.490920 -0.612155
O12   O     O_R   0.795690 0.508680 0.353670 -0.595422
O13   O     O_R   0.997100 0.474330 0.324720 -0.586188
O14   O     O_2   0.778141 0.689184 0.705562 -0.638699
Zn1   Zn    Zn3+2 0.865520 0.522940 0.519330 0.976982
Zn2   Zn    Zn3+2 0.134480 0.477060 0.480670 0.966414

loop_
_geom_bond_atom_site_label_1
_geom_bond_atom_site_label_2
_ccdc_geom_bond_type
C8    N1    D    
C6    C10   S    
C2    C4    S    
O9    Zn2   S    
H15   O6    S    
C22   O4    S    
C6    C7    D    
C7    H2    S    
C19   H8    S    
C15   H21   S    
C28   H22   S    
C18   H5    S    
C3    H16   S    
H9    O2    S    
C12   C23   A    
C11   O12   A    
C24   O6    S    
C12   C25   A    
C20   O2    S    
O13   Zn2   S    
C22   O3    D    
C21   C27   S    
C8    H17   S    
C16   C24   S    
O7    Zn2   S    
C21   H13   S    
O10   Zn1   S    
C12   C17   A    
C25   C29   A    
C2    C15   A    
C18   H4    S    
C4    O9    A    
C26   C27   A    
O1    Zn1   S    
N2    Zn1   S    
C29   H20   S    
C14   C30   A    
C24   O5    D    
C21   H11   S    
N1    Zn2   S    
C11   C14   S    
C11   O13   A    
C19   H6    S    
C1    O1    A    
H18   N1    S    
C18   H3    S    
C13   H19   S    
C13   C26   A    
O12   Zn1   S    
C21   H10   S    
C14   C29   A    
O11   Zn2   S    
C4    O8    A    
C13   C30   A    
C2    C23   A    
C17   C22   S    
C9    N2    D    
C20   N2    S    
C9    C19   S    
C6    H12   S    
C10   O11   A    
C27   C28   A    
C5    C7    S    
C30   H1    S    
C16   C17   A    
C5    C18   S    
C19   H7    S    
C3    C5    D    
C25   C26   A    
C23   C28   A    
C20   O14   D    
C10   O10   A    
C15   C16   A    
O8    Zn1   S    
H14   O4    S    
C8    C9    S    
C1    C3    S    
C1    O7    A    
