data_mof_unit_708.cif
_audit_creation_date              2012-12-10T18:45:04-0500
_audit_creation_method            fapswitch 2.2
_symmetry_space_group_name_H-M    P1
_symmetry_Int_Tables_number       1
_space_group_crystal_system       triclinic
_cell_length_a                    10.723632
_cell_length_b                    9.840979
_cell_length_c                    10.630013
_cell_angle_alpha                 90.03185
_cell_angle_beta                  90.051242
_cell_angle_gamma                 90.546477
_cell_volume                      1121.74464671

loop_
_atom_site_label
_atom_site_type_symbol
_atom_type_description
_atom_site_fract_x
_atom_site_fract_y
_atom_site_fract_z
_atom_type_partial_charge
C1    C     C_R   0.259737 0.498361 0.492135 0.928330
C2    C     C_R   0.739867 0.500270 0.508604 0.922498
C3    C     C_R   0.936869 0.619122 0.484492 -0.241999
C4    C     C_R   0.064051 0.617302 0.475956 -0.200750
C5    C     C_R   0.527961 0.072182 0.606839 0.044627
C6    C     C_R   0.471536 0.071488 0.393302 0.043107
C7    C     C_R   0.528725 0.928477 0.606653 -0.046610
C8    C     C_R   0.471071 0.927773 0.393417 -0.059023
C9    C     C_R   0.503684 0.499994 0.260429 0.856253
C10   C     C_R   0.503532 0.500082 0.739591 0.889888
C11   C     C_R   0.713091 0.626667 0.131445 -0.181266
C12   C     C_R   0.712585 0.627707 0.869143 -0.133681
C13   C     C_R   0.810843 0.688549 0.065885 -0.126016
C14   C     C_R   0.810558 0.689117 0.934963 -0.112380
C15   C     C_R   0.612058 0.565579 0.934210 0.095234
C16   C     C_R   0.612232 0.565239 0.066083 0.086888
C17   C     C_R   0.512412 0.499520 0.128268 -0.090286
C18   C     C_R   0.512252 0.499795 0.871772 -0.089283
C19   C     C_R   0.418217 0.430434 0.064141 -0.202575
C20   C     C_R   0.418183 0.430497 0.935668 -0.208675
C21   C     C_R   0.059433 0.369953 0.501989 0.282577
C22   C     C_R   0.936507 0.378398 0.541295 0.378928
C23   C     C_R   0.872769 0.500074 0.516625 -0.223634
C24   C     C_R   0.126231 0.493671 0.485476 -0.251045
H1    H     H_    0.343190 0.378993 0.113895 0.168072
H2    H     H_    0.343145 0.379034 0.885720 0.171550
H3    H     H_    0.718567 0.625668 0.233001 0.153067
H4    H     H_    0.717682 0.627613 0.767608 0.157563
H5    H     H_    0.887606 0.735030 0.116844 0.156959
H6    H     H_    0.887082 0.736070 0.884197 0.162765
H7    H     H_    0.889253 0.713999 0.467441 0.213902
H8    H     H_    0.113181 0.712229 0.458778 0.216398
H9    H     H_    0.550807 0.126437 0.692347 0.134805
H10   H     H_    0.448772 0.125159 0.307758 0.157230
H11   H     H_    0.552394 0.874757 0.691959 0.135884
H12   H     H_    0.447570 0.873476 0.308073 0.142670
N1    N     N_R   0.500000 0.857200 0.500000 -0.090981
N2    N     N_R   0.500000 0.142810 0.500000 -0.075889
O1    O     O_R   0.316770 0.614620 0.499990 -0.618731
O2    O     O_R   0.683230 0.614620 0.500010 -0.647244
O3    O     O_R   0.316800 0.385290 0.500000 -0.535655
O4    O     O_R   0.683200 0.385290 0.500000 -0.550774
O5    O     O_R   0.500010 0.614690 0.316770 -0.637982
O6    O     O_R   0.499990 0.614690 0.683230 -0.640380
O7    O     O_R   0.500040 0.385360 0.316770 -0.618862
O8    O     O_R   0.499960 0.385360 0.683230 -0.609487
Zn1   Zn    Zn3+2 0.500000 0.653120 0.500000 0.960978
Zn2   Zn    Zn3+2 0.500000 0.346880 0.500000 1.057289
S1    S     S_3+6 0.117318 0.209047 0.451151 0.077811
O9    O     O_2   0.192690 0.145838 0.554642 -0.229222
O10   O     O_2   0.012344 0.113889 0.416712 -0.247251
O11   O     O_3   0.208136 0.229656 0.323471 -0.570012
H13   H     H_    0.154990 0.277183 0.261582 0.334974
S2    S     S_3+6 0.872743 0.249503 0.640935 0.061476
O12   O     O_2   0.803925 0.145421 0.563352 -0.272604
O13   O     O_2   0.975255 0.180912 0.712692 -0.253547
O14   O     O_3   0.773767 0.319707 0.744425 -0.595657
H14   H     H_    0.744304 0.243328 0.797624 0.369776

loop_
_geom_bond_atom_site_label_1
_geom_bond_atom_site_label_2
_ccdc_geom_bond_type
C10   O8    A    
C15   C18   A    
C6    N2    A    
C9    O7    A    
C13   C14   A    
N1    Zn1   S    
O6    Zn1   S    
C11   C16   A    
C3    C23   A    
C19   C20   A    
C12   C15   A    
C11   H3    S    
S1    O11   S    
C6    H10   S    
C21   S1    S    
C7    N1    A    
C22   S2    S    
O4    Zn2   S    
C21   C22   A    
C9    C17   S    
C3    H7    S    
C11   C13   A    
O14   H14   S    
C4    H8    S    
C7    H11   S    
C14   H6    S    
C19   H1    S    
C10   C18   S    
C13   H5    S    
C17   C19   A    
O3    Zn2   S    
C2    O4    A    
C18   C20   A    
C22   C23   A    
C4    C24   A    
S2    O13   D    
C9    O5    A    
C8    N1    A    
C1    O1    A    
C10   O6    A    
C15   C16   A    
O8    Zn2   S    
C2    O2    A    
N2    Zn2   S    
O11   H13   S    
C12   H4    S    
C1    C24   S    
O1    Zn1   S    
S1    O9    D    
C8    H12   S    
C21   C24   A    
C1    O3    A    
C2    C23   S    
C5    C7    A    
S2    O12   D    
C6    C8    A    
O7    Zn2   S    
S1    O10   D    
C5    N2    A    
O2    Zn1   S    
O5    Zn1   S    
C3    C4    A    
C12   C14   A    
C16   C17   A    
C20   H2    S    
S2    O14   S    
C5    H9    S    
