data_mof_unit_609.cif
_audit_creation_date              2012-12-11T14:45:58-0500
_audit_creation_method            fapswitch 2.2
_symmetry_space_group_name_H-M    P1
_symmetry_Int_Tables_number       1
_space_group_crystal_system       triclinic
_cell_length_a                    10.967375
_cell_length_b                    10.947747
_cell_length_c                    18.921413
_cell_angle_alpha                 91.012194
_cell_angle_beta                  89.778458
_cell_angle_gamma                 120.121202
_cell_volume                      1964.73919979

loop_
_atom_site_label
_atom_site_type_symbol
_atom_type_description
_atom_site_fract_x
_atom_site_fract_y
_atom_site_fract_z
_atom_type_partial_charge
C1    C     C_R   0.905099 0.613540 0.611360 0.539930
C2    C     C_R   0.419392 0.621628 0.778117 -0.142611
C3    C     C_R   0.403703 0.616786 0.705586 -0.024620
C4    C     C_R   0.325664 0.673098 0.675556 0.010690
C5    C     C_R   0.822871 0.128867 0.819267 -0.005240
C6    C     C_R   0.078448 0.205935 0.821967 -0.077270
C7    C     C_R   0.196707 0.226742 0.784389 -0.085439
C8    C     C_R   0.185327 0.195894 0.712169 -0.080429
C9    C     C_R   0.063816 0.167029 0.675873 -0.078642
C10   C     C_R   0.954130 0.173996 0.711503 -0.008467
C11   C     C_R   0.952133 0.169231 0.785623 0.005866
C12   C     C_R   0.271492 0.633776 0.603664 0.541276
C13   C     C_R   0.742166 0.195556 0.718037 -0.011056
C14   C     C_R   0.709845 0.123417 0.779840 -0.038110
C15   C     C_R   0.661903 0.260908 0.700992 -0.121852
C16   C     C_R   0.537197 0.225777 0.735824 -0.093684
C17   C     C_R   0.483940 0.116816 0.783612 0.278885
C18   C     C_R   0.568144 0.059840 0.801550 -0.061971
C19   C     C_R   0.851784 0.196418 0.677564 -0.014451
C20   C     C_R   0.808794 0.704531 0.702797 -0.092130
C21   C     C_R   0.778181 0.716139 0.772904 -0.136844
C22   C     C_R   0.812923 0.650961 0.826023 0.024194
C23   C     C_R   0.865719 0.237962 0.604831 0.533380
C24   C     C_R   0.881997 0.575590 0.808659 -0.020955
C25   C     C_R   0.912585 0.564267 0.737791 -0.170238
C26   C     C_R   0.874336 0.627162 0.684958 0.010315
C27   C     C_R   0.244285 0.536815 0.274333 -0.138299
C28   C     C_R   0.261851 0.554131 0.202184 -0.140261
C29   C     C_R   0.336965 0.690005 0.174508 0.025503
C30   C     C_R   0.383413 0.808724 0.219675 -0.147017
C31   C     C_R   0.362832 0.790776 0.292425 -0.151508
C32   C     C_R   0.298460 0.654772 0.320060 0.031549
C33   C     C_R   0.785935 0.253120 0.274005 0.215252
C34   C     C_R   0.868891 0.636758 0.395949 0.569284
C35   C     C_R   0.792346 0.241316 0.201538 -0.131484
C36   C     C_R   0.852614 0.167124 0.172485 -0.065929
C37   C     C_R   0.924169 0.119849 0.215497 -0.154697
C38   C     C_R   0.930032 0.141285 0.289066 0.210825
C39   C     C_R   0.855479 0.203540 0.318232 0.042604
C40   C     C_R   0.961817 0.701935 0.276566 -0.114253
C41   C     C_R   0.945128 0.707198 0.204581 -0.141333
C42   C     C_R   0.810593 0.657036 0.176405 0.027576
C43   C     C_R   0.691818 0.595505 0.220802 -0.120211
C44   C     C_R   0.708862 0.590864 0.293436 -0.089479
C45   C     C_R   0.265225 0.629992 0.394728 0.545440
C46   C     C_R   0.844375 0.646698 0.321514 0.082188
C47   C     C_R   0.799469 0.090934 0.892950 0.562083
C48   C     C_R   0.397019 0.700099 0.895990 0.548464
C49   C     C_R   0.797983 0.688015 0.898403 0.547458
C50   C     C_R   0.809227 0.108005 0.101996 0.564118
C51   C     C_R   0.395217 0.705424 0.103691 0.552675
C52   C     C_R   0.796553 0.695147 0.104935 0.549456
C53   C     C_R   0.864702 0.236542 0.393509 0.603388
C54   C     C_R   0.271152 0.739917 0.719177 -0.135800
C55   C     C_R   0.286639 0.743063 0.792138 -0.141782
C56   C     C_R   0.360771 0.683897 0.821588 0.006393
Cr1   Cr    Cr6+3 0.791660 0.390250 0.499930 1.044687
Cr2   Cr    Cr6+3 0.098520 0.708290 0.500540 1.018376
Cr3   Cr    Cr6+3 0.109770 0.401430 0.499480 1.039605
Cr4   Cr    Cr6+3 0.874790 0.925890 0.000070 1.009218
Cr5   Cr    Cr6+3 0.574120 0.948670 0.999300 0.991949
Cr6   Cr    Cr6+3 0.551420 0.625320 0.000920 1.009198
H1    H     H_    0.209057 0.782160 0.697368 0.161499
H2    H     H_    0.482371 0.281591 0.724279 0.123418
H3    H     H_    0.695129 0.343571 0.663770 0.185618
H4    H     H_    0.782100 0.756406 0.662479 0.144970
H5    H     H_    0.731252 0.780250 0.786161 0.109448
H6    H     H_    0.966171 0.506823 0.723620 0.105303
H7    H     H_    0.186853 0.430623 0.294399 0.137148
H8    H     H_    0.223617 0.461024 0.168344 0.130196
H9    H     H_    0.442663 0.914789 0.199439 0.128014
H10   H     H_    0.240974 0.790819 0.825472 0.167040
H11   H     H_    0.399558 0.882035 0.327238 0.107399
H12   H     H_    0.739987 0.280734 0.168164 0.150207
H13   H     H_    0.966080 0.057596 0.192347 0.147313
H14   H     H_    0.067314 0.741427 0.297199 0.133947
H15   H     H_    0.037707 0.755248 0.171309 0.125812
H16   H     H_    0.586813 0.558246 0.200014 0.133720
H17   H     H_    0.617547 0.545958 0.327537 0.112530
H18   H     H_    0.479510 0.577737 0.800775 0.135181
H19   H     H_    0.295606 0.263311 0.811640 0.142994
H20   H     H_    0.271014 0.198285 0.683007 0.131207
H21   H     H_    0.089077 0.224645 0.878452 0.139262
H22   H     H_    0.058949 0.141516 0.620230 0.147228
H23   H     H_    0.525005 0.970579 0.834030 0.168991
O1    O     O_R   0.766500 0.250040 0.579790 -0.536674
O2    O     O_R   0.218690 0.701900 0.425960 -0.509803
O3    O     O_R   0.249490 0.516440 0.419420 -0.516950
O4    O     O_R   0.982880 0.281910 0.424890 -0.471715
O5    O     O_3   0.999980 0.499990 0.499980 -0.289720
O6    O     O_R   0.895110 0.806860 0.920430 -0.508553
O7    O     O_R   0.872260 0.046970 0.925000 -0.511102
O8    O     O_R   0.691430 0.085060 0.918550 -0.532848
O9    O     O_R   0.451490 0.822460 0.925250 -0.540600
O10   O     O_R   0.413330 0.603360 0.920440 -0.517565
O11   O     O_R   0.676110 0.626250 0.926750 -0.510192
O12   O     O_R   0.798570 0.516780 0.574780 -0.495420
O13   O     O_R   0.895350 0.809870 0.080950 -0.527005
O14   O     O_R   0.872490 0.049760 0.073800 -0.504538
O15   O     O_R   0.691680 0.088070 0.079070 -0.519541
O16   O     O_R   0.451720 0.825250 0.074050 -0.505281
O17   O     O_R   0.413580 0.606370 0.080960 -0.523540
O18   O     O_R   0.676340 0.629040 0.075550 -0.506179
O19   O     O_3   0.666780 0.833290 0.000090 -0.250162
O20   O     O_R   0.984000 0.732950 0.581090 -0.508941
O21   O     O_R   0.218600 0.700890 0.574760 -0.523588
O22   O     O_R   0.249390 0.515350 0.579940 -0.497229
O23   O     O_R   0.982790 0.280900 0.573700 -0.516382
O24   O     O_R   0.766600 0.251130 0.419260 -0.486751
O25   O     O_R   0.798660 0.517790 0.425980 -0.466249
O26   O     O_R   0.984100 0.734040 0.420570 -0.519355
O27   O     O_3   0.349529 0.064685 0.810172 -0.595074
C57   C     C_3   0.356559 0.086142 0.884222 -0.139007
H24   H     H_    0.433510 0.197649 0.899558 0.111552
H25   H     H_    0.382162 0.012936 0.911440 0.147069
H26   H     H_    0.251316 0.063098 0.903076 0.139571
C58   C     C_1   0.925026 0.512843 0.862393 0.186782
N1    N     N_1   0.959764 0.462623 0.905435 -0.305854
O28   O     O_3   0.719058 0.321977 0.301363 -0.537470
C59   C     C_3   0.571804 0.230930 0.296180 -0.103711
H27   H     H_    0.538342 0.128871 0.322385 0.114318
H28   H     H_    0.535418 0.212529 0.240216 0.094458
H29   H     H_    0.518741 0.281332 0.323977 0.128430
O29   O     O_3   0.991389 0.088311 0.334569 -0.544956
C60   C     C_3   0.118543 0.103588 0.307640 -0.108298
H30   H     H_    0.180695 0.098051 0.352314 0.141522
H31   H     H_    0.184830 0.207214 0.282004 0.090198
H32   H     H_    0.096765 0.015159 0.270550 0.116240
C61   C     C_1   0.464656 0.549294 0.663670 0.194396
N2    N     N_1   0.512423 0.494644 0.629899 -0.308488

loop_
_geom_bond_atom_site_label_1
_geom_bond_atom_site_label_2
_ccdc_geom_bond_type
C55   C56   A    
C52   O18   A    
C48   O10   A    
Cr6   O11   S    
C41   C42   A    
C14   C18   A    
Cr5   O16   S    
C35   C36   A    
Cr4   O14   S    
Cr2   O2    S    
C30   H9    S    
C7    C8    A    
C35   H12   S    
C39   C53   S    
C51   O17   A    
C40   C46   A    
C5    C47   S    
C50   O14   A    
C29   C30   A    
C48   O9    A    
C8    H20   S    
C20   H4    S    
C28   C29   A    
C45   O2    A    
C5    C11   A    
Cr4   O13   S    
Cr3   O4    S    
C38   C39   A    
C41   H15   S    
Cr5   O8    S    
C31   H11   S    
C54   H1    S    
C15   C16   A    
C15   H3    S    
Cr1   O1    S    
C32   C45   S    
Cr3   O3    S    
Cr1   O24   S    
Cr1   O25   S    
C44   C46   A    
C8    C9    A    
C23   O1    A    
C60   H32   S    
C34   C46   S    
C4    C12   S    
C9    C10   A    
C55   H10   S    
C27   H7    S    
C59   H29   S    
C57   H26   S    
C37   H13   S    
C13   C14   A    
C21   H5    S    
C34   O26   A    
C25   H6    S    
C49   O6    A    
C47   O7    A    
O27   C57   S    
C59   H28   S    
Cr6   O19   S    
Cr4   O7    S    
C47   O8    A    
C1    C26   S    
C18   H23   S    
Cr1   O5    S    
C13   C19   A    
C43   H16   S    
Cr2   O26   S    
Cr5   O19   S    
C24   C25   A    
C1    O12   A    
C6    C11   A    
Cr5   O9    S    
C16   C17   A    
C25   C26   A    
Cr3   O22   S    
C40   H14   S    
Cr2   O21   S    
Cr3   O5    S    
C19   C23   S    
C43   C44   A    
C37   C38   A    
C31   C32   A    
C10   C19   A    
Cr1   O12   S    
C45   O3    A    
C17   C18   A    
C24   C58   S    
C33   C39   A    
Cr2   O5    S    
C5    C14   A    
C22   C49   S    
C40   C41   A    
C7    H19   S    
C33   O28   S    
C13   C15   A    
C53   O4    A    
C60   H30   S    
C34   O25   A    
C22   C24   A    
Cr5   O15   S    
C42   C43   A    
C3    C4    A    
C17   O27   S    
C36   C50   S    
C59   H27   S    
C57   H24   S    
C29   C51   S    
Cr4   O6    S    
C53   O24   A    
C48   C56   S    
C54   C55   A    
C36   C37   A    
C6    H21   S    
Cr6   O10   S    
C4    C54   A    
C27   C32   A    
C3    C61   S    
C44   H17   S    
C28   H8    S    
Cr6   O18   S    
C12   O22   A    
O28   C59   S    
C6    C7    A    
C51   O16   A    
C50   O15   A    
Cr3   O23   S    
Cr2   O20   S    
C2    C3    A    
C61   N2    T    
Cr4   O19   S    
C58   N1    T    
C12   O21   A    
C30   C31   A    
C20   C26   A    
C23   O23   A    
C52   O13   A    
C33   C35   A    
C49   O11   A    
C2    H18   S    
C10   C11   A    
C9    H22   S    
C20   C21   A    
C1    O20   A    
C27   C28   A    
C60   H31   S    
C2    C56   A    
C16   H2    S    
Cr6   O17   S    
C21   C22   A    
C38   O29   S    
C42   C52   S    
O29   C60   S    
C57   H25   S    
