data_mof_unit_3987.cif
_audit_creation_date              2012-12-11T14:46:29-0500
_audit_creation_method            fapswitch 2.2
_symmetry_space_group_name_H-M    P1
_symmetry_Int_Tables_number       1
_space_group_crystal_system       triclinic
_cell_length_a                    17.448137
_cell_length_b                    17.51395
_cell_length_c                    6.945225
_cell_angle_alpha                 90.002436
_cell_angle_beta                  89.677482
_cell_angle_gamma                 90.022918
_cell_volume                      2122.32833531

loop_
_atom_site_label
_atom_site_type_symbol
_atom_type_description
_atom_site_fract_x
_atom_site_fract_y
_atom_site_fract_z
_atom_type_partial_charge
O1    O     O_R   0.796490 0.328940 0.373020 -0.536882
O2    O     O_R   0.203510 0.671060 0.626980 -0.537031
O3    O     O_R   0.203510 0.828940 0.626980 -0.537982
O4    O     O_R   0.796490 0.171060 0.373020 -0.537652
O5    O     O_R   0.805560 0.173330 0.702970 -0.543077
O6    O     O_R   0.194440 0.826670 0.297030 -0.537687
O7    O     O_R   0.194440 0.673330 0.297030 -0.539307
O8    O     O_R   0.805560 0.326670 0.702970 -0.537395
O9    O     O_R   0.658440 0.172360 0.870170 -0.531996
O10   O     O_R   0.341560 0.827640 0.129830 -0.531342
O11   O     O_R   0.341560 0.672360 0.129830 -0.531970
O12   O     O_R   0.658440 0.327640 0.870170 -0.530788
C1    C     C_R   0.824002 0.146188 0.533143 0.715923
C2    C     C_R   0.176283 0.854116 0.466460 0.722433
C3    C     C_R   0.176154 0.646037 0.466578 0.720786
C4    C     C_R   0.824075 0.353728 0.533623 0.723827
O13   O     O_3   0.679200 0.250000 0.537050 -0.364453
O14   O     O_3   0.320800 0.750000 0.462950 -0.365942
V1    V     V_3+5 0.736420 0.250000 0.813120 1.411149
V2    V     V_3+5 0.263580 0.750000 0.186880 1.420419
O15   O     O_R   0.649370 0.327980 0.199650 -0.536847
O16   O     O_R   0.350630 0.672020 0.800350 -0.537285
O17   O     O_R   0.350630 0.827980 0.800350 -0.537595
O18   O     O_R   0.649370 0.172020 0.199650 -0.536802
C5    C     C_R   0.630507 0.354369 0.030620 0.722979
C6    C     C_R   0.369474 0.645614 0.969378 0.717848
C7    C     C_R   0.369487 0.854369 0.969378 0.719895
C8    C     C_R   0.630573 0.145582 0.030624 0.715220
H1    H     H_    0.960437 0.128088 0.717441 0.153356
H2    H     H_    0.041897 0.874871 0.274122 0.161389
H3    H     H_    0.035010 0.634558 0.304805 0.159234
H4    H     H_    0.963915 0.366740 0.701832 0.153810
V3    V     V_3+5 0.718510 0.250000 0.312740 1.423896
V4    V     V_3+5 0.281490 0.750000 0.687260 1.425722
O19   O     O_3   0.775740 0.250000 0.038930 -0.367712
O20   O     O_3   0.224260 0.750000 0.961070 -0.366678
C9    C     C_1   0.574146 0.083157 0.019358 -0.200053
C10   C     C_1   0.425973 0.916747 0.980623 -0.199159
C11   C     C_1   0.425921 0.583202 0.980632 -0.198206
C12   C     C_1   0.574037 0.416761 0.019365 -0.198871
C13   C     C_1   0.527508 0.030836 0.007467 0.005278
C14   C     C_1   0.472642 0.969045 0.992491 0.005205
C15   C     C_1   0.472550 0.530882 0.992511 0.005949
C16   C     C_1   0.527394 0.469070 0.007487 0.005700
H5    H     H_    0.815107 0.027656 0.290630 0.123221
H6    H     H_    0.186650 0.974975 0.704057 0.131594
H7    H     H_    0.192444 0.517337 0.673909 0.127067
H8    H     H_    0.809771 0.479288 0.315588 0.128076
C17   C     C_R   0.880820 0.083810 0.511527 -0.134914
C18   C     C_R   0.120513 0.917638 0.485101 -0.140319
C19   C     C_R   0.119841 0.583070 0.485672 -0.131311
C20   C     C_R   0.879972 0.417062 0.516348 -0.125949
C21   C     C_R   0.079233 0.031566 0.660767 0.410870
C22   C     C_R   0.925522 0.974873 0.319934 0.418635
C23   C     C_R   0.918010 0.535505 0.355494 0.411289
C24   C     C_R   0.081134 0.465728 0.651323 0.406083
C25   C     C_R   0.133525 0.974480 0.623953 -0.221595
C26   C     C_R   0.868606 0.028255 0.369076 -0.235142
C27   C     C_R   0.864261 0.477354 0.389596 -0.244268
C28   C     C_R   0.136102 0.522003 0.610074 -0.240222
C29   C     C_R   0.051948 0.918842 0.380834 -0.210828
C30   C     C_R   0.950561 0.084310 0.610213 -0.249396
C31   C     C_R   0.951404 0.414322 0.607380 -0.229313
C32   C     C_R   0.047626 0.586928 0.399041 -0.223675
C33   C     C_R   0.995011 0.974057 0.421768 0.017485
C34   C     C_R   0.008073 0.030091 0.565986 -0.009872
C35   C     C_R   0.007709 0.470464 0.568492 0.016674
C36   C     C_R   0.991059 0.531376 0.440244 0.014330
O21   O     O_3   0.096366 0.088380 0.791859 -0.579786
C37   C     C_3   0.128604 0.151834 0.693552 0.063611
H9    H     H_    0.091386 0.202234 0.720210 0.138924
H10   H     H_    0.132889 0.145038 0.533531 0.113196
C38   C     C_3   0.208415 0.168135 0.773319 -0.298479
H11   H     H_    0.203770 0.182182 0.929024 0.196524
H12   H     H_    0.244723 0.116352 0.757600 0.194668
C39   C     C_3   0.246789 0.234351 0.667130 -0.842340
H13   H     H_    0.255929 0.219428 0.513246 0.232007
H14   H     H_    0.303274 0.246611 0.733163 0.232990
H15   H     H_    0.210812 0.286491 0.676190 0.264122
O22   O     O_3   0.913087 0.923117 0.172390 -0.575885
C40   C     C_3   0.909337 0.961799 0.993069 0.111961
H16   H     H_    0.957766 0.941967 0.901354 0.150264
H17   H     H_    0.915851 0.025198 0.002573 0.084679
C41   C     C_3   0.832899 0.944400 0.894748 -0.303102
H18   H     H_    0.786101 0.942305 0.003770 0.187588
H19   H     H_    0.818840 0.990929 0.792539 0.162895
C42   C     C_3   0.835658 0.869349 0.783654 -0.757002
H20   H     H_    0.877043 0.873819 0.662080 0.222480
H21   H     H_    0.777974 0.856469 0.725358 0.212740
H22   H     H_    0.853446 0.821900 0.878847 0.244030
O23   O     O_3   0.900759 0.593685 0.228403 -0.576674
C43   C     C_3   0.852355 0.646471 0.322976 0.051906
H23   H     H_    0.880078 0.668802 0.456031 0.121396
H24   H     H_    0.796539 0.619377 0.361534 0.121101
C44   C     C_3   0.836940 0.713452 0.188123 -0.280636
H25   H     H_    0.892125 0.741803 0.151268 0.210424
H26   H     H_    0.810557 0.691993 0.053193 0.194163
C45   C     C_3   0.783269 0.771606 0.281352 -0.803910
H27   H     H_    0.728206 0.744210 0.323077 0.219532
H28   H     H_    0.770991 0.818328 0.178342 0.248825
H29   H     H_    0.810514 0.796498 0.410730 0.239509
O24   O     O_3   0.103169 0.400528 0.748339 -0.585166
C46   C     C_3   0.098408 0.413321 0.948395 0.058206
H30   H     H_    0.038486 0.427777 0.991558 0.135231
H31   H     H_    0.137567 0.460389 0.992624 0.125124
C47   C     C_3   0.122502 0.339929 0.050771 -0.322642
H32   H     H_    0.086440 0.291745 0.999861 0.202452
H33   H     H_    0.183316 0.327169 0.015122 0.204101
C48   C     C_3   0.114111 0.346440 0.268307 -0.786607
H34   H     H_    0.149900 0.394094 0.322796 0.243718
H35   H     H_    0.133269 0.292548 0.337056 0.228551
H36   H     H_    0.053144 0.356133 0.307141 0.239483

loop_
_geom_bond_atom_site_label_1
_geom_bond_atom_site_label_2
_ccdc_geom_bond_type
O10   C7    A    
C42   H20   S    
C23   C27   A    
C38   H11   S    
C44   H25   S    
C41   C42   S    
C21   O21   S    
C23   C36   A    
C44   C45   S    
O1    V3    S    
C22   C33   A    
C32   C36   A    
C39   H14   S    
C10   C14   T    
C48   H35   S    
C5    C12   S    
C6    C11   S    
O15   V3    S    
C47   H32   S    
C7    C10   S    
C13   C14   S    
O4    C1    A    
C23   O23   S    
O13   V1    S    
H7    C28   S    
O4    V3    S    
O9    V1    S    
O10   V2    S    
C39   H15   S    
C37   H9    S    
C3    C19   S    
O5    C1    A    
O2    V4    S    
O7    C3    A    
O8    C4    A    
C38   H12   S    
O21   C37   S    
O13   V3    S    
C40   H17   S    
C40   H16   S    
C22   O22   S    
O16   V4    S    
C31   C35   A    
H5    C26   S    
O8    V1    S    
C30   C34   A    
C35   C36   A    
C4    C20   S    
C41   H18   S    
C48   H36   S    
O23   C43   S    
C21   C25   A    
C11   C15   T    
O11   C6    A    
O11   V2    S    
O7    V2    S    
C43   C44   S    
C17   C26   A    
C24   C28   A    
C15   C16   S    
O2    C3    A    
C20   C27   A    
O6    C2    A    
O17   V4    S    
C37   C38   S    
C43   H24   S    
C46   H31   S    
O1    C4    A    
C39   H13   S    
C21   C34   A    
O14   V4    S    
O3    C2    A    
C1    C17   S    
C33   C34   A    
O17   C7    A    
C42   H21   S    
H6    C25   S    
C38   C39   S    
H2    C29   S    
C45   H29   S    
C40   C41   S    
H8    C27   S    
C22   C26   A    
O15   C5    A    
H1    C30   S    
C17   C30   A    
C18   C25   A    
H3    C32   S    
C19   C32   A    
O18   C8    A    
H4    C31   S    
C41   H19   S    
O22   C40   S    
C20   C31   A    
C44   H26   S    
O5    V1    S    
C24   C35   A    
O6    V2    S    
C45   H28   S    
O18   V3    S    
O3    V4    S    
O12   C5    A    
C24   O24   S    
V1    O19   S    
C48   H34   S    
C2    C18   S    
C47   H33   S    
C8    C9    S    
O12   V1    S    
C43   H23   S    
V3    O19   S    
V4    O20   S    
C46   C47   S    
O14   V2    S    
C9    C13   T    
O24   C46   S    
V2    O20   S    
C29   C33   A    
C12   C16   T    
C45   H27   S    
O16   C6    A    
C42   H22   S    
C46   H30   S    
C18   C29   A    
C37   H10   S    
C19   C28   A    
O9    C8    A    
C47   C48   S    
