data_mof_unit_3714.cif
_audit_creation_date              2012-12-11T16:34:06-0500
_audit_creation_method            fapswitch 2.2
_symmetry_space_group_name_H-M    P1
_symmetry_Int_Tables_number       1
_space_group_crystal_system       triclinic
_cell_length_a                    8.408977
_cell_length_b                    17.488346
_cell_length_c                    26.956327
_cell_angle_alpha                 96.437907
_cell_angle_beta                  92.772275
_cell_angle_gamma                 82.59967
_cell_volume                      3904.04767684

loop_
_atom_site_label
_atom_site_type_symbol
_atom_type_description
_atom_site_fract_x
_atom_site_fract_y
_atom_site_fract_z
_atom_type_partial_charge
Ba1   Ba    Ba6+2 0.856110 0.463800 0.523550 1.699671
Ba2   Ba    Ba6+2 0.333710 0.536130 0.476450 1.674674
C1    C     C_3   0.636674 0.183650 0.653056 -0.062637
C2    C     C_3   0.632379 0.265656 0.636154 0.452140
C3    C     C_3   0.504792 0.662980 0.633689 0.976896
C4    C     C_3   0.602017 0.662361 0.683138 -0.225523
C5    C     C_3   0.053749 0.697439 0.334701 0.257757
C6    C     C_3   0.136027 0.705811 0.285447 0.310107
C7    C     C_3   0.492788 0.736181 0.366599 0.296845
C8    C     C_3   0.510035 0.818916 0.353946 0.243849
C9    C     C_R   0.951135 0.418084 0.170633 0.608111
C10   C     C_R   0.860048 0.553984 0.175210 0.659981
C11   C     C_2   0.719592 0.503370 0.269239 0.370491
C12   C     C_3   0.184657 0.252236 0.659076 0.808691
C13   C     C_3   0.691827 0.509146 0.325266 -0.139083
C14   C     C_1   0.982494 0.481944 0.339409 0.055454
C15   C     C_2   0.010866 0.475062 0.290026 -0.085269
C16   C     C_2   0.871258 0.488998 0.252436 0.211923
C17   C     C_R   0.961918 0.486466 0.096583 -0.087815
C18   C     C_R   0.988483 0.417370 0.119805 -0.023940
C19   C     C_R   0.052839 0.349022 0.091832 -0.054354
C20   C     C_R   0.893695 0.554684 0.124264 -0.069023
C21   C     C_2   0.845354 0.519200 0.355856 -0.312357
C22   C     C_2   0.342141 0.469836 0.642401 -0.197402
C23   C     C_3   0.144338 0.219342 0.706710 0.272612
C24   C     C_R   0.093160 0.416643 0.965382 -0.000067
C25   C     C_R   0.035715 0.558484 0.973823 -0.019784
C26   C     C_R   0.086347 0.487856 0.944354 0.026625
C27   C     C_R   0.131350 0.347321 0.933866 -0.155006
C28   C     C_R   0.173323 0.347016 0.883992 0.432964
C29   C     C_R   0.178576 0.417967 0.863859 -0.031241
C30   C     C_R   0.133080 0.488568 0.893844 -0.186517
C31   C     C_R   0.135923 0.559909 0.873610 -0.089088
C32   C     C_R   0.189601 0.558984 0.824141 0.595651
C33   C     C_R   0.228281 0.420092 0.814385 0.618596
C34   C     C_3   0.208968 0.292416 0.412456 0.612606
C35   C     C_2   0.442012 0.469232 0.731821 -0.042681
C36   C     C_3   0.486473 0.473451 0.677986 -0.010044
C37   C     C_1   0.204864 0.509622 0.656517 0.110579
C38   C     C_2   0.163245 0.513360 0.703941 -0.053269
C39   C     C_2   0.285053 0.490311 0.744315 0.241104
C40   C     C_R   0.061386 0.416687 0.017125 0.052168
C41   C     C_R   0.000753 0.486982 0.045444 0.003455
C42   C     C_R   0.976664 0.557467 0.022844 0.025134
C43   C     C_R   0.089158 0.348618 0.041867 -0.090219
C44   C     C_R   0.855316 0.621871 0.100161 -0.104539
C45   C     C_3   0.185529 0.207081 0.396357 0.641722
C46   C     C_R   0.052305 0.628132 0.953970 -0.023730
C47   C     C_R   0.092738 0.629913 0.904603 0.394915
C48   C     C_R   0.889714 0.623460 0.049702 0.368204
C49   C     C_R   0.426832 0.283137 0.527981 -0.252506
C50   C     C_R   0.564483 0.258506 0.500548 0.073263
C51   C     C_R   0.623570 0.179126 0.494872 -0.150363
C52   C     C_R   0.540843 0.124660 0.514206 0.003479
C53   C     C_R   0.395039 0.149841 0.537995 -0.079018
C54   C     C_R   0.336436 0.229049 0.544314 0.023939
C55   C     C_R   0.590427 0.839010 0.511444 -0.015548
C56   C     C_3   0.953561 0.708478 0.600789 0.335913
C57   C     C_R   0.638426 0.757651 0.504683 0.031272
C58   C     C_R   0.867828 0.778199 0.458124 0.024588
C59   C     C_R   0.820717 0.858465 0.464242 -0.137913
C60   C     C_R   0.682681 0.889355 0.490696 -0.006275
C61   C     C_1   0.638808 0.973133 0.498074 0.014239
C62   C     C_1   0.596515 0.042356 0.505286 0.022679
C63   C     C_R   0.774272 0.728495 0.477251 -0.286135
C64   C     C_3   0.875449 0.777859 0.634820 -0.322187
C65   C     C_3   0.638586 0.340282 0.364947 0.317923
C66   C     C_3   0.528093 0.324959 0.318510 -0.194967
H1    H     H_    0.694292 0.260896 0.600240 0.034882
H2    H     H_    0.056447 0.201143 0.399324 0.098138
H3    H     H_    0.859761 0.675898 0.581647 0.023148
H4    H     H_    0.821006 0.758070 0.666801 0.119455
H5    H     H_    0.781365 0.812929 0.613753 0.078791
H6    H     H_    0.966630 0.815616 0.650337 0.109737
H7    H     H_    0.605372 0.401382 0.380977 0.030404
H8    H     H_    0.531100 0.371191 0.293619 0.060404
H9    H     H_    0.403576 0.328203 0.330595 0.136241
H10   H     H_    0.504958 0.289121 0.629822 -0.145348
H11   H     H_    0.537431 0.155966 0.632885 0.064205
H12   H     H_    0.597347 0.721962 0.702656 0.047004
H13   H     H_    0.551624 0.625819 0.708054 0.077298
H14   H     H_    0.728817 0.638484 0.676607 0.086762
H15   H     H_    0.239540 0.227237 0.736189 0.069504
H16   H     H_    0.106411 0.641245 0.347222 0.112370
H17   H     H_    0.255812 0.722127 0.296033 0.135889
H18   H     H_    0.569285 0.727053 0.400436 -0.031999
H19   H     H_    0.368330 0.733091 0.376312 0.113447
H20   H     H_    0.634282 0.831499 0.364697 0.030909
H21   H     H_    0.077102 0.295137 0.108704 0.123942
H22   H     H_    0.125514 0.291738 0.946808 0.061232
H23   H     H_    0.143462 0.293944 0.023992 0.074485
H24   H     H_    0.793787 0.673464 0.120332 0.115716
H25   H     H_    0.038353 0.683249 0.976614 0.169741
H26   H     H_    0.301662 0.221313 0.647157 -0.258835
H27   H     H_    0.040278 0.533113 0.714058 0.087340
H28   H     H_    0.841029 0.553278 0.392144 0.076949
H29   H     H_    0.349590 0.433760 0.606974 0.051645
H30   H     H_    0.324785 0.107938 0.549990 0.055674
H31   H     H_    0.894337 0.896874 0.449850 0.101782
H32   H     H_    0.728997 0.159410 0.473151 0.101720
H33   H     H_    0.383741 0.344236 0.533236 0.039351
H34   H     H_    0.813602 0.666774 0.473585 0.056647
H35   H     H_    0.141182 0.155898 0.698703 -0.006423
H36   H     H_    0.338487 0.297372 0.417607 -0.090631
N1    N     N_R   0.896807 0.486956 0.198748 -0.406994
N2    N     N_R   0.232674 0.489781 0.795212 -0.439141
O1    O     O_2   0.910880 0.540430 0.617910 -0.453105
O2    O     O_3   0.621901 0.287716 0.399136 -0.656817
O3    O     O_3   0.067104 0.238419 0.621485 -0.592859
O4    O     O_2   0.278810 0.459550 0.382060 -0.490674
O5    O     O_3   0.046820 0.459570 0.442260 -0.467278
O6    O     O_3   0.514050 0.597710 0.411540 -0.479599
O7    O     O_3   0.144966 0.335805 0.373809 -0.660945
O8    O     O_3   0.627090 0.591350 0.524530 -0.429831
O9    O     O_3   0.103080 0.636600 0.435820 -0.496230
O10   O     O_2   0.200041 0.774194 0.462351 -0.482194
O11   O     O_3   0.083371 0.759852 0.370555 -0.608998
O12   O     O_3   0.142880 0.540370 0.557740 -0.506394
O13   O     O_3   0.562610 0.408580 0.475460 -0.489871
O14   O     O_2   0.365880 0.685750 0.523280 -0.468780
O15   O     O_3   0.565082 0.713898 0.604006 -0.692443
O16   O     O_2   0.360521 0.566321 0.327547 -0.479398
O17   O     O_3   0.538886 0.678102 0.327434 -0.621715
O18   O     O_2   0.965925 0.357284 0.189701 -0.594691
O19   O     O_2   0.270146 0.359816 0.788403 -0.569883
O20   O     O_2   0.797557 0.613262 0.198608 -0.594129
O21   O     O_2   0.202113 0.619642 0.807081 -0.559785
O22   O     O_3   0.675650 0.402220 0.588450 -0.462662
O23   O     O_2   0.824889 0.445191 0.673084 -0.444926
O24   O     O_3   0.058630 0.662760 0.630453 -0.580303
O25   O     O_3   0.704851 0.316038 0.672153 -0.568063
O26   O     O_2   0.823810 0.314230 0.476690 -0.410293
O27   O     O_3   0.086630 0.363340 0.564170 -0.429721
O28   O     O_2   0.011368 0.226547 0.525816 -0.443630
P1    P     P_3+3 0.078810 0.562990 0.610370 1.039128
P2    P     P_3+3 0.645380 0.325580 0.462150 0.996156
P3    P     P_3+3 0.129093 0.262735 0.564651 1.056864
P4    P     P_3+3 0.110900 0.436950 0.389630 0.987301
P5    P     P_3+3 0.063549 0.736970 0.431840 0.938675
P6    P     P_3+3 0.671090 0.410111 0.653639 1.037190
P7    P     P_3+3 0.548395 0.688491 0.538865 0.963550
P8    P     P_3+3 0.526992 0.586372 0.347097 0.972463
O29   O     O_3   0.225124 0.184339 0.346316 -0.720398
H37   H     H_    0.339486 0.190749 0.343418 0.286830
O30   O     O_3   0.272882 0.157289 0.428017 -0.732532
H38   H     H_    0.387922 0.155572 0.420864 0.283785
C67   C     C_3   0.049673 0.739157 0.562983 -0.284650
H39   H     H_    0.078225 0.692391 0.532463 0.137370
H40   H     H_    0.981511 0.790536 0.548142 0.025882
H41   H     H_    0.161039 0.758685 0.580779 0.146464
C68   C     C_3   0.811415 0.327467 0.350838 -0.292377
H42   H     H_    0.854005 0.264856 0.341870 0.136239
H43   H     H_    0.831744 0.358171 0.318471 0.055662
H44   H     H_    0.875168 0.348734 0.384894 0.118713
C69   C     C_3   0.789312 0.130270 0.637951 -0.375989
H45   H     H_    0.894781 0.150249 0.658706 0.194658
H46   H     H_    0.807158 0.128481 0.597252 0.111310
H47   H     H_    0.779861 0.070285 0.646347 0.105502
C70   C     C_3   0.571424 0.246234 0.288060 -0.379986
H48   H     H_    0.680620 0.246751 0.266585 0.150783
H49   H     H_    0.592989 0.198933 0.312713 0.147497
H50   H     H_    0.471495 0.234290 0.261011 0.142063
O31   O     O_3   0.345228 0.690243 0.644590 -0.748887
H51   H     H_    0.340197 0.746208 0.656871 0.280982
O32   O     O_3   0.517952 0.586306 0.611066 -0.729526
H52   H     H_    0.420620 0.580590 0.589441 0.304788
C71   C     C_3   0.610826 0.186244 0.709219 -0.300877
H53   H     H_    0.718570 0.202020 0.731449 0.199914
H54   H     H_    0.507918 0.229943 0.720470 0.105612
H55   H     H_    0.585540 0.128676 0.718281 0.094878
C72   C     C_3   0.873860 0.695768 0.326808 -0.361569
H56   H     H_    0.823706 0.684056 0.361963 0.062689
H57   H     H_    0.815535 0.752327 0.316413 0.119609
H58   H     H_    0.846894 0.649645 0.297270 0.127216
O33   O     O_3   0.162364 0.635038 0.255130 -0.699887
H59   H     H_    0.056913 0.617335 0.246492 0.312931
C73   C     C_3   0.051142 0.769572 0.255245 -0.389691
H60   H     H_    0.128310 0.778133 0.224535 0.136378
H61   H     H_    0.935607 0.753321 0.238282 0.145390
H62   H     H_    0.028666 0.825211 0.279558 0.124757
O34   O     O_3   0.401738 0.873398 0.381488 -0.690201
H63   H     H_    0.436718 0.873135 0.417128 0.305897
O35   O     O_3   0.192167 0.332020 0.669254 -0.731481
H64   H     H_    0.294179 0.337420 0.688587 0.261821
C74   C     C_3   0.482474 0.830266 0.298513 -0.228946
H65   H     H_    0.353659 0.832186 0.287425 0.117990
H66   H     H_    0.520327 0.886715 0.291896 0.110898
H67   H     H_    0.553788 0.784138 0.274304 0.117200
C75   C     C_3   0.168399 0.435274 0.269989 -0.279232
H68   H     H_    0.165981 0.371595 0.264883 0.145021
H69   H     H_    0.192434 0.455962 0.234012 0.123798
H70   H     H_    0.271168 0.447123 0.294767 0.135325
C76   C     C_3   0.574012 0.452463 0.770522 -0.311677
H71   H     H_    0.671444 0.488328 0.766516 0.098984
H72   H     H_    0.532626 0.465990 0.809315 0.118041
H73   H     H_    0.623280 0.390259 0.764921 0.145383
O36   O     O_3   0.209575 0.277459 0.854481 -0.680001
H74   H     H_    0.200904 0.233512 0.874036 0.300272
O37   O     O_3   0.593238 0.505738 0.234492 -0.682382
H75   H     H_    0.494006 0.502170 0.251787 0.315440
O38   O     O_3   0.090418 0.701896 0.888356 -0.673962
H76   H     H_    0.018725 0.702660 0.858075 0.334642
O39   O     O_3   0.825658 0.686441 0.025315 -0.736492
H77   H     H_    0.767097 0.726403 0.049103 0.311403
C77   C     C_3   0.445776 0.873859 0.541282 -0.357990
H78   H     H_    0.379573 0.830503 0.555196 0.128089
H79   H     H_    0.484621 0.912073 0.574132 0.092336
H80   H     H_    0.360045 0.908865 0.517551 0.131411
O40   O     O_3   0.995283 0.254434 0.724243 -0.686433
H81   H     H_    0.011642 0.306474 0.740953 0.355928
O41   O     O_3   0.128464 0.315569 0.456718 -0.705370
H82   H     H_    0.190559 0.353387 0.476390 0.289484

loop_
_geom_bond_atom_site_label_1
_geom_bond_atom_site_label_2
_ccdc_geom_bond_type
C25   C46   A    
C12   O3    S    
C72   H56   S    
C45   O30   S    
O27   P3    S    
O32   H52   S    
C4    H14   S    
C5    C72   S    
C69   H46   S    
O38   H76   S    
C5    O11   S    
C17   C18   A    
Ba1   O22   S    
C10   N1    Am   
O39   H77   S    
Ba1   O26   S    
C1    H11   S    
C22   C37   D    
O28   P3    D    
C12   O35   S    
Ba2   O12   S    
C6    O33   S    
C1    C71   S    
C5    C6    S    
C71   H54   S    
C19   H21   S    
C48   O39   S    
C72   H57   S    
C8    H20   S    
C35   C36   S    
C11   C16   D    
C59   H31   S    
C67   H40   S    
C6    H17   S    
C28   C29   A    
C65   O2    S    
C74   H66   S    
C10   O20   D    
O36   H74   S    
C31   C47   A    
O29   H37   S    
C64   H6    S    
C55   C77   S    
C66   H9    S    
C8    C74   S    
C21   H28   S    
O17   P8    S    
C34   C45   S    
O3    P3    S    
Ba1   Ba2   S    
Ba1   O13   S    
C68   H44   S    
O6    P8    S    
C33   O19   D    
C27   H22   S    
O1    P1    D    
O25   P6    S    
C67   H39   S    
C6    C73   S    
C56   C64   S    
C64   H4    S    
C9    O18   D    
C32   O21   D    
C76   H72   S    
C9    N1    Am   
C22   C36   S    
C68   H42   S    
C70   H49   S    
C3    O32   S    
C71   H55   S    
C66   C70   S    
C7    C8    S    
O5    P4    S    
O10   P5    D    
C76   H73   S    
C13   C21   S    
C5    H16   S    
O37   H75   S    
C4    H13   S    
C69   H47   S    
O11   P5    S    
C63   H34   S    
Ba1   O27   S    
C34   O7    S    
C25   C42   A    
C2    H1    S    
C17   C41   A    
O30   H38   S    
C2    O25   S    
C19   C43   A    
C77   H79   S    
C51   H32   S    
Ba2   O5    S    
C72   H58   S    
C47   O38   S    
C9    C18   A    
C39   N2    S    
C65   C68   S    
C22   H29   S    
Ba2   P4    S    
O8    P7    S    
O15   P7    S    
C26   C30   A    
C17   C20   A    
O40   H81   S    
C46   H25   S    
C37   C38   D    
Ba2   O14   S    
C56   C67   S    
C23   H35   S    
C74   H67   S    
C37   P1    S    
C34   O41   S    
C55   C60   A    
C51   C52   A    
C64   H5    S    
C65   C66   S    
C58   C59   A    
C40   C43   A    
C32   N2    Am   
O34   H63   S    
C75   H70   S    
C41   C42   A    
C45   H2    S    
C2    H10   S    
C60   C61   S    
C7    H18   S    
C13   P8    S    
Ba2   O9    S    
C4    H12   S    
C70   H48   S    
O4    P4    D    
O26   P2    D    
C73   H62   S    
Ba2   O6    S    
C67   H41   S    
C53   C54   A    
C1    C69   S    
C15   C16   S    
C70   H50   S    
O35   H64   S    
C66   H8    S    
C23   O40   S    
Ba1   O1    S    
C38   C39   S    
C20   C44   A    
O24   P1    S    
O9    P5    S    
C58   C63   A    
C73   H60   S    
C14   C21   D    
C11   C13   S    
C50   P2    S    
C10   C20   A    
C29   C33   A    
C65   H7    S    
Ba1   O8    S    
O16   P8    D    
C38   H27   S    
C1    C2    S    
Ba1   P2    S    
C3    O31   S    
C71   H53   S    
C50   C51   A    
C24   C40   A    
C23   H15   S    
C77   H80   S    
C42   C48   A    
C75   H68   S    
C77   H78   S    
C52   C53   A    
Ba2   O4    S    
C3    O15   S    
C11   O37   S    
C57   C63   A    
C29   C30   A    
C14   P4    S    
O14   P7    D    
C49   C54   A    
C45   O29   S    
C61   C62   T    
Ba2   O13   S    
O2    P2    S    
C49   H33   S    
C44   C48   A    
C24   C26   A    
O13   P2    S    
C34   H36   S    
C15   C75   S    
C30   C31   A    
O22   P6    S    
C16   N1    S    
C49   C50   A    
O33   H59   S    
Ba1   O5    S    
C54   P3    S    
Ba2   O8    S    
C74   H65   S    
C3    C4    S    
O23   P6    D    
C52   C62   S    
C73   H61   S    
C56   O24   S    
C46   C47   A    
C53   H30   S    
C7    O17   S    
C31   C32   A    
Ba1   O12   S    
C68   H43   S    
C12   C23   S    
C35   C39   D    
C59   C60   A    
C43   H23   S    
O31   H51   S    
C55   C57   A    
C56   H3    S    
C58   P5    S    
C27   C28   A    
O41   H82   S    
C28   O36   S    
C44   H24   S    
C18   C19   A    
C57   P7    S    
C24   C27   A    
C76   H71   S    
C40   C41   A    
C69   H45   S    
C33   N2    Am   
C8    O34   S    
C36   P6    S    
O7    P4    S    
C75   H69   S    
Ba1   P1    S    
C12   H26   S    
C7    H19   S    
O12   P1    S    
C14   C15   D    
C35   C76   S    
C25   C26   A    
