data_mof_unit_3746.cif
_audit_creation_date              2012-12-10T17:19:55-0500
_audit_creation_method            fapswitch 2.2
_symmetry_space_group_name_H-M    P1
_symmetry_Int_Tables_number       1
_space_group_crystal_system       triclinic
_cell_length_a                    9.612094
_cell_length_b                    10.777795
_cell_length_c                    15.472538
_cell_angle_alpha                 87.618911
_cell_angle_beta                  74.195124
_cell_angle_gamma                 90.13201
_cell_volume                      1540.82664811

loop_
_atom_site_label
_atom_site_type_symbol
_atom_type_description
_atom_site_fract_x
_atom_site_fract_y
_atom_site_fract_z
_atom_type_partial_charge
C1    C     C_R   0.998964 0.262683 0.502063 0.866265
C2    C     C_R   0.675718 0.484315 0.909648 0.115840
C3    C     C_R   0.775619 0.517440 0.957639 0.150428
C4    C     C_R   0.527702 0.460761 0.956685 -0.018218
C5    C     C_R   0.479309 0.482295 0.050039 0.062441
C6    C     C_R   0.583417 0.513495 0.095538 -0.170610
C7    C     C_R   0.728427 0.529948 0.050081 -0.242479
C8    C     C_R   0.427853 0.413080 0.913794 -0.227392
C9    C     C_R   0.283299 0.391275 0.959020 0.365557
C10   C     C_R   0.230612 0.424381 0.049259 0.052735
C11   C     C_R   0.328921 0.470012 0.095082 0.044974
C12   C     C_R   0.918150 0.500166 0.672064 0.765673
C13   C     C_R   0.081781 0.414830 0.094487 -0.218036
C14   C     C_R   0.031217 0.443305 0.184442 -0.167973
C15   C     C_R   0.273121 0.503111 0.184785 -0.196311
C16   C     C_R   0.066177 0.121090 0.649382 -0.161132
C17   C     C_R   0.100453 0.052497 0.718999 -0.121668
C18   C     C_R   0.101277 0.923460 0.719054 -0.136914
C19   C     C_R   0.067802 0.862291 0.649508 -0.148169
C20   C     C_R   0.034575 0.930012 0.577531 0.099586
C21   C     C_R   0.033896 0.061110 0.577309 0.014743
C22   C     C_R   0.996537 0.128371 0.506436 -0.149321
C23   C     C_R   0.999169 0.737008 0.502211 0.795377
C24   C     C_R   0.955324 0.067426 0.438694 0.416197
C25   C     C_R   0.955490 0.938249 0.440013 -0.286598
C26   C     C_R   0.997192 0.870401 0.507226 -0.125425
C27   C     C_R   0.698047 0.661878 0.378916 -0.201420
C28   C     C_R   0.653162 0.741306 0.319283 -0.325386
C29   C     C_R   0.508548 0.743537 0.319532 0.404743
C30   C     C_R   0.410089 0.665143 0.380079 -0.161819
C31   C     C_R   0.451718 0.580754 0.440914 0.131364
C32   C     C_R   0.601213 0.579949 0.440599 0.214427
C33   C     C_R   0.548837 0.423721 0.556500 -0.039473
C34   C     C_R   0.081807 0.498653 0.328032 0.801095
C35   C     C_R   0.401078 0.423631 0.556397 -0.039657
C36   C     C_R   0.872594 0.502098 0.770615 -0.064704
C37   C     C_R   0.127457 0.484822 0.230464 -0.043022
C38   C     C_R   0.922050 0.538733 0.912470 -0.178455
C39   C     C_R   0.970606 0.529801 0.819594 -0.157839
C40   C     C_R   0.726846 0.479905 0.815633 -0.245027
Cu1   Cu    Cu3+1 0.140660 0.499990 0.500010 0.939403
Cu2   Cu    Cu3+1 0.859340 0.500010 0.499990 0.957098
H1    H     H_    0.803919 0.554341 0.087653 0.145059
H2    H     H_    0.002583 0.384770 0.061605 0.147509
H3    H     H_    0.062975 0.220939 0.653736 0.136414
H4    H     H_    0.124880 0.099685 0.773652 0.153323
H5    H     H_    0.126313 0.870420 0.773745 0.137039
H6    H     H_    0.066000 0.761940 0.653758 0.142859
H7    H     H_    0.583326 0.361116 0.602870 0.132497
H8    H     H_    0.810054 0.669016 0.373737 0.210918
H9    H     H_    0.731861 0.801904 0.273091 0.146282
H10   H     H_    0.340602 0.544131 0.221326 0.153303
H11   H     H_    0.302297 0.674895 0.376057 0.215433
H12   H     H_    0.325482 0.360975 0.602652 0.137010
H13   H     H_    0.917371 0.430121 0.218411 0.166169
H14   H     H_    0.998808 0.563954 0.948883 0.152108
H15   H     H_    0.083708 0.547945 0.785980 0.167303
H16   H     H_    0.654324 0.463287 0.775197 0.151016
H17   H     H_    0.557841 0.522808 0.167132 0.147758
H18   H     H_    0.459948 0.384543 0.845384 0.163313
N1    N     N_R   0.648320 0.501210 0.499140 -0.190621
N2    N     N_R   0.352470 0.501290 0.499110 -0.190036
O1    O     O_R   0.118810 0.319640 0.500010 -0.584903
O2    O     O_R   0.881240 0.319660 0.500000 -0.542427
O3    O     O_R   0.055570 0.499980 0.629840 -0.595803
O4    O     O_R   0.818000 0.500010 0.629830 -0.584626
O5    O     O_R   0.118760 0.680340 0.500000 -0.600492
O6    O     O_R   0.881190 0.680360 0.499990 -0.590190
O7    O     O_R   0.182000 0.499990 0.370170 -0.598981
O8    O     O_R   0.944430 0.500020 0.370160 -0.592723
O9    O     O_3   0.918791 0.136321 0.370847 -0.722554
H19   H     H_    0.892885 0.079231 0.328836 0.320992
H20   H     H_    0.925987 0.890142 0.387247 0.131879
O10   O     O_3   0.459255 0.821529 0.261595 -0.732987
H21   H     H_    0.542135 0.870453 0.222833 0.329312
O11   O     O_3   0.197742 0.338129 0.911552 -0.751816
H22   H     H_    0.126705 0.281312 0.952926 0.319769

loop_
_geom_bond_atom_site_label_1
_geom_bond_atom_site_label_2
_ccdc_geom_bond_type
C16   C21   A    
C34   C37   S    
Cu1   Cu2   S    
C19   C20   A    
C4    C8    A    
C18   H5    S    
Cu1   O5    S    
C28   C29   A    
C32   N1    A    
C5    C11   A    
C3    C7    A    
C38   C39   A    
C28   H9    S    
C33   H7    S    
C39   H15   S    
Cu2   O8    S    
C18   C19   A    
C23   C26   S    
C23   O5    A    
C15   C37   A    
C11   C15   A    
C3    C38   A    
C8    C9    A    
C9    O11   S    
C7    H1    S    
C12   C36   S    
C9    C10   A    
C34   O8    A    
C27   H8    S    
C14   H13   S    
C1    C22   S    
C21   C22   A    
C35   H12   S    
Cu2   O6    S    
C31   N2    A    
Cu1   N2    S    
C1    O1    A    
O11   H22   S    
C30   H11   S    
C40   H16   S    
O10   H21   S    
C36   C40   A    
C24   C25   A    
C19   H6    S    
C16   C17   A    
Cu1   O3    S    
C29   O10   S    
C25   C26   A    
C12   O4    A    
C23   O6    A    
C2    C4    A    
C29   C30   A    
C31   C32   A    
Cu2   N1    S    
C30   C31   A    
C17   C18   A    
C15   H10   S    
C17   H4    S    
C34   O7    A    
C22   C24   A    
Cu1   O1    S    
C1    O2    A    
Cu2   O2    S    
Cu1   O7    S    
C27   C32   A    
C6    H17   S    
C36   C39   A    
C4    C5    A    
C10   C13   A    
C16   H3    S    
C6    C7    A    
C12   O3    A    
C2    C3    A    
O9    H19   S    
C8    H18   S    
C14   C37   A    
C5    C6    A    
C20   C26   A    
C33   C35   A    
C35   N2    A    
C25   H20   S    
C10   C11   A    
C2    C40   A    
C38   H14   S    
C20   C21   A    
C33   N1    A    
C27   C28   A    
Cu2   O4    S    
C13   C14   A    
C13   H2    S    
C24   O9    S    
