data_mof_unit_3140.cif
_audit_creation_date              2012-10-26T21:14:54-0400
_audit_creation_method            fapswitch 2.2
_symmetry_space_group_name_H-M    P1
_symmetry_Int_Tables_number       1
_space_group_crystal_system       triclinic
_cell_length_a                    15.055823
_cell_length_b                    10.827096
_cell_length_c                    13.677983
_cell_angle_alpha                 90.223986
_cell_angle_beta                  90.011329
_cell_angle_gamma                 89.698891
_cell_volume                      2229.61164953

loop_
_atom_site_label
_atom_site_type_symbol
_atom_type_description
_atom_site_fract_x
_atom_site_fract_y
_atom_site_fract_z
_atom_type_partial_charge
C1    C     C_R   0.497590 0.262206 0.499613 0.590415
C2    C     C_R   0.584037 0.881298 0.663789 0.074748
C3    C     C_R   0.457662 0.106946 0.240616 -0.137009
C4    C     C_R   0.537151 0.858804 0.750494 -0.126473
C5    C     C_R   0.423382 0.169151 0.159519 -0.131473
C6    C     C_R   0.580278 0.807623 0.831089 -0.121741
C7    C     C_R   0.349290 0.246142 0.169804 -0.155770
C8    C     C_R   0.670492 0.779175 0.826069 -0.141056
C9    C     C_R   0.463873 0.933093 0.421434 -0.169863
C10   C     C_R   0.532519 0.067149 0.578764 -0.139399
C11   C     C_R   0.501872 0.871827 0.501240 0.011940
C12   C     C_R   0.501846 0.737924 0.500389 0.554785
C13   C     C_R   0.494960 0.128474 0.498950 0.023603
C14   C     C_R   0.537189 0.939476 0.580537 0.006543
C15   C     C_R   0.459504 0.061184 0.419278 -0.013098
C16   C     C_R   0.328449 0.499915 0.499993 0.585754
C17   C     C_R   0.671494 0.497307 0.499880 0.551320
C18   C     C_R   0.561982 0.431935 0.793137 0.038480
C19   C     C_R   0.437831 0.567792 0.206943 0.036662
C20   C     C_R   0.437587 0.567552 0.793243 0.058952
C21   C     C_R   0.561962 0.431760 0.206763 0.057176
C22   C     C_R   0.435684 0.569522 0.896583 0.001454
C23   C     C_R   0.046535 0.443458 0.672925 -0.137902
C24   C     C_R   0.564040 0.430440 0.103496 -0.000990
C25   C     C_R   0.499776 0.500158 0.948229 -0.012097
C26   C     C_R   0.500155 0.500109 0.051851 -0.010223
C27   C     C_R   0.563482 0.430609 0.896161 -0.059650
C28   C     C_R   0.436343 0.569266 0.103927 -0.058227
C29   C     C_R   0.372671 0.640672 0.948978 0.244020
C30   C     C_R   0.628436 0.362094 0.050895 0.243995
C31   C     C_R   0.372586 0.638087 0.052352 -0.139842
C32   C     C_R   0.627025 0.361406 0.947870 -0.133345
C33   C     C_R   0.814404 0.512058 0.411792 -0.154125
C34   C     C_R   0.953343 0.535564 0.324498 -0.145928
C35   C     C_R   0.185533 0.472673 0.586537 -0.132095
C36   C     C_R   0.768197 0.491008 0.499132 -0.022465
C37   C     C_R   0.231640 0.497648 0.499822 0.010045
C38   C     C_R   0.814549 0.465184 0.585654 -0.152434
C39   C     C_R   0.185160 0.518973 0.412621 -0.145388
C40   C     C_R   0.907060 0.463586 0.585951 0.004169
C41   C     C_R   0.092736 0.515614 0.411511 -0.002555
C42   C     C_R   0.953420 0.487484 0.498422 0.057059
C43   C     C_R   0.046445 0.490212 0.498789 0.048049
C44   C     C_R   0.906819 0.511110 0.410938 0.004795
C45   C     C_R   0.308346 0.259575 0.260876 -0.072457
C46   C     C_R   0.093082 0.468576 0.586596 0.001275
C47   C     C_R   0.953964 0.440987 0.672610 -0.144207
C48   C     C_R   0.045881 0.537492 0.324723 -0.145317
C49   C     C_3   0.314248 0.833016 0.919305 -0.017248
C50   C     C_3   0.265488 0.905328 0.840504 -0.377227
C51   C     C_3   0.769935 0.357479 0.107790 -0.023376
C52   C     C_3   0.834300 0.286945 0.172963 -0.370997
C53   C     C_3   0.239578 0.119709 0.451644 -0.006974
C54   C     C_3   0.146625 0.159133 0.417871 -0.266670
C55   C     C_3   0.075926 0.068887 0.452284 -0.484021
C56   C     C_R   0.718398 0.803199 0.740870 -0.108778
C57   C     C_3   0.795522 0.814471 0.550270 0.012706
C58   C     C_3   0.880680 0.884597 0.575671 -0.273540
C59   C     C_3   0.962659 0.802620 0.563248 -0.480839
C60   C     C_R   0.340650 0.195069 0.342339 0.323519
C61   C     C_R   0.675554 0.853415 0.657452 0.310263
C62   C     C_R   0.417825 0.120964 0.332938 0.044909
Cu1   Cu    Cu3+1 0.500010 0.499980 0.597420 0.945681
Cu2   Cu    Cu3+1 0.499990 0.500020 0.402580 0.952077
H1    H     H_    0.778574 0.531641 0.344779 0.123021
H2    H     H_    0.675880 0.306711 0.908525 0.111239
H3    H     H_    0.778732 0.448016 0.652988 0.119408
H4    H     H_    0.220814 0.538790 0.345657 0.111785
H5    H     H_    0.919047 0.422536 0.740226 0.103419
H6    H     H_    0.080783 0.556863 0.257264 0.104135
H7    H     H_    0.081706 0.426473 0.740722 0.113822
H8    H     H_    0.918143 0.554048 0.256963 0.100942
H9    H     H_    0.323916 0.296100 0.107259 0.118479
H10   H     H_    0.703829 0.740298 0.889059 0.111862
H11   H     H_    0.251518 0.320499 0.268320 0.107082
H12   H     H_    0.221515 0.455538 0.653861 0.133799
H13   H     H_    0.788896 0.784156 0.741948 0.092179
H14   H     H_    0.516596 0.050131 0.231990 0.128608
H15   H     H_    0.467127 0.881172 0.755408 0.104366
H16   H     H_    0.455216 0.159311 0.088941 0.130618
H17   H     H_    0.543954 0.790826 0.897906 0.114046
H18   H     H_    0.384526 0.865131 0.920650 0.115043
H19   H     H_    0.282470 0.854145 0.990847 0.132349
H20   H     H_    0.270154 0.005852 0.855994 0.095980
H21   H     H_    0.295595 0.885940 0.767871 0.146954
H22   H     H_    0.194376 0.878589 0.838873 0.158830
H23   H     H_    0.435799 0.880957 0.361097 0.117416
H24   H     H_    0.758522 0.450321 0.141363 0.113293
H25   H     H_    0.801058 0.368727 0.034514 0.127615
H26   H     H_    0.846555 0.193147 0.142495 0.161425
H27   H     H_    0.898440 0.336802 0.177260 0.095349
H28   H     H_    0.806285 0.278595 0.247786 0.161560
H29   H     H_    0.238198 0.105604 0.532046 0.156054
H30   H     H_    0.258218 0.028664 0.418608 0.111275
H31   H     H_    0.130902 0.252084 0.447773 0.194031
H32   H     H_    0.144751 0.163915 0.336814 0.146815
H33   H     H_    0.090223 0.974612 0.423844 0.146790
H34   H     H_    0.561270 0.118984 0.638904 0.125779
H35   H     H_    0.009842 0.098945 0.424940 0.151937
H36   H     H_    0.073804 0.066859 0.533428 0.147342
H37   H     H_    0.795368 0.796671 0.470222 0.156927
H38   H     H_    0.794287 0.721717 0.584638 0.130123
H39   H     H_    0.886588 0.966257 0.527157 0.170552
H40   H     H_    0.877969 0.918529 0.652316 0.162976
H41   H     H_    0.958829 0.722117 0.613025 0.164957
H42   H     H_    0.023194 0.855628 0.582059 0.142177
H43   H     H_    0.968199 0.769837 0.486430 0.162193
H44   H     H_    0.610332 0.378611 0.752070 0.116470
H45   H     H_    0.389448 0.620977 0.248075 0.111910
H46   H     H_    0.389911 0.621032 0.751750 0.163832
H47   H     H_    0.609736 0.378376 0.248194 0.163160
H48   H     H_    0.322240 0.689103 0.092386 0.095944
N1    N     N_R   0.499960 0.499900 0.743810 -0.246850
N2    N     N_R   0.500040 0.500100 0.256190 -0.247330
O1    O     O_R   0.500000 0.319630 0.582270 -0.511051
O2    O     O_3   0.690072 0.290395 0.099947 -0.570060
O3    O     O_3   0.301637 0.214266 0.432655 -0.578786
O4    O     O_3   0.720084 0.888015 0.572308 -0.579683
O5    O     O_R   0.500000 0.680370 0.417730 -0.511201
O6    O     O_R   0.499990 0.319660 0.417730 -0.487160
O7    O     O_R   0.500010 0.680340 0.582270 -0.504558
O8    O     O_R   0.370260 0.499960 0.582280 -0.514144
O9    O     O_R   0.629740 0.500040 0.417720 -0.515801
O10   O     O_R   0.370250 0.499990 0.417740 -0.501737
O11   O     O_R   0.629750 0.500010 0.582260 -0.511075
O12   O     O_3   0.307930 0.705481 0.898160 -0.576028

loop_
_geom_bond_atom_site_label_1
_geom_bond_atom_site_label_2
_ccdc_geom_bond_type
C40   C47   A    
C38   C40   A    
C45   C60   A    
C22   C29   A    
C39   H4    S    
C52   H26   S    
C8    C56   A    
C33   H1    S    
C7    H9    S    
C30   O2    S    
C53   C54   S    
C49   O12   S    
C59   H41   S    
Cu2   O5    S    
C7    C45   A    
C35   C37   A    
C24   C26   A    
C20   N1    A    
C11   C14   A    
C53   O3    S    
C33   C36   A    
C60   C62   A    
C10   H34   S    
C16   O8    A    
C47   H5    S    
C50   H21   S    
C21   H47   S    
C17   O9    A    
C12   O7    A    
C22   C25   A    
C55   H36   S    
C31   H48   S    
C17   C36   S    
C54   H32   S    
C2    C61   A    
C16   C37   S    
Cu1   O1    S    
C40   C42   A    
C53   H30   S    
C6    H17   S    
C29   O12   S    
C41   C43   A    
C42   C44   A    
C18   N1    A    
Cu1   O7    S    
C18   H44   S    
C19   H45   S    
C35   H12   S    
C59   H42   S    
C23   C47   A    
C53   H29   S    
C51   C52   S    
C23   H7    S    
Cu2   N2    S    
C4    H15   S    
C39   C41   A    
C10   C14   A    
C5    C7    A    
C6    C8    A    
C19   N2    A    
C25   C26   A    
Cu2   O10   S    
C59   H43   S    
C56   H13   S    
C1    O6    A    
C49   H18   S    
C1    C13   S    
C2    C4    A    
C57   H38   S    
C12   O5    A    
C55   H33   S    
C8    H10   S    
C34   C44   A    
C60   O3    S    
C5    H16   S    
C19   C28   A    
C9    C11   A    
C54   H31   S    
Cu1   O11   S    
C27   C32   A    
C20   H46   S    
C4    C6    A    
C20   C22   A    
C13   C15   A    
C52   H28   S    
C58   H40   S    
C42   C43   A    
C34   H8    S    
Cu1   O8    S    
C32   H2    S    
C3    C62   A    
C54   C55   S    
C61   O4    S    
C9    C15   A    
C33   C44   A    
C28   C31   A    
C18   C27   A    
C48   H6    S    
C21   N2    A    
C3    C5    A    
C10   C13   A    
C51   H24   S    
C11   C12   S    
C25   C27   A    
Cu2   O9    S    
C57   H37   S    
C26   C28   A    
C51   O2    S    
Cu2   O6    S    
C45   H11   S    
C49   H19   S    
C36   C38   A    
C58   C59   S    
C37   C39   A    
C51   H25   S    
C30   C32   A    
C3    H14   S    
C17   O11   A    
C57   C58   S    
C41   C48   A    
C50   H20   S    
C16   O10   A    
C2    C14   S    
C43   C46   A    
C24   C30   A    
C50   H22   S    
Cu1   Cu2   S    
Cu1   N1    S    
C34   C48   A    
C38   H3    S    
C29   C31   A    
C49   C50   S    
C21   C24   A    
C55   H35   S    
C23   C46   A    
C56   C61   A    
C52   H27   S    
C15   C62   S    
C58   H39   S    
C1    O1    A    
C35   C46   A    
C9    H23   S    
C57   O4    S    
