data_mof_unit_2942.cif
_audit_creation_date              2012-12-10T17:03:46-0500
_audit_creation_method            fapswitch 2.2
_symmetry_space_group_name_H-M    P1
_symmetry_Int_Tables_number       1
_space_group_crystal_system       triclinic
_cell_length_a                    10.042557
_cell_length_b                    10.748514
_cell_length_c                    13.110229
_cell_angle_alpha                 90.044394
_cell_angle_beta                  69.879109
_cell_angle_gamma                 89.996829
_cell_volume                      1328.78297492

loop_
_atom_site_label
_atom_site_type_symbol
_atom_type_description
_atom_site_fract_x
_atom_site_fract_y
_atom_site_fract_z
_atom_type_partial_charge
C1    C     C_R   0.498971 0.737264 0.502606 0.938603
C2    C     C_R   0.369044 0.491274 0.822706 -0.206362
C3    C     C_2   0.609495 0.067026 0.505858 -0.164452
C4    C     C_R   0.420955 0.495250 0.704261 0.890150
C5    C     C_2   0.505570 0.131151 0.488353 -0.330097
C6    C     C_2   0.612760 0.933133 0.499376 -0.155020
C7    C     C_2   0.494138 0.868763 0.513392 -0.332581
C8    C     C_2   0.108807 0.448430 0.424161 -0.129961
C9    C     C_2   0.957629 0.443130 0.427041 -0.160449
C10   C     C_R   0.501055 0.262726 0.497865 0.923057
C11   C     C_R   0.578936 0.498787 0.295832 0.862391
C12   C     C_R   0.432237 0.483920 0.984783 0.028451
C13   C     C_R   0.757755 0.355297 0.023770 -0.177190
C14   C     C_R   0.626604 0.479150 0.179465 -0.069908
C15   C     C_R   0.241635 0.551686 0.880365 -0.261067
C16   C     C_R   0.202964 0.572617 0.991595 0.601473
C17   C     C_R   0.301878 0.543440 0.042653 -0.335536
C18   C     C_3   0.011959 0.601377 0.152824 -0.284887
C19   C     C_R   0.456319 0.444247 0.877714 0.084396
C20   C     C_R   0.539470 0.461782 0.029854 0.114116
C21   C     C_R   0.655938 0.382895 0.975780 0.165907
C22   C     C_R   0.667050 0.330472 0.876063 -0.256184
C23   C     C_R   0.568811 0.361022 0.827269 -0.171196
C24   C     C_R   0.534618 0.516814 0.127175 -0.246473
C25   C     C_R   0.740894 0.400700 0.127077 -0.185263
H1    H     H_    0.811696 0.369239 0.168090 0.141782
H2    H     H_    0.845910 0.293838 0.983893 0.138978
H3    H     H_    0.455319 0.585227 0.167514 0.148495
H4    H     H_    0.173216 0.586170 0.838294 0.179761
H5    H     H_    0.274431 0.565475 0.127385 0.139274
H6    H     H_    0.580741 0.317548 0.750132 0.163958
H7    H     H_    0.695327 0.112895 0.523837 0.172983
H8    H     H_    0.058855 0.655576 0.204248 0.165166
H9    H     H_    0.018873 0.499596 0.166046 0.138235
H10   H     H_    0.897849 0.625981 0.179393 0.207470
H11   H     H_    0.423482 0.088328 0.463973 0.152317
H12   H     H_    0.714464 0.887549 0.483747 0.173419
H13   H     H_    0.390181 0.911393 0.535824 0.151839
H14   H     H_    0.188916 0.405439 0.355233 0.164501
H15   H     H_    0.072282 0.534354 0.566652 0.161969
H16   H     H_    0.936601 0.390592 0.363540 0.152066
H17   H     H_    0.872499 0.553192 0.556200 0.171162
H18   H     H_    0.752938 0.267324 0.834924 0.149473
N1    N     N_2   0.148270 0.498670 0.498870 -0.188323
N2    N     N_2   0.852610 0.498640 0.498840 -0.189271
O1    O     O_R   0.386950 0.680940 0.500020 -0.612631
O2    O     O_R   0.613110 0.680900 0.499980 -0.609945
O3    O     O_R   0.330780 0.500000 0.653640 -0.612495
O4    O     O_R   0.556930 0.499960 0.653610 -0.606276
O5    O     O_R   0.386890 0.319100 0.500020 -0.608045
O6    O     O_R   0.613050 0.319060 0.499980 -0.615624
O7    O     O_R   0.443070 0.500040 0.346390 -0.609139
O8    O     O_R   0.669220 0.500000 0.346360 -0.623710
O9    O     O_3   0.075591 0.634879 0.042549 -0.608125
Zn1   Zn    Zn3+2 0.349000 0.500030 0.500020 0.940074
Zn2   Zn    Zn3+2 0.651000 0.499970 0.499980 0.928742

loop_
_geom_bond_atom_site_label_1
_geom_bond_atom_site_label_2
_ccdc_geom_bond_type
O1    Zn1   S    
C12   C17   A    
O3    Zn1   S    
C19   C23   A    
C9    N2    D    
C6    C7    D    
C2    C15   A    
C8    H14   S    
O4    Zn2   S    
C18   H10   S    
C2    C4    S    
C22   H18   S    
C11   O8    A    
O7    Zn1   S    
C4    O4    A    
O5    Zn1   S    
C12   C20   A    
C2    C19   A    
C6    H12   S    
C13   C21   A    
C5    C10   S    
C21   C22   A    
C17   H5    S    
C18   H9    S    
N1    Zn1   S    
C13   C25   A    
C16   C17   A    
C10   O6    A    
C12   C19   A    
C1    O2    A    
C18   H8    S    
C7    H13   S    
C15   H4    S    
C14   C25   A    
C3    H7    S    
C11   C14   S    
C16   O9    S    
C1    O1    A    
C18   O9    S    
C15   C16   A    
C10   O5    A    
C5    H11   S    
C20   C24   A    
H15   N1    S    
C20   C21   A    
O6    Zn2   S    
C4    O3    A    
O8    Zn2   S    
C14   C24   A    
C22   C23   A    
O2    Zn2   S    
C11   O7    A    
C25   H1    S    
C1    C7    S    
C9    H16   S    
H17   N2    S    
C3    C6    S    
C13   H2    S    
C24   H3    S    
N2    Zn2   S    
C8    C9    S    
C3    C5    D    
C8    N1    D    
C23   H6    S    
