data_mof_unit_2136.cif
_audit_creation_date              2012-12-10T17:37:20-0500
_audit_creation_method            fapswitch 2.2
_symmetry_space_group_name_H-M    P1
_symmetry_Int_Tables_number       1
_space_group_crystal_system       triclinic
_cell_length_a                    12.469263
_cell_length_b                    13.151264
_cell_length_c                    15.844389
_cell_angle_alpha                 75.004442
_cell_angle_beta                  101.631059
_cell_angle_gamma                 117.016704
_cell_volume                      2225.20608302

loop_
_atom_site_label
_atom_site_type_symbol
_atom_type_description
_atom_site_fract_x
_atom_site_fract_y
_atom_site_fract_z
_atom_type_partial_charge
C1    C     C_R   0.855966 0.286902 0.502083 0.844193
C2    C     C_3   0.999992 0.497958 0.917183 -0.057697
C3    C     C_3   0.090361 0.598354 0.020521 0.145092
C4    C     C_3   0.999097 0.501049 0.082883 -0.073923
C5    C     C_3   0.984177 0.590834 0.949291 0.445670
C6    C     C_3   0.893571 0.493261 0.011074 0.370732
C7    C     C_1   0.000704 0.498043 0.825606 0.066127
C8    C     C_1   0.998304 0.500992 0.174484 0.118066
C9    C     C_R   0.276708 0.046529 0.442089 0.399927
C10   C     C_R   0.228589 0.839821 0.473888 -0.234379
C11   C     C_R   0.815970 0.074802 0.526637 0.239620
C12   C     C_R   0.000306 0.499493 0.659957 0.864371
C13   C     C_R   0.734065 0.960118 0.550791 -0.238213
C14   C     C_R   0.610646 0.929613 0.542738 0.431466
C15   C     C_R   0.564938 0.011495 0.493334 0.005117
C16   C     C_R   0.649073 0.128567 0.467923 -0.079096
C17   C     C_R   0.439240 0.983359 0.472036 -0.008701
C18   C     C_R   0.399759 0.072924 0.439882 -0.104079
C19   C     C_R   0.484043 0.184477 0.404425 0.266701
C20   C     C_R   0.605748 0.208321 0.414172 -0.160824
C21   C     C_R   0.351895 0.868687 0.478451 -0.252676
C22   C     C_R   0.190112 0.929456 0.457058 0.389002
C23   C     C_R   0.144989 0.714734 0.486896 0.838684
C24   C     C_R   0.774474 0.162917 0.495832 -0.199002
C25   C     C_R   0.367051 0.368815 0.664141 0.359990
C26   C     C_R   0.754632 0.639360 0.374908 0.697796
C27   C     C_R   0.658913 0.672874 0.349211 -0.332604
C28   C     C_R   0.560198 0.623006 0.397672 -0.161853
C29   C     C_R   0.554873 0.540229 0.474886 0.011448
C30   C     C_R   0.655599 0.509173 0.502170 0.108550
C31   C     C_R   0.452849 0.487777 0.526259 -0.052965
C32   C     C_R   0.462903 0.422705 0.610928 -0.092984
C33   C     C_R   0.565087 0.403661 0.640353 -0.306007
C34   C     C_R   0.999847 0.500773 0.340016 0.784002
C35   C     C_R   0.647584 0.425635 0.582962 0.505823
C36   C     C_R   0.341116 0.497195 0.498437 -0.003116
C37   C     C_R   0.256502 0.370815 0.629511 0.372661
C38   C     C_3   0.015103 0.409098 0.050252 0.506248
C39   C     C_3   0.907663 0.398690 0.979012 -0.374858
C40   C     C_1   0.000919 0.498544 0.749954 -0.138277
C41   C     C_1   0.998566 0.500962 0.250097 -0.128629
C42   C     C_3   0.107535 0.505533 0.988073 -0.282472
Cu1   Cu    Cu3+1 0.098270 0.475420 0.519690 1.017251
Cu2   Cu    Cu3+1 0.901730 0.524580 0.480310 1.044734
H1    H     H_    0.834742 0.317016 0.960733 0.164244
H2    H     H_    0.378995 0.800587 0.482404 0.241981
H3    H     H_    0.766843 0.894160 0.580471 0.202205
H4    H     H_    0.666070 0.290593 0.378751 0.188360
H5    H     H_    0.574167 0.357718 0.706679 0.201852
H6    H     H_    0.327288 0.549649 0.436387 0.151628
H7    H     H_    0.490622 0.653756 0.374780 0.161214
H8    H     H_    0.661181 0.739451 0.291835 0.160425
H9    H     H_    0.194822 0.509756 0.977269 0.178354
N1    N     N_R   0.246280 0.438200 0.549540 -0.239491
N2    N     N_R   0.754330 0.561180 0.450980 -0.226948
O1    O     O_R   0.972510 0.318130 0.524770 -0.501974
O2    O     O_R   0.806530 0.359650 0.491510 -0.546138
O3    O     O_R   0.082970 0.479240 0.637550 -0.558888
O4    O     O_R   0.916990 0.520750 0.604290 -0.524561
O5    O     O_R   0.193470 0.640350 0.508490 -0.598697
O6    O     O_R   0.027490 0.681870 0.475230 -0.506349
O7    O     O_R   0.083010 0.479250 0.395710 -0.569349
O8    O     O_R   0.917030 0.520760 0.362450 -0.553777
Br1   Br    Br    0.980981 0.100181 0.534423 -0.451913
O9    O     O_3   0.537905 0.819349 0.584069 -0.592388
C43   C     C_3   0.522393 0.825769 0.667951 -0.302784
H10   H     H_    0.477669 0.883732 0.663544 0.166806
H11   H     H_    0.610271 0.855267 0.709492 0.165083
H12   H     H_    0.462821 0.737483 0.700842 0.194112
Br2   Br    Br    0.120990 0.272618 0.697110 -0.428482
O10   O     O_3   0.376862 0.302981 0.746576 -0.552230
C44   C     C_3   0.416155 0.375502 0.808837 -0.293275
H13   H     H_    0.506251 0.449096 0.796593 0.141058
H14   H     H_    0.425305 0.323489 0.874949 0.193535
H15   H     H_    0.349261 0.409323 0.809738 0.179918
O11   O     O_3   0.855452 0.691808 0.328393 -0.577245
C45   C     C_3   0.822254 0.690496 0.237829 -0.337628
H16   H     H_    0.799442 0.764528 0.204520 0.152759
H17   H     H_    0.746686 0.606362 0.225276 0.193188
H18   H     H_    0.901254 0.702008 0.208038 0.198174
O12   O     O_3   0.031769 0.315737 0.109579 -0.546286
C46   C     C_3   0.045215 0.245620 0.062457 -0.226932
H19   H     H_    0.126704 0.294875 0.025700 0.161048
H20   H     H_    0.963074 0.207545 0.017247 0.148926
H21   H     H_    0.057685 0.172420 0.109916 0.189603
O13   O     O_3   0.720570 0.367188 0.608977 -0.534789
C47   C     C_3   0.656073 0.246748 0.642531 -0.303798
H22   H     H_    0.567791 0.206983 0.603420 0.152899
H23   H     H_    0.644012 0.231032 0.712963 0.157709
H24   H     H_    0.710826 0.201005 0.640168 0.180123
O14   O     O_3   0.785695 0.490048 0.029138 -0.570152
C48   C     C_3   0.695379 0.455094 0.959628 -0.304940
H25   H     H_    0.662828 0.360853 0.960871 0.177525
H26   H     H_    0.726923 0.506962 0.894512 0.171892
H27   H     H_    0.617348 0.469046 0.968439 0.182569
O15   O     O_3   0.970914 0.685753 0.889599 -0.558531
C49   C     C_3   0.940037 0.747904 0.933444 -0.216704
H28   H     H_    0.995359 0.763127 0.997277 0.176107
H29   H     H_    0.842471 0.702678 0.943407 0.173873
H30   H     H_    0.956322 0.834328 0.891374 0.196291
Br3   Br    Br    0.223034 0.738316 0.052358 -0.498086
O16   O     O_3   0.070173 0.902551 0.461974 -0.539699
C50   C     C_3   0.016610 0.932822 0.377699 -0.106487
H31   H     H_    0.917129 0.891741 0.379600 0.182176
H32   H     H_    0.036884 0.901267 0.326656 0.144691
H33   H     H_    0.044354 0.027967 0.358701 0.207735
Br4   Br    Br    0.440273 0.304882 0.332247 -0.484357
O17   O     O_3   0.240211 0.133483 0.434273 -0.537975
C51   C     C_3   0.276277 0.174523 0.513910 -0.118397
H34   H     H_    0.376311 0.216953 0.527156 0.124187
H35   H     H_    0.236293 0.103620 0.570185 0.183817
H36   H     H_    0.243220 0.241325 0.508158 0.212271

loop_
_geom_bond_atom_site_label_1
_geom_bond_atom_site_label_2
_ccdc_geom_bond_type
C43   H11   S    
C47   H22   S    
C3    C42   S    
C19   C20   A    
C4    C8    S    
C26   N2    A    
C5    O15   S    
C49   H28   S    
C45   H16   S    
C10   C22   A    
C9    O17   S    
C26   C27   A    
C30   C35   A    
C28   C29   A    
C1    O1    A    
C38   C42   S    
C51   H35   S    
C42   H9    S    
C38   C39   S    
C33   C35   A    
C35   O13   S    
C9    C22   A    
C43   H12   S    
Cu2   O4    S    
C33   H5    S    
C6    O14   S    
C11   C24   A    
C34   O7    A    
O17   C51   S    
C18   C19   A    
C48   H25   S    
Cu1   O3    S    
C25   C37   A    
C12   O4    A    
C2    C39   S    
C2    C7    S    
C26   O11   S    
C7    C40   T    
C25   O10   S    
C39   H1    S    
C12   O3    A    
C3    Br3   S    
C25   C32   A    
C43   H10   S    
C16   C24   A    
C37   Br2   S    
C34   C41   S    
C44   H15   S    
C49   H29   S    
O12   C46   S    
C45   H17   S    
C10   C21   A    
C23   O5    A    
C8    C41   T    
C4    C6    S    
C11   Br1   S    
C51   H36   S    
O14   C48   S    
C13   H3    S    
O13   C47   S    
C48   H27   S    
C17   C21   A    
C12   C40   S    
Cu1   Cu2   S    
Cu2   O8    S    
C29   C30   A    
C1    O2    A    
Cu1   O1    S    
Cu1   N1    S    
C31   C32   A    
C14   C15   A    
Cu2   O2    S    
C16   C20   A    
O15   C49   S    
C48   H26   S    
C17   C18   A    
C50   H32   S    
O11   C45   S    
C20   H4    S    
Cu1   O5    S    
C37   N1    A    
C44   H14   S    
C4    C38   S    
C46   H19   S    
C46   H20   S    
C47   H23   S    
C38   O12   S    
C10   C23   S    
C2    C5    S    
C3    C4    S    
C50   H31   S    
C49   H30   S    
C36   H6    S    
C27   H8    S    
C21   H2    S    
C45   H18   S    
C15   C17   A    
C6    C39   S    
C44   H13   S    
C3    C5    S    
Cu2   O6    S    
C46   H21   S    
C30   N2    A    
C22   O16   S    
C32   C33   A    
O10   C44   S    
C29   C31   A    
C51   H34   S    
C11   C13   A    
Cu2   N2    S    
C5    C6    S    
C2    C42   S    
C34   O8    A    
C28   H7    S    
C14   O9    S    
C50   H33   S    
O16   C50   S    
C36   N1    A    
C9    C18   A    
C23   O6    A    
C1    C24   S    
O9    C43   S    
C47   H24   S    
C27   C28   A    
C31   C36   A    
C13   C14   A    
C15   C16   A    
Cu1   O7    S    
C19   Br4   S    
