data_mof_unit_4314.cif
_audit_creation_date              2012-12-10T17:39:23-0500
_audit_creation_method            fapswitch 2.2
_symmetry_space_group_name_H-M    P1
_symmetry_Int_Tables_number       1
_space_group_crystal_system       triclinic
_cell_length_a                    12.34623
_cell_length_b                    13.158711
_cell_length_c                    27.790832
_cell_angle_alpha                 77.386096
_cell_angle_beta                  101.311784
_cell_angle_gamma                 116.355236
_cell_volume                      3922.49284953

loop_
_atom_site_label
_atom_site_type_symbol
_atom_type_description
_atom_site_fract_x
_atom_site_fract_y
_atom_site_fract_z
_atom_type_partial_charge
C1    C     C_R   0.854979 0.286416 0.506510 0.786417
C2    C     C_R   0.922410 0.390417 0.029574 0.029318
C3    C     C_R   0.009149 0.601321 0.015025 -0.029995
C4    C     C_R   0.999302 0.499402 0.592454 0.798287
C5    C     C_R   0.967599 0.496188 0.047861 0.043752
C6    C     C_R   0.889652 0.288073 0.063602 -0.299313
C7    C     C_R   0.896631 0.287733 0.114538 0.459633
C8    C     C_R   0.936581 0.392396 0.132602 -0.041607
C9    C     C_R   0.970594 0.496680 0.099091 -0.194758
C10   C     C_R   0.008324 0.601445 0.116930 -0.097210
C11   C     C_R   0.015888 0.599707 0.168471 0.596834
C12   C     C_R   0.087122 0.480894 0.731685 0.473152
C13   C     C_R   0.944041 0.396166 0.183549 0.583774
C14   C     C_R   0.080204 0.477491 0.285624 -0.191605
C15   C     C_R   0.086496 0.477628 0.336756 0.398314
C16   C     C_R   0.144887 0.714056 0.494350 0.833510
C17   C     C_R   0.909649 0.522075 0.319733 -0.286032
C18   C     C_R   0.904922 0.521884 0.269333 -0.093900
C19   C     C_R   0.989823 0.499423 0.252138 0.293318
C20   C     C_R   0.913819 0.390182 0.977881 0.063696
C21   C     C_R   0.972732 0.494756 0.946995 0.081709
C22   C     C_R   0.027200 0.599675 0.966252 0.056691
C23   C     C_R   0.992493 0.494687 0.746301 0.337954
C24   C     C_R   0.850081 0.288909 0.955963 -0.200253
C25   C     C_R   0.112299 0.697268 0.887959 -0.133524
C26   C     C_R   0.027759 0.703215 0.031931 0.026676
C27   C     C_R   0.033492 0.704251 0.083071 0.467508
C28   C     C_R   0.000395 0.500131 0.407443 0.840899
C29   C     C_R   0.103834 0.698315 0.937017 -0.218890
C30   C     C_R   0.282953 0.023008 0.437528 -0.172640
C31   C     C_R   0.226922 0.837784 0.489431 -0.267497
C32   C     C_R   0.805748 0.102418 0.561717 -0.283193
C33   C     C_R   0.717089 0.013584 0.588615 -0.133968
C34   C     C_R   0.978864 0.494376 0.896612 -0.050553
C35   C     C_R   0.594127 0.985012 0.572668 0.484043
C36   C     C_R   0.558287 0.028960 0.523447 -0.006727
C37   C     C_R   0.649058 0.124373 0.497632 0.027450
C38   C     C_R   0.436060 0.985973 0.499749 0.030371
C39   C     C_R   0.404085 0.054479 0.457636 0.005985
C40   C     C_R   0.922962 0.393859 0.825858 0.574892
C41   C     C_R   0.493913 0.151077 0.434302 -0.165933
C42   C     C_R   0.615114 0.180547 0.452024 -0.133021
C43   C     C_R   0.347808 0.873710 0.513518 0.286351
C44   C     C_R   0.193089 0.918202 0.454833 0.359791
C45   C     C_R   0.917318 0.391822 0.876043 -0.030015
C46   C     C_R   0.771784 0.165511 0.519025 -0.093604
C47   C     C_R   0.356202 0.336667 0.580992 -0.250997
C48   C     C_R   0.758938 0.644388 0.432349 -0.059923
C49   C     C_R   0.661352 0.675932 0.416642 0.364735
C50   C     C_R   0.558241 0.620726 0.441968 -0.169997
C51   C     C_R   0.551245 0.534483 0.483000 -0.071276
C52   C     C_R   0.051494 0.594417 0.817037 0.584415
C53   C     C_R   0.653504 0.505879 0.497363 0.271738
C54   C     C_R   0.447666 0.476083 0.510652 -0.007569
C55   C     C_R   0.451556 0.392868 0.552052 0.079663
C56   C     C_R   0.851371 0.290073 0.905880 -0.136399
C57   C     C_R   0.550962 0.365684 0.565039 -0.262024
C58   C     C_R   0.649332 0.420556 0.538183 -0.151591
C59   C     C_R   0.340312 0.496187 0.499696 0.022546
C60   C     C_R   0.254476 0.359508 0.569318 0.582500
C61   C     C_R   0.901015 0.509552 0.710964 -0.199388
C62   C     C_R   0.903261 0.511191 0.660905 -0.213864
C63   C     C_R   0.088919 0.482404 0.681072 -0.299795
C64   C     C_R   0.047397 0.596462 0.866910 -0.030175
C65   C     C_R   0.997291 0.497803 0.645461 -0.074132
C66   C     C_R   0.999698 0.499880 0.354089 -0.079758
Cu1   Cu    Cu3+1 0.098270 0.475420 0.511360 0.986886
Cu2   Cu    Cu3+1 0.901730 0.524580 0.488640 0.934057
H1    H     H_    0.161845 0.471871 0.669628 0.181507
H2    H     H_    0.744166 0.975972 0.624962 0.180287
H3    H     H_    0.682082 0.249674 0.430056 0.155924
H4    H     H_    0.553072 0.301088 0.596597 0.157723
H5    H     H_    0.360173 0.273983 0.613144 0.170794
H6    H     H_    0.330069 0.557778 0.468641 0.164043
H7    H     H_    0.839166 0.686262 0.412962 0.162807
H8    H     H_    0.801232 0.210386 0.890757 0.190549
H9    H     H_    0.485275 0.647411 0.428906 0.174936
H10   H     H_    0.720594 0.393386 0.551194 0.201100
H11   H     H_    0.145593 0.460531 0.271644 0.140903
H12   H     H_    0.828135 0.520083 0.722424 0.160141
H13   H     H_    0.862872 0.206810 0.051649 0.138741
H14   H     H_    0.795431 0.207784 0.976383 0.148881
H15   H     H_    0.831174 0.522742 0.634364 0.177095
H16   H     H_    0.103234 0.863271 0.991773 0.212266
H17   H     H_    0.964818 0.773864 0.964610 0.251572
H18   H     H_    0.092859 0.871495 0.075177 0.343730
H19   H     H_    0.023629 0.862057 0.460789 0.338959
H20   H     H_    0.235505 0.457761 0.751130 0.329950
H21   H     H_    0.320412 0.750378 0.568451 0.341441
H22   H     H_    0.446657 0.950849 0.599519 0.319134
H23   H     H_    0.170547 0.775746 0.866707 0.191094
H24   H     H_    0.091138 0.306802 0.585580 0.364388
H25   H     H_    0.742759 0.790781 0.363026 0.335556
H26   H     H_    0.228588 0.443029 0.351467 0.324043
H27   H     H_    0.838519 0.120735 0.128330 0.327673
H28   H     H_    0.842075 0.539522 0.331737 0.183714
H29   H     H_    0.834703 0.538740 0.243518 0.158508
H30   H     H_    0.161847 0.776211 0.952164 0.156071
H31   H     H_    0.470799 0.200531 0.400609 0.148746
H32   H     H_    0.257935 0.079136 0.407294 0.178992
H33   H     H_    0.899586 0.131483 0.578131 0.186787
N1    N     N_R   0.989120 0.494236 0.797580 -0.448300
N2    N     N_R   0.983802 0.498467 0.200128 -0.486755
N3    N     N_R   0.246290 0.438210 0.528570 -0.236320
N4    N     N_R   0.754320 0.561170 0.471730 -0.225204
N5    N     N_3   0.016897 0.798833 0.997960 -0.591969
O1    O     O_R   0.972510 0.318140 0.514280 -0.598202
O2    O     O_R   0.082990 0.479230 0.439860 -0.520965
O3    O     O_R   0.917010 0.520730 0.420680 -0.600230
O4    O     O_2   0.863214 0.296488 0.805467 -0.526152
O5    O     O_3   0.057191 0.803888 0.100433 -0.654379
O6    O     O_3   0.075574 0.893343 0.433386 -0.708659
O7    O     O_3   0.175955 0.466166 0.767449 -0.703482
O8    O     O_3   0.384208 0.796053 0.545864 -0.669756
O9    O     O_3   0.515336 0.927942 0.608408 -0.695071
O10   O     O_3   0.166486 0.301004 0.601120 -0.752436
O11   O     O_3   0.664039 0.760176 0.376778 -0.696422
O12   O     O_2   0.911321 0.298697 0.216542 -0.447041
O13   O     O_3   0.175998 0.456337 0.369852 -0.718729
O14   O     O_3   0.865177 0.185617 0.146989 -0.653249
O15   O     O_2   0.116721 0.691648 0.788126 -0.522468
O16   O     O_2   0.056127 0.698186 0.187255 -0.448077
O17   O     O_R   0.806530 0.359640 0.495100 -0.602910
O18   O     O_R   0.082990 0.479270 0.579320 -0.591685
O19   O     O_R   0.917010 0.520770 0.560140 -0.604875
O20   O     O_R   0.193470 0.640360 0.504900 -0.554571
O21   O     O_R   0.027490 0.681860 0.485720 -0.575885

loop_
_geom_bond_atom_site_label_1
_geom_bond_atom_site_label_2
_ccdc_geom_bond_type
C10   C27   A    
C62   H15   S    
C63   C65   A    
C8    C13   A    
C56   H8    S    
C22   C29   A    
C41   C42   A    
C35   C36   A    
Cu1   O18   S    
C26   N5    S    
C13   O12   S    
C7    C8    A    
C39   C41   A    
C16   C31   S    
C12   C23   A    
C52   N1    A    
C26   C27   A    
C31   C43   A    
C29   H30   S    
C59   N3    A    
C36   C37   A    
C43   O8    S    
C4    C65   S    
Cu1   O2    S    
C23   N1    S    
C61   H12   S    
C30   H32   S    
H20   O7    S    
C4    O18   A    
C18   C19   A    
C52   O15   S    
C37   C42   A    
C24   H14   S    
C47   C60   A    
H21   O8    S    
C19   N2    S    
C49   O11   S    
C20   C24   A    
C45   C56   A    
C8    C9    A    
H16   N5    S    
C41   H31   S    
C35   O9    S    
C18   H29   S    
C13   N2    A    
C9    C10   A    
C27   O5    S    
C6    H13   S    
C21   C22   A    
C48   H7    S    
C30   C44   A    
C2    C6    A    
H25   O11   S    
C14   C19   A    
Cu2   O17   S    
Cu1   N3    S    
C50   C51   A    
C54   C59   A    
C25   C29   A    
C40   C45   A    
C25   H23   S    
C31   C44   A    
C2    C20   A    
Cu1   Cu2   S    
C63   H1    S    
C47   H5    S    
C52   C64   A    
Cu1   O20   S    
C17   H28   S    
C12   C63   A    
C40   O4    S    
C21   C34   A    
C14   H11   S    
C15   C66   A    
C51   C53   A    
C25   C64   A    
C28   C66   S    
C1    O17   A    
C5    C9    A    
H26   O13   S    
C48   N4    A    
Cu2   O21   S    
C34   C64   A    
C17   C18   A    
C17   C66   A    
C34   C45   A    
H22   O9    S    
H24   O10   S    
C59   H6    S    
C33   H2    S    
C1    O1    A    
C4    O19   A    
C48   C49   A    
C55   C57   A    
C28   O3    A    
C60   O10   S    
C11   O16   S    
Cu2   N4    S    
H17   N5    S    
C50   H9    S    
C44   O6    S    
C47   C55   A    
C12   O7    S    
C54   C55   A    
C62   C65   A    
C32   H33   S    
C32   C46   A    
C7    O14   S    
C3    C26   A    
C3    C5    A    
C53   C58   A    
C6    C7    A    
H19   O6    S    
H27   O14   S    
C24   C56   A    
C51   C54   A    
C32   C33   A    
C36   C38   A    
H18   O5    S    
C38   C43   A    
Cu1   O1    S    
C57   C58   A    
C38   C39   A    
C28   O2    A    
C42   H3    S    
C33   C35   A    
C15   O13   S    
C30   C39   A    
Cu2   O3    S    
C57   H4    S    
C61   C62   A    
C1    C46   S    
C16   O21   A    
C10   C11   A    
C58   H10   S    
C40   N1    A    
C2    C5    A    
C53   N4    A    
C23   C61   A    
C20   C21   A    
C49   C50   A    
C14   C15   A    
C3    C22   A    
C11   N2    A    
C37   C46   A    
C60   N3    A    
C16   O20   A    
Cu2   O19   S    
