data_mof_unit_2830.cif
_audit_creation_date              2013-03-05T15:42:41-0500
_audit_creation_method            fapswitch 2.2
_symmetry_space_group_name_H-M    P1
_symmetry_Int_Tables_number       1
_space_group_crystal_system       triclinic
_cell_length_a                    7.746113
_cell_length_b                    8.53959
_cell_length_c                    27.64481
_cell_angle_alpha                 90.963656
_cell_angle_beta                  85.6559
_cell_angle_gamma                 94.066176
_cell_volume                      1818.70243187

loop_
_atom_site_label
_atom_site_type_symbol
_atom_site_description
_atom_site_fract_x
_atom_site_fract_y
_atom_site_fract_z
_atom_type_partial_charge
O1    O     O_R   0.389250 0.738570 0.503220 -0.614540
O2    O     O_R   0.610750 0.261430 0.496780 -0.620750
O3    O     O_R   0.678390 0.711630 0.494810 -0.636053
O4    O     O_R   0.321610 0.288370 0.505190 -0.633216
C1    C     C_R   0.546185 0.794915 0.498740 0.959258
C2    C     C_R   0.453853 0.205087 0.501215 0.954886
O5    O     O_R   0.355440 0.513440 0.575450 -0.619005
O6    O     O_R   0.644560 0.486560 0.424550 -0.569393
O7    O     O_R   0.644590 0.486500 0.567040 -0.585714
O8    O     O_R   0.355410 0.513500 0.432960 -0.636369
C3    C     C_R   0.501502 0.499059 0.593869 0.925806
C4    C     C_R   0.497654 0.499060 0.406075 0.916247
Zn1   Zn    Zn3+2 0.306940 0.517990 0.505620 0.947388
Zn2   Zn    Zn3+2 0.693060 0.482010 0.494380 0.966723
C5    C     C_R   0.461453 0.632616 0.822562 0.585983
C6    C     C_R   0.399004 0.370320 0.179459 0.585161
O9    O     O_2   0.492176 0.765636 0.796659 -0.498421
O10   O     O_2   0.352312 0.239276 0.205306 -0.521478
N1    N     N_R   0.442370 0.490339 0.799442 -0.349474
N2    N     N_R   0.458199 0.503765 0.202311 -0.337993
C7    C     C_R   0.392336 0.356172 0.824714 0.518724
C8    C     C_R   0.508095 0.638716 0.177779 0.536934
C9    C     C_R   0.334167 0.417276 0.721172 -0.161104
C10   C     C_R   0.345910 0.572651 0.283837 -0.183627
C11   C     C_R   0.349709 0.419050 0.671145 -0.271682
C12   C     C_R   0.356327 0.571284 0.333613 -0.269692
C13   C     C_R   0.636925 0.554377 0.672349 0.343413
C14   C     C_R   0.614558 0.422752 0.322828 0.322678
C15   C     C_R   0.625468 0.543587 0.723151 0.421123
C16   C     C_R   0.606624 0.429308 0.272491 0.428378
C17   C     C_R   0.468896 0.482064 0.747603 0.109155
C18   C     C_R   0.470023 0.501600 0.253418 0.151351
C19   C     C_R   0.399049 0.503871 0.899818 -0.095230
C20   C     C_R   0.436262 0.506822 0.102858 -0.096825
C21   C     C_R   0.450657 0.640455 0.873153 -0.033242
C22   C     C_R   0.384105 0.369951 0.129505 -0.034166
C23   C     C_R   0.489700 0.781600 0.897377 -0.033405
C24   C     C_R   0.318970 0.235327 0.105976 -0.058974
C25   C     C_R   0.352525 0.363335 0.875075 -0.147191
C26   C     C_R   0.507213 0.641359 0.126908 -0.153408
C27   C     C_R   0.499117 0.488946 0.646418 -0.213246
C28   C     C_R   0.490815 0.498006 0.353474 -0.214890
H1    H     H_    0.523712 0.889372 0.877645 0.208331
H2    H     H_    0.280327 0.128441 0.125751 0.206878
C29   C     C_R   0.470728 0.646251 0.025685 -0.005717
C30   C     C_R   0.339530 0.370471 0.977521 -0.005611
C31   C     C_R   0.351328 0.370291 0.028467 0.072666
C32   C     C_R   0.452239 0.648063 0.975133 0.070861
C33   C     C_R   0.418720 0.508071 0.052197 0.087555
C34   C     C_R   0.396014 0.507625 0.951049 0.087650
C35   C     C_R   0.551018 0.775292 0.049990 -0.291651
C36   C     C_R   0.268970 0.238958 0.952037 -0.295852
C37   C     C_R   0.573080 0.773225 0.099473 0.354242
C38   C     C_R   0.272333 0.234701 0.901504 0.345487
O11   O     O_2   0.554790 0.769655 0.202946 -0.490269
O12   O     O_2   0.388347 0.216044 0.801371 -0.486745
C39   C     C_R   0.488967 0.786007 0.947502 -0.187556
C40   C     C_R   0.304782 0.234484 0.056422 -0.185964
H3    H     H_    0.259777 0.628801 0.356596 0.197158
H4    H     H_    0.242656 0.368132 0.651680 0.196896
H5    H     H_    0.241921 0.629571 0.268738 0.167075
H6    H     H_    0.215512 0.367021 0.739561 0.190134
H7    H     H_    0.609437 0.876762 0.030827 0.179097
H8    H     H_    0.203669 0.139121 0.970441 0.183927
H9    H     H_    0.516046 0.900187 0.963516 0.148645
H10   H     H_    0.259691 0.123519 0.041266 0.151515
C41   C     C_2   0.570459 0.958662 0.497978 -0.385420
C42   C     C_2   0.429678 0.041336 0.501917 -0.374790
H11   H     H_    0.703111 0.010525 0.494214 0.178180
H12   H     H_    0.297032 0.989450 0.505705 0.179894
N3    N     N_2   0.950320 0.457960 0.486880 -0.173243
N4    N     N_2   0.049680 0.542040 0.513120 -0.170014
H13   H     H_    0.014120 0.383685 0.463115 0.195245
H14   H     H_    0.985711 0.615561 0.537007 0.208778
O13   O     O_3   0.781497 0.630260 0.648296 -0.591909
C43   C     C_3   0.756982 0.792740 0.648038 0.158407
H15   H     H_    0.747371 0.841791 0.685663 0.201819
H16   H     H_    0.637523 0.815984 0.630001 0.111938
C44   C     C_3   0.911104 0.878792 0.620177 -0.803651
H17   H     H_    0.915542 0.843229 0.581357 0.234390
H18   H     H_    0.898152 0.007411 0.622782 0.209812
H19   H     H_    0.033853 0.851676 0.635546 0.270919
O14   O     O_3   0.746195 0.347191 0.341676 -0.592510
C45   C     C_3   0.688657 0.188222 0.349233 0.171263
H20   H     H_    0.671558 0.126555 0.313914 0.193643
H21   H     H_    0.563858 0.176820 0.372272 0.108869
C46   C     C_3   0.823701 0.107947 0.375230 -0.795782
H22   H     H_    0.840961 0.165519 0.411037 0.250466
H23   H     H_    0.780489 0.982400 0.381033 0.204950
H24   H     H_    0.949932 0.115547 0.353153 0.263329
O15   O     O_3   0.759811 0.609613 0.748656 -0.574198
C47   C     C_3   0.851313 0.488757 0.766656 0.098542
H25   H     H_    0.922160 0.428044 0.736134 0.150142
H26   H     H_    0.763986 0.400669 0.787542 0.157449
C48   C     C_3   0.981279 0.560368 0.800773 -0.707711
H27   H     H_    0.912846 0.625677 0.830647 0.270812
H28   H     H_    0.049561 0.466105 0.816740 0.208463
H29   H     H_    0.078087 0.642094 0.780678 0.272705
O16   O     O_3   0.726696 0.357860 0.241616 -0.570741
C49   C     C_3   0.869846 0.466312 0.230237 0.102531
H30   H     H_    0.967005 0.457595 0.257487 0.177367
H31   H     H_    0.834164 0.590652 0.229201 0.157332
C50   C     C_3   0.952372 0.426089 0.180342 -0.695204
H32   H     H_    0.856172 0.432448 0.152725 0.261100
H33   H     H_    0.064353 0.511212 0.170820 0.189361
H34   H     H_    0.997912 0.305664 0.180166 0.281103
N5    N     N_R   0.676510 0.900389 0.119913 0.252123
O17   O     O_R   0.653159 0.044556 0.108948 -0.389834
O18   O     O_R   0.816908 0.871249 0.140190 -0.356414
N6    N     N_R   0.178431 0.106531 0.878231 0.244715
O19   O     O_R   0.166420 0.967068 0.896961 -0.407315
O20   O     O_R   0.075435 0.135464 0.844880 -0.359783

loop_
_geom_bond_atom_site_label_1
_geom_bond_atom_site_label_2
_geom_bond_distance
_ccdc_geom_bond_type
C46   H22   1.110755 S    
C10   H5    1.082892 S    
C13   C15   1.404664 A    
Zn2   N3    2.012534 S    
C48   H27   1.110946 S    
C43   C44   1.521121 S    
C1    C41   1.397938 S    
N1    C17   1.433520 S    
C48   H29   1.110735 S    
C32   C39   1.414886 A    
C31   C33   1.423391 A    
C5    N1    1.367206 A    
C19   C25   1.409415 A    
O1    C1    1.273133 A    
N1    C7    1.368916 A    
C43   H16   1.115157 S    
C25   C38   1.409897 A    
C29   C35   1.412013 A    
C30   C36   1.414568 A    
C38   N6    1.440589 S    
C14   C28   1.412632 A    
O4    Zn1   1.971964 S    
C13   C27   1.408351 A    
N6    O19   1.301103 A    
C49   H30   1.111388 S    
C4    C28   1.458964 S    
C24   C40   1.382458 A    
C40   H10   1.075804 S    
C9    H6    1.080737 S    
O14   C45   1.412377 S    
N5    O17   1.301040 A    
C45   C46   1.520815 S    
C11   H4    1.083903 S    
C12   H3    1.083460 S    
C6    N2    1.361453 A    
C2    C42   1.397886 S    
C14   O14   1.383006 S    
N5    O18   1.301663 A    
O2    C2    1.272821 A    
C13   O13   1.383811 S    
C5    C21   1.395498 A    
C36   C38   1.395156 A    
C41   C42   1.337205 D    
C35   H7    1.076929 S    
C43   H15   1.113978 S    
O4    C2    1.284856 A    
C36   H8    1.075192 S    
C11   C27   1.399590 A    
O15   C47   1.410528 S    
N3    H13   1.029276 S    
O7    Zn2   2.015537 S    
C19   C34   1.414554 A    
C16   O16   1.381496 S    
C49   C50   1.520146 S    
C41   H11   1.087949 S    
C9    C17   1.396140 A    
C23   H1    1.083834 S    
O5    C3    1.289776 A    
O13   C43   1.413931 S    
C10   C18   1.393801 A    
C24   H2    1.083895 S    
C7    O12   1.349489 S    
C37   N5    1.436998 S    
O16   C49   1.413349 S    
C7    C25   1.404232 A    
C29   C33   1.417322 A    
O6    C4    1.293943 A    
C8    C26   1.407436 A    
C49   H31   1.117359 S    
C50   H33   1.110195 S    
C6    O10   1.350565 S    
C45   H20   1.113817 S    
O7    C3    1.296044 A    
O3    Zn2   1.971964 S    
O8    C4    1.293739 A    
N4    H14   1.027806 S    
N2    C8    1.364119 A    
C46   H23   1.110843 S    
C20   C26   1.415679 A    
O1    Zn1   1.945913 S    
C15   O15   1.382941 S    
C12   C28   1.403201 A    
C44   H18   1.110636 S    
N2    C18   1.423212 S    
C29   C32   1.416023 A    
C5    O9    1.350179 S    
C30   C31   1.418273 A    
C20   C33   1.417573 A    
O6    Zn2   1.995921 S    
C21   C23   1.394475 A    
C10   C12   1.384784 A    
C39   H9    1.077608 S    
O3    C1    1.284606 A    
O8    Zn1   2.015537 S    
C44   H19   1.110837 S    
C48   H28   1.109180 S    
C8    O11   1.348989 S    
Zn1   N4    2.012535 S    
C30   C34   1.416486 A    
C22   C24   1.393417 A    
C14   C16   1.399799 A    
C15   C17   1.414672 A    
C6    C22   1.394378 A    
C31   C40   1.414521 A    
C16   C18   1.402448 A    
C47   H26   1.113605 S    
C32   C34   1.419236 A    
C47   H25   1.112391 S    
C19   C21   1.407758 A    
C3    C27   1.455378 S    
C50   H34   1.110428 S    
C20   C22   1.410309 A    
C47   C48   1.521236 S    
O2    Zn2   1.945913 S    
N6    O20   1.301775 A    
C44   H17   1.109081 S    
O5    Zn1   1.995920 S    
C9    C11   1.379342 A    
N3    N4    1.273890 D    
C42   H12   1.087989 S    
C26   C37   1.411452 A    
C46   H24   1.111182 S    
C50   H32   1.111037 S    
C45   H21   1.115838 S    
C35   C37   1.391920 A    
C23   C39   1.385161 A    
