data_mof_unit_1875.cif
_audit_creation_date              2012-12-10T17:34:59-0500
_audit_creation_method            fapswitch 2.2
_symmetry_space_group_name_H-M    P1
_symmetry_Int_Tables_number       1
_space_group_crystal_system       triclinic
_cell_length_a                    12.450677
_cell_length_b                    13.146874
_cell_length_c                    13.84045
_cell_angle_alpha                 109.445035
_cell_angle_beta                  74.842936
_cell_angle_gamma                 116.89688
_cell_volume                      1888.55923922

loop_
_atom_site_label
_atom_site_type_symbol
_atom_type_description
_atom_site_fract_x
_atom_site_fract_y
_atom_site_fract_z
_atom_type_partial_charge
C1    C     C_R   0.144448 0.715891 0.512578 0.791640
C2    C     C_1   0.968300 0.498480 0.790033 -0.190313
C3    C     C_R   0.736226 0.951436 0.413855 0.116849
C4    C     C_R   0.773831 0.159324 0.477645 -0.119040
C5    C     C_R   0.194360 0.934332 0.599127 -0.017843
C6    C     C_R   0.284163 0.047184 0.633193 0.417868
C7    C     C_R   0.406997 0.068998 0.601987 0.347734
C8    C     C_R   0.443019 0.987316 0.519204 -0.096130
C9    C     C_R   0.354483 0.874945 0.482069 -0.072266
C10   C     C_R   0.566735 0.012993 0.477630 0.049277
C11   C     C_R   0.607710 0.922745 0.418680 0.017662
C12   C     C_R   0.982461 0.501967 0.685807 0.803013
C13   C     C_R   0.517619 0.815164 0.367686 0.141204
C14   C     C_R   0.393472 0.796628 0.398923 -0.119883
C15   C     C_R   0.650063 0.129241 0.486315 -0.224928
C16   C     C_R   0.812290 0.068923 0.462760 0.104723
C17   C     C_R   0.229403 0.843831 0.527346 -0.199621
C18   C     C_R   0.661287 0.699084 0.657177 0.075976
C19   C     C_R   0.244950 0.336685 0.368432 0.633889
C20   C     C_R   0.312599 0.277128 0.373827 0.032537
C21   C     C_R   0.391605 0.331485 0.448249 -0.284421
C22   C     C_R   0.430345 0.452476 0.493721 -0.064587
C23   C     C_R   0.856301 0.285100 0.488074 0.790605
C24   C     C_R   0.345155 0.501312 0.505096 0.167180
C25   C     C_R   0.545352 0.522882 0.533576 -0.034750
C26   C     C_R   0.565148 0.637071 0.596231 0.043983
C27   C     C_R   0.490331 0.688658 0.595143 -0.287165
C28   C     C_R   0.371590 0.619195 0.572949 0.203677
C29   C     C_R   0.649487 0.494205 0.503331 0.307657
C30   C     C_R   0.750570 0.656581 0.637330 -0.011894
C31   C     C_R   0.015664 0.495492 0.313673 0.797650
C32   C     C_1   0.025497 0.494462 0.208566 -0.169616
C33   C     C_2   0.036418 0.494002 0.015789 -0.197057
C34   C     C_2   0.942904 0.491970 0.982820 0.175124
C35   C     C_1   0.956222 0.495423 0.877888 -0.051167
C36   C     C_1   0.032030 0.494089 0.120442 0.010553
Cu1   Cu    Cu3+1 0.899780 0.525060 0.522890 0.913436
Cu2   Cu    Cu3+1 0.100220 0.474940 0.477110 0.938054
H1    H     H_    0.325105 0.721068 0.357123 0.178106
H2    H     H_    0.825066 0.700796 0.682268 0.151054
H3    H     H_    0.515102 0.781335 0.632360 0.163991
H4    H     H_    0.424489 0.279234 0.468030 0.165063
H5    H     H_    0.118980 0.496467 0.963194 0.138995
H6    H     H_    0.617001 0.197008 0.501576 0.202873
N1    N     N_R   0.748810 0.563010 0.557590 -0.209785
N2    N     N_R   0.250540 0.437620 0.443020 -0.251407
O1    O     O_R   0.025040 0.682470 0.528790 -0.571558
O2    O     O_R   0.194310 0.640150 0.490130 -0.595167
O3    O     O_R   0.903380 0.524130 0.659910 -0.565666
O4    O     O_R   0.072660 0.481800 0.621240 -0.582443
O5    O     O_R   0.805690 0.359850 0.509870 -0.595829
O6    O     O_R   0.974960 0.317530 0.471210 -0.580226
O7    O     O_R   0.927340 0.518200 0.378760 -0.593512
O8    O     O_R   0.096620 0.475870 0.340090 -0.525763
C37   C     C_3   0.825815 0.489844 0.051417 -0.354963
C38   C     C_3   0.835868 0.614176 0.109839 -0.849621
H7    H     H_    0.906636 0.656704 0.162261 0.256741
H8    H     H_    0.859157 0.668414 0.054715 0.252778
H9    H     H_    0.747503 0.610042 0.156892 0.240956
H10   H     H_    0.750188 0.447214 0.003767 0.195529
H11   H     H_    0.801774 0.436029 0.106776 0.199266
C39   C     C_3   0.664853 0.802530 0.749158 -0.416743
C40   C     C_3   0.740143 0.919280 0.719838 -0.875006
H12   H     H_    0.701557 0.925622 0.659429 0.261725
H13   H     H_    0.741094 0.992921 0.789015 0.245503
H14   H     H_    0.834747 0.928113 0.690264 0.254832
H15   H     H_    0.571647 0.796813 0.783390 0.206665
H16   H     H_    0.704673 0.800441 0.811284 0.196502
C41   C     C_3   0.660053 0.403528 0.401640 -0.325249
C42   C     C_3   0.658118 0.438893 0.307721 -0.879788
H17   H     H_    0.579380 0.460626 0.316296 0.263964
H18   H     H_    0.742697 0.516478 0.295496 0.267079
H19   H     H_    0.652636 0.364548 0.238338 0.230511
H20   H     H_    0.741359 0.387868 0.386516 0.248175
H21   H     H_    0.595071 0.313070 0.400763 0.146796
O9    O     O_3   0.196212 0.311612 0.279556 -0.577032
C43   C     C_3   0.091662 0.205145 0.265705 -0.304365
H22   H     H_    0.081430 0.143242 0.308713 0.125031
H23   H     H_    0.096144 0.158821 0.182499 0.169159
H24   H     H_    0.009452 0.224255 0.285559 0.187945
C44   C     C_3   0.312667 0.163101 0.298578 -0.383553
C45   C     C_3   0.248791 0.060116 0.349857 -0.877021
H25   H     H_    0.298706 0.073707 0.411923 0.247310
H26   H     H_    0.154364 0.050042 0.383509 0.237377
H27   H     H_    0.245762 0.977349 0.291407 0.249190
H28   H     H_    0.270567 0.141451 0.229178 0.218411
H29   H     H_    0.408261 0.173404 0.269518 0.209472
C46   C     C_3   0.290010 0.658005 0.668186 -0.282880
C47   C     C_3   0.266938 0.594901 0.751609 -0.846294
H30   H     H_    0.220657 0.497986 0.723032 0.263910
H31   H     H_    0.354234 0.614693 0.775526 0.239970
H32   H     H_    0.210973 0.626880 0.820928 0.233864
H33   H     H_    0.334173 0.753754 0.705503 0.144764
H34   H     H_    0.209438 0.661016 0.655245 0.213352
C48   C     C_3   0.923193 0.095333 0.510311 -0.399133
C49   C     C_3   0.915864 0.159606 0.625270 -0.826069
H35   H     H_    0.948514 0.255527 0.635456 0.262039
H36   H     H_    0.821276 0.127484 0.664500 0.251342
H37   H     H_    0.974390 0.146059 0.663897 0.231403
H38   H     H_    0.932277 0.014006 0.505750 0.202858
H39   H     H_    0.008368 0.148798 0.469572 0.208659
C50   C     C_3   0.550993 0.728396 0.272893 -0.438954
C51   C     C_3   0.447696 0.629925 0.213182 -0.834334
H40   H     H_    0.381747 0.569949 0.262197 0.277603
H41   H     H_    0.401113 0.667199 0.184853 0.248026
H42   H     H_    0.485939 0.576791 0.144893 0.248047
H43   H     H_    0.616036 0.779059 0.216644 0.204057
H44   H     H_    0.592290 0.682711 0.295668 0.224124
C52   C     C_3   0.798043 0.866378 0.358941 -0.444980
C53   C     C_3   0.772565 0.778497 0.419875 -0.812624
H45   H     H_    0.803558 0.824373 0.496861 0.256258
H46   H     H_    0.674653 0.722940 0.430763 0.261037
H47   H     H_    0.822200 0.721240 0.377500 0.246366
H48   H     H_    0.778248 0.822135 0.278977 0.191659
H49   H     H_    0.898095 0.915307 0.345747 0.192231
C54   C     C_3   0.065238 0.913295 0.651059 -0.321144
C55   C     C_3   0.039919 0.871495 0.748580 -0.804965
H50   H     H_    0.041112 0.782957 0.728779 0.238198
H51   H     H_    0.109457 0.934035 0.800721 0.264221
H52   H     H_    0.949831 0.867733 0.791146 0.223586
H53   H     H_    0.050950 0.996057 0.674127 0.215611
H54   H     H_    0.997187 0.853927 0.597552 0.202627
O10   O     O_3   0.490613 0.169496 0.657495 -0.571803
C56   C     C_3   0.518810 0.139170 0.733584 -0.259186
H55   H     H_    0.561405 0.074459 0.698394 0.145679
H56   H     H_    0.436754 0.104251 0.788797 0.167991
H57   H     H_    0.585536 0.219766 0.778209 0.181680
O11   O     O_3   0.252332 0.130906 0.711606 -0.559365
C57   C     C_3   0.261765 0.218927 0.669240 -0.306902
H58   H     H_    0.211736 0.180980 0.600958 0.143752
H59   H     H_    0.358469 0.275323 0.648715 0.202260
H60   H     H_    0.220253 0.276391 0.728575 0.185551

loop_
_geom_bond_atom_site_label_1
_geom_bond_atom_site_label_2
_ccdc_geom_bond_type
C2    C35   T    
C37   C38   S    
C40   H13   S    
C30   N1    A    
C19   C20   A    
C18   C26   A    
C2    C12   S    
O11   C57   S    
C12   O3    A    
C19   N2    A    
O10   C56   S    
C43   H22   S    
C38   H7    S    
C37   H10   S    
C26   C27   A    
Cu1   Cu2   S    
C54   H54   S    
C39   H15   S    
C32   C36   T    
C19   O9    S    
C15   H6    S    
C10   C15   A    
C55   H51   S    
C5    C6    A    
Cu1   O5    S    
Cu2   O6    S    
C49   H37   S    
C33   C36   S    
C54   C55   S    
C34   C35   S    
C53   H45   S    
C20   C44   S    
C14   H1    S    
C48   C49   S    
C8    C9    A    
C22   C25   A    
C49   H36   S    
C28   C46   S    
C50   H44   S    
C42   H17   S    
C18   C30   A    
Cu1   O1    S    
Cu2   O2    S    
C44   H28   S    
C57   H60   S    
Cu1   O7    S    
C40   H14   S    
C34   C37   S    
C13   C14   A    
C41   C42   S    
C44   C45   S    
C29   C41   S    
C43   H23   S    
C25   C29   A    
C46   H34   S    
C54   H53   S    
C33   H5    S    
C7    C8    A    
O9    C43   S    
C55   H52   S    
C4    C23   S    
C48   H38   S    
C1    O1    A    
C25   C26   A    
C21   H4    S    
C29   N1    A    
C4    C16   A    
C9    C14   A    
C39   C40   S    
Cu1   O3    S    
C27   H3    S    
C23   O5    A    
C31   C32   S    
Cu2   O8    S    
C49   H35   S    
C20   C21   A    
C42   H19   S    
C33   C34   D    
C30   H2    S    
C50   H43   S    
C51   H41   S    
C31   O7    A    
C47   H32   S    
C53   H47   S    
C44   H29   S    
C52   H48   S    
C56   H57   S    
C9    C17   A    
C45   H26   S    
C5    C54   S    
C22   C24   A    
C47   H31   S    
Cu1   N1    S    
C51   H40   S    
C56   H56   S    
C57   H58   S    
C43   H24   S    
C46   H33   S    
C16   C48   S    
C18   C39   S    
C24   C28   A    
C7    O10   S    
C12   O4    A    
C1    O2    A    
C6    C7    A    
Cu2   O4    S    
C45   H27   S    
C1    C17   S    
C38   H9    S    
C39   H16   S    
C24   N2    A    
C4    C15   A    
C47   H30   S    
C6    O11   S    
C55   H50   S    
C11   C13   A    
C23   O6    A    
C3    C52   S    
C37   H11   S    
C38   H8    S    
C41   H21   S    
C51   H42   S    
C31   O8    A    
C50   C51   S    
C53   H46   S    
Cu2   N2    S    
C3    C11   A    
C10   C11   A    
C52   H49   S    
C40   H12   S    
C5    C17   A    
C46   C47   S    
C8    C10   A    
C45   H25   S    
C52   C53   S    
C27   C28   A    
C41   H20   S    
C42   H18   S    
C13   C50   S    
C21   C22   A    
C3    C16   A    
C48   H39   S    
C56   H55   S    
C57   H59   S    
