data_mof_unit_3310.cif
_audit_creation_date              2012-12-10T17:55:26-0500
_audit_creation_method            fapswitch 2.2
_symmetry_space_group_name_H-M    P1
_symmetry_Int_Tables_number       1
_space_group_crystal_system       triclinic
_cell_length_a                    10.886638
_cell_length_b                    9.532869
_cell_length_c                    10.932445
_cell_angle_alpha                 89.688259
_cell_angle_beta                  91.539634
_cell_angle_gamma                 89.470087
_cell_volume                      1134.10242915

loop_
_atom_site_label
_atom_site_type_symbol
_atom_type_description
_atom_site_fract_x
_atom_site_fract_y
_atom_site_fract_z
_atom_type_partial_charge
C1    C     C_R   0.263097 0.500456 0.511711 0.867557
C2    C     C_R   0.738399 0.499410 0.501160 0.869327
C3    C     C_R   0.493021 0.500324 0.265321 0.772179
C4    C     C_R   0.506877 0.499380 0.734547 0.775886
C5    C     C_2   0.487813 0.392955 0.933753 -0.198475
C6    C     C_2   0.504493 0.391978 0.066547 -0.210897
C7    C     C_2   0.531297 0.497559 0.865284 0.322270
C8    C     C_2   0.469135 0.501425 0.134204 0.310902
C9    C     C_R   0.066664 0.375868 0.552220 0.329248
C10   C     C_R   0.938561 0.377061 0.549755 0.326972
C11   C     C_R   0.873476 0.498899 0.508257 -0.222471
C12   C     C_R   0.129981 0.501700 0.530224 -0.235933
C13   C     C_R   0.939632 0.623764 0.483955 0.048538
C14   C     C_R   0.062816 0.629225 0.523660 0.040200
C15   C     C_R   0.426212 0.076639 0.420089 -0.032168
C16   C     C_R   0.572317 0.073993 0.581025 -0.026213
C17   C     C_R   0.425199 0.928463 0.420202 0.387860
C18   C     C_R   0.574477 0.925927 0.580030 0.396208
Cu1   Cu    Cu3+1 0.500000 0.640660 0.500000 1.056419
Cu2   Cu    Cu3+1 0.500000 0.359340 0.500000 1.015628
H1    H     H_    0.437518 0.306804 0.892069 0.165396
H2    H     H_    0.547341 0.299775 0.108853 0.160790
H3    H     H_    0.367129 0.134726 0.356348 0.184118
H4    H     H_    0.628658 0.129860 0.646981 0.214909
N1    N     N_R   0.500000 0.852070 0.500000 -0.246779
N2    N     N_R   0.500000 0.147940 0.500000 -0.215120
O1    O     O_R   0.319640 0.618740 0.499990 -0.561997
O2    O     O_R   0.680360 0.618740 0.500010 -0.558694
O3    O     O_R   0.319620 0.381170 0.499990 -0.532013
O4    O     O_R   0.680380 0.381170 0.500010 -0.539253
O5    O     O_R   0.500000 0.618750 0.321940 -0.505971
O6    O     O_R   0.500000 0.618750 0.678060 -0.515713
O7    O     O_R   0.499970 0.381180 0.321940 -0.620640
O8    O     O_R   0.500030 0.381180 0.678060 -0.604503
Cl1   Cl    Cl    0.633255 0.624996 0.925473 -0.518349
Cl2   Cl    Cl    0.378827 0.641470 0.071864 -0.508803
Cl3   Cl    Cl    0.144146 0.217727 0.596290 -0.577802
Cl4   Cl    Cl    0.864990 0.223128 0.601115 -0.551447
C19   C     C_3   0.886119 0.748541 0.410851 -0.346807
C20   C     C_3   0.840009 0.706645 0.282056 -0.357113
C21   C     C_3   0.775713 0.830128 0.216994 -0.679293
H5    H     H_    0.693310 0.863068 0.267788 0.253083
H6    H     H_    0.839199 0.920188 0.209884 0.251378
H7    H     H_    0.745953 0.798675 0.123352 0.295864
H8    H     H_    0.919464 0.672097 0.227551 0.245614
H9    H     H_    0.774627 0.618358 0.285188 0.217164
H10   H     H_    0.813955 0.803277 0.462273 0.254506
H11   H     H_    0.957605 0.828761 0.395794 0.211793
C22   C     C_3   0.113007 0.765981 0.577018 -0.335707
C23   C     C_3   0.162910 0.746168 0.709166 -0.358148
C24   C     C_3   0.216029 0.882210 0.759865 -0.640841
H12   H     H_    0.291442 0.919519 0.701752 0.252452
H13   H     H_    0.143167 0.964240 0.763452 0.290037
H14   H     H_    0.253666 0.863694 0.854043 0.272403
H15   H     H_    0.087220 0.711577 0.768263 0.249628
H16   H     H_    0.236224 0.664648 0.714325 0.227079
H17   H     H_    0.183240 0.811399 0.517941 0.257020
H18   H     H_    0.038949 0.846566 0.581912 0.231988
Cl5   Cl    Cl    0.324685 0.847876 0.314931 -0.542674
Cl6   Cl    Cl    0.677450 0.842336 0.683289 -0.510593

loop_
_geom_bond_atom_site_label_1
_geom_bond_atom_site_label_2
_ccdc_geom_bond_type
C3    O5    A    
C8    Cl2   S    
Cu1   O1    S    
C9    C10   A    
C23   H15   S    
C2    O4    A    
C10   Cl4   S    
C24   H14   S    
C17   N1    A    
C9    Cl3   S    
C23   C24   S    
Cu1   O5    S    
C23   H16   S    
C16   H4    S    
C16   C18   A    
Cu2   O4    S    
C13   C14   A    
C20   H9    S    
Cu1   O2    S    
C21   H6    S    
C1    O3    A    
C4    O6    A    
C18   N1    A    
Cu2   N2    S    
C17   Cl5   S    
C4    C7    S    
C2    C11   S    
C15   H3    S    
C20   C21   S    
C21   H7    S    
C12   C14   A    
C3    C8    S    
Cu2   O3    S    
C16   N2    A    
C5    C6    S    
Cu1   N1    S    
C9    C12   A    
C4    O8    A    
C13   C19   S    
C14   C22   S    
C2    O2    A    
C10   C11   A    
Cu2   O7    S    
C24   H12   S    
C6    H2    S    
C11   C13   A    
C22   H17   S    
C20   H8    S    
C1    O1    A    
C22   C23   S    
C21   H5    S    
Cu2   O8    S    
C18   Cl6   S    
C19   C20   S    
C5    C7    D    
C3    O7    A    
C15   N2    A    
C6    C8    D    
C15   C17   A    
C19   H10   S    
C7    Cl1   S    
Cu1   O6    S    
C1    C12   S    
C22   H18   S    
Cu1   Cu2   S    
C19   H11   S    
C24   H13   S    
C5    H1    S    
