data_mof_unit_815.cif
_audit_creation_date              2012-12-10T20:34:57-0500
_audit_creation_method            fapswitch 2.2
_symmetry_space_group_name_H-M    P1
_symmetry_Int_Tables_number       1
_space_group_crystal_system       triclinic
_cell_length_a                    10.632825
_cell_length_b                    10.663408
_cell_length_c                    9.852842
_cell_angle_alpha                 90.405192
_cell_angle_beta                  90.255909
_cell_angle_gamma                 90.125776
_cell_volume                      1117.09457342

loop_
_atom_site_label
_atom_site_type_symbol
_atom_type_description
_atom_site_fract_x
_atom_site_fract_y
_atom_site_fract_z
_atom_type_partial_charge
C1    C     C_R   0.505708 0.259919 0.499541 0.940720
C2    C     C_R   0.511436 0.937212 0.623334 0.187025
C3    C     C_3   0.409431 0.931115 0.726928 -0.460811
C4    C     C_R   0.257618 0.499320 0.499591 0.832616
C5    C     C_3   0.409798 0.073312 0.725629 -0.501937
C6    C     C_R   0.436427 0.409566 0.070138 0.223307
C7    C     C_R   0.571773 0.582699 0.073597 -0.278696
C8    C     C_R   0.573680 0.582899 0.927309 0.565472
C9    C     C_R   0.436559 0.409406 0.927710 0.109647
C10   C     C_3   0.298769 0.384386 0.920689 -0.500182
C11   C     C_3   0.298492 0.385158 0.074592 -0.505210
C12   C     C_3   0.878703 0.497842 0.499212 0.086260
C13   C     C_R   0.504827 0.739890 0.500539 0.909780
C14   C     C_R   0.742329 0.499742 0.499953 0.897774
C15   C     C_3   0.073031 0.380219 0.573435 -0.434490
C16   C     C_3   0.928194 0.379773 0.574676 0.227122
C17   C     C_3   0.072573 0.617970 0.571507 -0.418279
C18   C     C_3   0.070690 0.495547 0.350831 -0.402194
C19   C     C_3   0.121248 0.498364 0.498862 0.137712
C20   C     C_3   0.533139 0.095738 0.155257 -0.288543
C21   C     C_3   0.742878 0.724552 0.921235 -0.383973
C22   C     C_3   0.928299 0.617171 0.572696 -0.479986
C23   C     C_3   0.928083 0.498282 0.350769 -0.354561
C24   C     C_R   0.511894 0.064698 0.621956 0.101104
C25   C     C_R   0.527277 0.128324 0.500165 -0.214046
C26   C     C_R   0.567137 0.063004 0.382687 0.569182
C27   C     C_R   0.568877 0.932170 0.386446 -0.340261
C28   C     C_R   0.526494 0.870880 0.502893 -0.195838
Cl1   Cl    Cl    0.867959 0.236197 0.502955 -0.649513
H1    H     H_    0.108336 0.379420 0.679897 0.151528
H2    H     H_    0.624721 0.650366 0.132695 0.155345
H3    H     H_    0.110137 0.294389 0.522778 0.194901
H4    H     H_    0.245112 0.463630 0.876277 0.212247
H5    H     H_    0.277135 0.290844 0.875938 0.200135
H6    H     H_    0.245466 0.465505 0.117857 0.209209
H7    H     H_    0.276177 0.292260 0.119020 0.195791
H8    H     H_    0.896285 0.382872 0.682128 0.125622
H9    H     H_    0.108295 0.622481 0.677841 0.178140
H10   H     H_    0.895138 0.619629 0.679615 0.196865
H11   H     H_    0.106391 0.577688 0.293205 0.175392
H12   H     H_    0.895494 0.584137 0.297343 0.164225
H13   H     H_    0.102672 0.408637 0.298190 0.187967
H14   H     H_    0.891652 0.415933 0.292560 0.230153
H15   H     H_    0.552212 0.164365 0.073836 0.186694
H16   H     H_    0.430800 0.100632 0.178535 0.140322
H17   H     H_    0.558148 0.001823 0.114256 0.148816
H18   H     H_    0.802444 0.652768 0.971825 0.154505
H19   H     H_    0.709218 0.796646 0.994458 0.167216
H20   H     H_    0.803020 0.773717 0.846785 0.203743
H21   H     H_    0.106923 0.703203 0.518436 0.173843
H22   H     H_    0.892172 0.702908 0.521911 0.190031
H23   H     H_    0.597086 0.879049 0.297661 0.172271
H24   H     H_    0.321004 0.889040 0.686323 0.190198
H25   H     H_    0.443244 0.891404 0.824522 0.219393
H26   H     H_    0.321489 0.114227 0.684431 0.197333
H27   H     H_    0.443752 0.115620 0.822561 0.206996
N1    N     N_R   0.499150 0.499140 0.142800 -0.117311
N2    N     N_R   0.499150 0.499180 0.857150 -0.145852
O1    O     O_R   0.500020 0.316790 0.614690 -0.617270
O2    O     O_3   0.640753 0.669616 0.850793 -0.571809
O3    O     O_R   0.500000 0.316760 0.385350 -0.568894
O4    O     O_R   0.314800 0.500000 0.614670 -0.636274
O5    O     O_R   0.314790 0.499960 0.385330 -0.633117
O6    O     O_R   0.500000 0.683240 0.614650 -0.567235
O7    O     O_R   0.499980 0.683210 0.385310 -0.635539
O8    O     O_R   0.685210 0.500040 0.614670 -0.596022
O9    O     O_R   0.685200 0.500000 0.385330 -0.617455
O10   O     O_3   0.608198 0.127380 0.269122 -0.553371
Zn1   Zn    Zn3+2 0.500010 0.500020 0.653130 0.988630
Zn2   Zn    Zn3+2 0.499990 0.499980 0.346870 0.963435

loop_
_geom_bond_atom_site_label_1
_geom_bond_atom_site_label_2
_ccdc_geom_bond_type
O3    Zn2   S    
C17   H21   S    
C13   C28   S    
C15   C19   S    
C14   O9    A    
N2    Zn1   S    
C4    O4    A    
N1    Zn2   S    
C2    C28   A    
C9    C10   S    
C5    H27   S    
C17   C22   S    
C23   H12   S    
O5    Zn2   S    
C16   H8    S    
C3    C5    S    
O9    Zn2   S    
C26   O10   S    
C21   H19   S    
C6    C9    A    
C21   H20   S    
C2    C3    S    
C14   O8    A    
C24   C25   A    
C23   H14   S    
C15   H3    S    
C10   H5    S    
C13   O7    A    
O6    Zn1   S    
C8    O2    S    
C1    C25   S    
C3    H24   S    
C12   C23   S    
C26   C27   A    
C13   O6    A    
O1    Zn1   S    
C22   H10   S    
C4    O5    A    
C11   H7    S    
C17   C19   S    
C20   O10   S    
C9    N2    A    
C10   H4    S    
C17   H9    S    
C1    O1    A    
C2    C24   A    
C3    H25   S    
C21   H18   S    
O8    Zn1   S    
C7    H2    S    
C10   C11   S    
O7    Zn2   S    
C12   C16   S    
C7    C8    A    
C21   O2    S    
C12   C22   S    
C27   H23   S    
C16   Cl1   S    
C15   H1    S    
C18   C19   S    
C20   H16   S    
C7    N1    A    
C6    C11   S    
C18   H11   S    
C5    C24   S    
C8    N2    A    
C6    N1    A    
C18   H13   S    
C20   H15   S    
C25   C26   A    
C4    C19   S    
C11   H6    S    
C5    H26   S    
C15   C16   S    
C20   H17   S    
C18   C23   S    
O4    Zn1   S    
C12   C14   S    
C22   H22   S    
C27   C28   A    
C1    O3    A    
