data_mof_unit_2226.cif
_audit_creation_date              2012-12-10T17:22:07-0500
_audit_creation_method            fapswitch 2.2
_symmetry_space_group_name_H-M    P1
_symmetry_Int_Tables_number       1
_space_group_crystal_system       triclinic
_cell_length_a                    15.878126
_cell_length_b                    10.908414
_cell_length_c                    9.608718
_cell_angle_alpha                 88.276032
_cell_angle_beta                  89.483688
_cell_angle_gamma                 93.249744
_cell_volume                      1660.75549274

loop_
_atom_site_label
_atom_site_type_symbol
_atom_type_description
_atom_site_fract_x
_atom_site_fract_y
_atom_site_fract_z
_atom_type_partial_charge
C1    C     C_R   0.501131 0.261936 0.503099 0.823042
C2    C     C_3   0.946167 0.403237 0.602241 -0.465398
C3    C     C_3   0.917261 0.502378 0.496752 0.234419
C4    C     C_3   0.956087 0.628910 0.540843 -0.349996
C5    C     C_3   0.053676 0.628685 0.541056 -0.371211
C6    C     C_1   0.824966 0.501964 0.497554 -0.036389
C7    C     C_1   0.175060 0.500995 0.501052 -0.073876
C8    C     C_1   0.250623 0.500371 0.501477 -0.140684
C9    C     C_R   0.477477 0.100448 0.769034 -0.111132
C10   C     C_R   0.438204 0.032573 0.879019 -0.082393
C11   C     C_R   0.402058 0.916085 0.856998 -0.110582
C12   C     C_R   0.340321 0.499695 0.500578 0.841518
C13   C     C_R   0.412810 0.862636 0.729053 -0.148104
C14   C     C_R   0.457619 0.927352 0.619086 0.079302
C15   C     C_R   0.479040 0.053919 0.632799 0.085256
C16   C     C_R   0.499367 0.126722 0.509621 -0.133691
C17   C     C_R   0.506644 0.069229 0.382294 -0.251754
C18   C     C_R   0.498005 0.942949 0.373832 -0.029746
C19   C     C_R   0.479880 0.869605 0.495035 -0.159076
C20   C     C_R   0.618019 0.655205 0.137588 -0.073992
C21   C     C_R   0.677084 0.729753 0.062559 -0.142362
C22   C     C_R   0.676400 0.731625 0.919052 -0.190436
C23   C     C_R   0.492312 0.736493 0.498042 0.758250
C24   C     C_R   0.617175 0.658187 0.849729 -0.103059
C25   C     C_R   0.558086 0.576713 0.921931 0.140155
C26   C     C_R   0.558299 0.575985 0.071453 0.190262
C27   C     C_R   0.444322 0.428127 0.078100 -0.102632
C28   C     C_R   0.443728 0.428283 0.930756 0.420098
C29   C     C_R   0.659663 0.500556 0.499406 0.795341
C30   C     C_3   0.043707 0.402475 0.603383 -0.364413
C31   C     C_3   0.049701 0.474213 0.351674 -0.389274
C32   C     C_3   0.951765 0.472669 0.349955 0.248868
C33   C     C_1   0.749373 0.501356 0.498254 -0.143804
C34   C     C_3   0.082878 0.501544 0.499422 0.243405
Cu1   Cu    Cu3+1 0.499990 0.499990 0.640660 0.974755
Cu2   Cu    Cu3+1 0.500010 0.500010 0.359340 0.952347
H1    H     H_    0.919145 0.310927 0.574348 0.168140
H2    H     H_    0.066826 0.420101 0.710370 0.196113
H3    H     H_    0.922580 0.421633 0.708634 0.203185
H4    H     H_    0.935954 0.703366 0.469093 0.206990
H5    H     H_    0.519317 0.123213 0.286898 0.170120
H6    H     H_    0.508238 0.186558 0.796072 0.181760
H7    H     H_    0.434932 0.071341 0.981233 0.151946
H8    H     H_    0.368171 0.865313 0.940499 0.153943
H9    H     H_    0.383732 0.771672 0.716002 0.159345
H10   H     H_    0.398718 0.369471 0.136876 0.172714
H11   H     H_    0.063476 0.310062 0.575167 0.175627
H12   H     H_    0.618937 0.668228 0.246673 0.188199
H13   H     H_    0.721850 0.789568 0.116387 0.159982
H14   H     H_    0.721068 0.792298 0.860677 0.148184
H15   H     H_    0.620091 0.670684 0.739772 0.194209
H16   H     H_    0.077704 0.544404 0.275708 0.211615
H17   H     H_    0.070442 0.383535 0.318979 0.146945
H18   H     H_    0.926807 0.379185 0.322404 0.113034
H19   H     H_    0.077316 0.651146 0.646513 0.176941
H20   H     H_    0.080440 0.701389 0.466945 0.179146
H21   H     H_    0.932998 0.649588 0.646852 0.169516
N1    N     N_R   0.500800 0.501210 0.147910 -0.224368
N2    N     N_R   0.500820 0.501290 0.852040 -0.231123
O1    O     O_R   0.499990 0.319640 0.618810 -0.559908
O2    O     O_R   0.500000 0.319660 0.381240 -0.584812
O3    O     O_R   0.379430 0.499990 0.618840 -0.519763
O4    O     O_R   0.379440 0.500020 0.381260 -0.581578
O5    O     O_R   0.500000 0.680340 0.618760 -0.607134
O6    O     O_R   0.500010 0.680360 0.381190 -0.589054
O7    O     O_R   0.620560 0.499980 0.618740 -0.599375
O8    O     O_R   0.620570 0.500010 0.381160 -0.585078
C35   C     C_1   0.501735 0.894421 0.236223 0.251229
N3    N     N_1   0.503709 0.857322 0.124941 -0.305085
Cl1   Cl    Cl    0.365446 0.334038 0.853141 -0.641925
Cl2   Cl    Cl    0.916920 0.576225 0.216285 -0.662690

loop_
_geom_bond_atom_site_label_1
_geom_bond_atom_site_label_2
_ccdc_geom_bond_type
C4    H21   S    
C19   C23   S    
C24   C25   A    
Cu1   O5    S    
Cu1   O3    S    
Cu2   O4    S    
C12   O3    A    
C9    C10   A    
C10   H7    S    
C5    H20   S    
Cu1   Cu2   S    
C6    C33   T    
C22   H14   S    
C31   H16   S    
C8    C12   S    
C3    C6    S    
C5    C34   S    
C23   O6    A    
C24   H15   S    
C21   H13   S    
C17   C18   A    
C9    C15   A    
Cu2   O8    S    
C7    C8    T    
C1    C16   S    
C31   C32   S    
C13   C14   A    
C31   H17   S    
C13   H9    S    
C11   C13   A    
C2    H1    S    
C9    H6    S    
C20   H12   S    
C20   C26   A    
C4    C5    S    
C14   C19   A    
C27   H10   S    
C21   C22   A    
C23   O5    A    
C5    H19   S    
C2    C3    S    
C32   Cl2   S    
Cu2   N1    S    
Cu2   O6    S    
Cu2   O2    S    
C3    C32   S    
C7    C34   S    
C22   C24   A    
C28   N2    A    
C17   H5    S    
C16   C17   A    
C10   C11   A    
C30   C34   S    
C18   C35   S    
C15   C16   A    
C29   C33   S    
C30   H11   S    
C11   H8    S    
C2    C30   S    
C20   C21   A    
C30   H2    S    
C29   O7    A    
Cu1   N2    S    
C18   C19   A    
C1    O1    A    
C32   H18   S    
C27   C28   A    
C12   O4    A    
C14   C15   A    
Cu1   O1    S    
C25   N2    A    
Cu1   O7    S    
C25   C26   A    
C29   O8    A    
C2    H3    S    
C26   N1    A    
C31   C34   S    
C28   Cl1   S    
C3    C4    S    
C4    H4    S    
C35   N3    T    
C27   N1    A    
C1    O2    A    
