data_mof_unit_2684.cif
_audit_creation_date              2013-03-05T15:41:19-0500
_audit_creation_method            fapswitch 2.2
_symmetry_space_group_name_H-M    P1
_symmetry_Int_Tables_number       1
_space_group_crystal_system       triclinic
_cell_length_a                    14.652169
_cell_length_b                    16.31826
_cell_length_c                    6.918747
_cell_angle_alpha                 89.999908
_cell_angle_beta                  98.518175
_cell_angle_gamma                 89.999789
_cell_volume                      1636.00966061

loop_
_atom_site_label
_atom_site_type_symbol
_atom_site_description
_atom_site_fract_x
_atom_site_fract_y
_atom_site_fract_z
_atom_type_partial_charge
O1    O     O_R   0.584460 0.414130 0.534110 -0.560148
O2    O     O_R   0.584460 0.585870 0.534110 -0.560147
O3    O     O_R   0.595580 0.585780 0.208030 -0.564341
O4    O     O_R   0.595580 0.414220 0.208030 -0.564343
O5    O     O_R   0.415540 0.585790 0.977250 -0.560405
O6    O     O_R   0.415540 0.414210 0.977250 -0.560406
C1    C     C_R   0.614127 0.615721 0.382704 0.854560
C2    C     C_R   0.614126 0.384278 0.382704 0.854564
O7    O     O_3   0.440930 0.500000 0.319360 -0.284436
V1    V     V_3+5 0.510960 0.500000 0.068030 1.138539
O8    O     O_R   0.404420 0.414140 0.643900 -0.568738
O9    O     O_R   0.404420 0.585860 0.643900 -0.568738
C3    C     C_R   0.381554 0.386685 0.806845 0.840968
C4    C     C_R   0.381555 0.613317 0.806845 0.840959
V2    V     V_3+5 0.489040 0.500000 0.560660 1.125755
O10   O     O_3   0.559070 0.500000 0.859200 -0.267065
H1    H     H_    0.316791 0.692844 0.101578 0.099297
H2    H     H_    0.316807 0.307138 0.101573 0.099302
C5    C     C_2   0.306776 0.675208 0.796835 -0.238070
C6    C     C_2   0.306770 0.324800 0.796835 -0.238081
C7    C     C_2   0.278285 0.706971 0.958831 -0.086364
C8    C     C_2   0.278290 0.293025 0.958830 -0.086401
H3    H     H_    0.246928 0.814370 0.225463 0.039387
H4    H     H_    0.246932 0.185622 0.225451 0.039378
C9    C     C_2   0.192254 0.815702 0.100772 -0.215588
C10   C     C_2   0.192255 0.184295 0.100766 -0.215572
C11   C     C_2   0.195069 0.760913 0.952322 0.058932
C12   C     C_2   0.195070 0.239087 0.952322 0.058976
H5    H     H_    0.271920 0.692136 0.652955 0.072423
H6    H     H_    0.271904 0.307889 0.652955 0.072431
C13   C     C_2   0.803995 0.773478 0.331708 0.335548
C14   C     C_2   0.803990 0.226517 0.331702 0.335545
C15   C     C_2   0.834903 0.810937 0.504116 -0.311842
C16   C     C_2   0.834901 0.189062 0.504113 -0.311822
H7    H     H_    0.814776 0.786197 0.637223 0.122701
H8    H     H_    0.814776 0.213804 0.637220 0.122691
C17   C     C_2   0.743187 0.700607 0.323107 -0.128988
C18   C     C_2   0.743182 0.299388 0.323098 -0.128998
C19   C     C_2   0.666565 0.692998 0.408945 -0.102482
C20   C     C_2   0.666563 0.307001 0.408945 -0.102487
H9    H     H_    0.761634 0.650452 0.232873 0.094196
H10   H     H_    0.761628 0.349542 0.232856 0.094193
O11   O     O_R   0.925070 0.912130 0.373190 -0.519729
O12   O     O_R   0.925070 0.087870 0.373190 -0.519731
O13   O     O_R   0.914170 0.083600 0.699490 -0.536000
O14   O     O_R   0.914170 0.916400 0.699490 -0.536005
O15   O     O_R   0.094290 0.084740 0.929940 -0.575670
O16   O     O_R   0.094290 0.915260 0.929940 -0.575667
C21   C     C_R   0.895385 0.116081 0.526410 0.862644
C22   C     C_R   0.895386 0.883918 0.526411 0.862649
O17   O     O_3   0.068710 1.000000 0.587750 -0.309705
V3    V     V_3+5 0.998820 1.000000 0.839270 1.217531
O18   O     O_R   0.105520 0.913050 0.263180 -0.566426
O19   O     O_R   0.105520 0.086950 0.263180 -0.566429
C23   C     C_R   0.123749 0.883230 0.097994 0.872399
C24   C     C_R   0.123746 0.116771 0.097993 0.872406
V4    V     V_3+5 0.020980 0.000000 0.346670 1.208468
O20   O     O_3   0.950820 0.000000 0.048230 -0.220969
C25   C     C_3   0.113982 0.748459 0.788287 -0.156561
C26   C     C_3   0.078298 0.660271 0.782057 -0.402591
H11   H     H_    0.130627 0.616628 0.742895 0.126085
H12   H     H_    0.059333 0.642899 0.926237 0.154365
H13   H     H_    0.015871 0.655150 0.670029 0.128757
H14   H     H_    0.053606 0.786764 0.806099 0.142568
H15   H     H_    0.134978 0.764816 0.645430 0.104031
C27   C     C_3   0.113984 0.251555 0.788291 -0.156602
C28   C     C_3   0.078244 0.339720 0.782260 -0.402700
H16   H     H_    0.059064 0.356941 0.926338 0.154472
H17   H     H_    0.130621 0.383439 0.743669 0.126146
H18   H     H_    0.015941 0.344897 0.669930 0.128740
H19   H     H_    0.135001 0.235276 0.645411 0.104015
H20   H     H_    0.053629 0.213203 0.805968 0.142563
N1    N     N_R   0.836634 0.796252 0.153749 0.106606
O21   O     O_R   0.777028 0.811918 0.999503 -0.391332
O22   O     O_R   0.921845 0.781120 0.132959 -0.394723
N2    N     N_R   0.836625 0.203739 0.153744 0.106602
O23   O     O_R   0.777016 0.188050 0.999515 -0.391318
O24   O     O_R   0.921831 0.218882 0.132931 -0.394751
C29   C     C_3   0.626083 0.762031 0.518140 -0.210345
C30   C     C_3   0.525605 0.779610 0.432584 -0.422114
H21   H     H_    0.520061 0.793866 0.274231 0.139309
H22   H     H_    0.480745 0.726402 0.452850 0.137447
H23   H     H_    0.500234 0.833141 0.508299 0.129084
H24   H     H_    0.629654 0.744639 0.674348 0.156561
H25   H     H_    0.663430 0.820597 0.511617 0.130547
C31   C     C_3   0.626084 0.237970 0.518150 -0.210351
C32   C     C_3   0.525604 0.220393 0.432613 -0.422128
H26   H     H_    0.480749 0.273601 0.452887 0.137456
H27   H     H_    0.520054 0.206138 0.274263 0.139309
H28   H     H_    0.500234 0.166863 0.508331 0.129088
H29   H     H_    0.663428 0.179403 0.511622 0.130554
H30   H     H_    0.629661 0.255362 0.674356 0.156563

loop_
_geom_bond_atom_site_label_1
_geom_bond_atom_site_label_2
_geom_bond_distance
_ccdc_geom_bond_type
O12   C21   1.288991 A    
O16   C23   1.289476 A    
C32   H26   1.110311 S    
O1    C2    1.287814 A    
N1    O21   1.300338 A    
O2    C1    1.287815 A    
O4    C2    1.294533 A    
C6    H6    1.085095 S    
C25   H14   1.104883 S    
C26   H13   1.111030 S    
C5    C7    1.355631 D    
H4    C10   1.087077 S    
C18   H10   1.087504 S    
O3    C1    1.294534 A    
C31   H29   1.105494 S    
C29   H24   1.111115 S    
C13   N1    1.434303 S    
V2    O10   2.165959 S    
O14   V3    1.994837 S    
C26   H12   1.111210 S    
C20   C31   1.524578 S    
O8    V2    2.010855 S    
C27   H20   1.104849 S    
C13   C15   1.357048 D    
O17   V4    1.710453 S    
C14   C18   1.481783 S    
O7    V1    2.145967 S    
C27   C28   1.529492 S    
C7    C11   1.499087 S    
C25   C26   1.529538 S    
C8    C12   1.499092 S    
N1    O22   1.301420 A    
C30   H23   1.110574 S    
O18   C23   1.305649 A    
O19   C24   1.305656 A    
C28   H16   1.111138 S    
N2    O23   1.300355 A    
C30   H22   1.110346 S    
O18   V4    2.023167 S    
C31   C32   1.530329 S    
O13   V3    1.994827 S    
C15   C22   1.478842 S    
H1    C7    1.087103 S    
O17   V3    2.145900 S    
C26   H11   1.109082 S    
C28   H17   1.109010 S    
C14   C16   1.357046 D    
C12   C27   1.530192 S    
C14   N2    1.434299 S    
C27   H19   1.110320 S    
O9    V2    2.010849 S    
O13   C21   1.301172 A    
O12   V4    2.034922 S    
O2    V2    2.007000 S    
O5    C4    1.290667 A    
V3    O20   1.698830 S    
O1    V2    2.006995 S    
C6    C8    1.355635 D    
C32   H27   1.111134 S    
O4    V1    2.019677 S    
C5    H5    1.085111 S    
C29   H25   1.105505 S    
C16   C21   1.478837 S    
C3    C6    1.484184 S    
H2    C8    1.087097 S    
C4    C5    1.484200 S    
C9    C23   1.488779 S    
N2    O24   1.301425 A    
C30   H21   1.111168 S    
C10   C24   1.488768 S    
O6    V1    2.012191 S    
O11   C22   1.288992 A    
O15   V3    2.000626 S    
C9    C11   1.366929 D    
O14   C22   1.301174 A    
C10   C12   1.366930 D    
C28   H18   1.110995 S    
O7    V2    1.713324 S    
O5    V1    2.012182 S    
C17   C19   1.351321 D    
O3    V1    2.019685 S    
C11   C25   1.530193 S    
C25   H15   1.110353 S    
O6    C3    1.290661 A    
C18   C20   1.351321 D    
O8    C3    1.302245 A    
V4    O20   2.165982 S    
C15   H7    1.085601 S    
C16   H8    1.085601 S    
H3    C9    1.087077 S    
C17   H9    1.087503 S    
O11   V4    2.034930 S    
C31   H30   1.111099 S    
C29   C30   1.530346 S    
C13   C17   1.481789 S    
O9    C4    1.302247 A    
O16   V3    2.000619 S    
C32   H28   1.110566 S    
C1    C19   1.473822 S    
V1    O10   1.698883 S    
C2    C20   1.473820 S    
C19   C29   1.524577 S    
O15   C24   1.289467 A    
O19   V4    2.023171 S    
