data_mof_unit_3945.cif
_audit_creation_date              2012-12-10T17:59:43-0500
_audit_creation_method            fapswitch 2.2
_symmetry_space_group_name_H-M    P1
_symmetry_Int_Tables_number       1
_space_group_crystal_system       triclinic
_cell_length_a                    10.852089
_cell_length_b                    9.543228
_cell_length_c                    15.918495
_cell_angle_alpha                 90.190713
_cell_angle_beta                  91.089728
_cell_angle_gamma                 89.373904
_cell_volume                      1648.17776817

loop_
_atom_site_label
_atom_site_type_symbol
_atom_type_description
_atom_site_fract_x
_atom_site_fract_y
_atom_site_fract_z
_atom_type_partial_charge
C1    C     C_R   0.261837 0.501121 0.501456 0.787686
C2    C     C_3   0.634687 0.461506 0.952066 -0.417470
C3    C     C_3   0.642375 0.465062 0.050625 0.531772
C4    C     C_1   0.503462 0.500573 0.824191 0.140476
C5    C     C_1   0.504519 0.496872 0.175406 0.268303
C6    C     C_1   0.503050 0.498580 0.250859 0.012752
C7    C     C_R   0.063902 0.394296 0.545727 0.099677
C8    C     C_R   0.057861 0.615351 0.465252 0.146619
C9    C     C_R   0.935749 0.391719 0.541328 -0.181305
C10   C     C_R   0.930156 0.609920 0.464827 -0.183577
C11   C     C_R   0.870012 0.498820 0.501347 -0.077580
C12   C     C_R   0.126959 0.504032 0.504308 -0.073746
C13   C     C_R   0.435692 0.074774 0.439948 -0.004231
C14   C     C_R   0.435837 0.926213 0.439903 -0.016119
C15   C     C_R   0.500816 0.499700 0.340292 0.808488
C16   C     C_R   0.564580 0.925217 0.560014 -0.001118
C17   C     C_R   0.564671 0.073843 0.559969 0.018807
C18   C     C_R   0.737259 0.499308 0.500559 0.821721
C19   C     C_R   0.500985 0.500219 0.659629 0.803767
C20   C     C_3   0.459974 0.643492 0.047879 0.147569
C21   C     C_3   0.420527 0.374416 0.045723 0.135360
C22   C     C_3   0.404701 0.392651 0.948627 0.079844
C23   C     C_3   0.460335 0.645243 0.949704 0.100083
C24   C     C_1   0.502737 0.500728 0.748897 -0.115821
C25   C     C_3   0.504881 0.495298 0.083112 -0.267555
C26   C     C_3   0.502789 0.499235 0.916306 -0.159009
Cu1   Cu    Cu3+1 0.500020 0.640660 0.500000 0.964608
Cu2   Cu    Cu3+1 0.500020 0.359340 0.500000 0.987317
H1    H     H_    0.363795 0.660819 0.926574 0.176923
H2    H     H_    0.311916 0.439115 0.936145 0.188407
H3    H     H_    0.616648 0.869093 0.608028 0.141379
H4    H     H_    0.616884 0.129199 0.607909 0.140940
H5    H     H_    0.470953 0.275767 0.055281 0.204352
H6    H     H_    0.523751 0.721891 0.073314 0.211651
H7    H     H_    0.704175 0.531648 0.925334 0.250798
H8    H     H_    0.662339 0.357280 0.927833 0.253545
H9    H     H_    0.886752 0.308443 0.572164 0.154550
H10   H     H_    0.876357 0.692119 0.434110 0.161204
H11   H     H_    0.383736 0.130857 0.391862 0.145173
H12   H     H_    0.384597 0.870967 0.391560 0.144847
N1    N     N_R   0.500030 0.852070 0.500020 -0.169954
N2    N     N_R   0.500030 0.147930 0.500020 -0.169705
O1    O     O_R   0.319660 0.618740 0.500000 -0.586110
O2    O     O_R   0.319660 0.381260 0.500000 -0.581131
O3    O     O_R   0.500020 0.618840 0.379440 -0.575348
O4    O     O_R   0.500020 0.381160 0.379440 -0.560542
O5    O     O_R   0.680370 0.618830 0.500010 -0.584418
O6    O     O_R   0.680370 0.381170 0.500010 -0.579658
O7    O     O_R   0.500010 0.618730 0.620560 -0.591004
O8    O     O_R   0.500010 0.381270 0.620560 -0.563142
S1    S     S_3+6 0.314834 0.712461 0.084748 0.049438
O9    O     O_2   0.311031 0.705678 0.178710 -0.308838
O10   O     O_2   0.304268 0.863394 0.059417 -0.222896
O11   O     O_3   0.194467 0.627241 0.041736 -0.457326
H13   H     H_    0.120859 0.671497 0.066918 0.415903
S2    S     S_3+6 0.277931 0.332908 0.098672 0.078901
O12   O     O_2   0.248689 0.432231 0.168961 -0.241571
O13   O     O_2   0.170936 0.330822 0.037258 -0.167984
O14   O     O_3   0.294725 0.171869 0.140307 -0.507920
H14   H     H_    0.212504 0.148605 0.161998 0.394704
S3    S     S_3+6 0.399791 0.227918 0.891613 0.100925
O15   O     O_2   0.335703 0.251274 0.808226 -0.263383
O16   O     O_2   0.526828 0.170774 0.876109 -0.198483
O17   O     O_3   0.318843 0.109430 0.944451 -0.369026
H15   H     H_    0.373067 0.083119 0.992468 0.411658
S4    S     S_3+6 0.536201 0.795762 0.905301 0.093368
O18   O     O_2   0.549194 0.909288 0.970089 -0.175064
O19   O     O_2   0.661701 0.760529 0.872451 -0.263138
O20   O     O_3   0.447701 0.858569 0.825734 -0.441964
H16   H     H_    0.471293 0.803165 0.775753 0.339654
S5    S     S_3+6 0.755282 0.597094 0.084967 0.053017
O21   O     O_2   0.881090 0.555916 0.054864 -0.200516
O22   O     O_2   0.728673 0.740829 0.051023 -0.258124
O23   O     O_3   0.760389 0.605292 0.190544 -0.537238
H17   H     H_    0.832841 0.663740 0.204574 0.377462
S6    S     S_3+6 0.707561 0.296569 0.088900 0.056287
O24   O     O_2   0.845615 0.294281 0.082995 -0.158794
O25   O     O_2   0.675445 0.273165 0.179133 -0.287345
O26   O     O_3   0.656643 0.159688 0.031968 -0.505648
H18   H     H_    0.699035 0.076953 0.057020 0.423126
C27   C     C_3   0.126912 0.283418 0.600270 -0.334625
C28   C     C_3   0.137929 0.143837 0.553537 -0.755791
H19   H     H_    0.185976 0.157302 0.493256 0.254494
H20   H     H_    0.045006 0.100496 0.540127 0.235298
H21   H     H_    0.191029 0.067593 0.592845 0.254190
H22   H     H_    0.218417 0.317184 0.624367 0.230570
H23   H     H_    0.072226 0.266880 0.657729 0.217392
C29   C     C_3   0.112789 0.741371 0.422035 -0.474710
C30   C     C_3   0.164719 0.702172 0.336852 -0.630842
H24   H     H_    0.198524 0.798517 0.306463 0.255454
H25   H     H_    0.242037 0.625919 0.343284 0.251799
H26   H     H_    0.091525 0.656069 0.295937 0.268991
H27   H     H_    0.041187 0.823719 0.410375 0.201764
H28   H     H_    0.181624 0.794989 0.462621 0.226757

loop_
_geom_bond_atom_site_label_1
_geom_bond_atom_site_label_2
_ccdc_geom_bond_type
C2    H7    S    
S4    O19   D    
C11   C18   S    
S6    O26   S    
C18   O5    A    
C27   C28   S    
C16   H3    S    
Cu2   O4    S    
C23   H1    S    
C23   S4    S    
S6    O25   D    
C20   S1    S    
C5    C6    T    
C4    C24   T    
S4    O20   S    
C21   H5    S    
C20   C25   S    
C2    H8    S    
S2    O12   D    
C23   C26   S    
S3    O16   D    
C19   O7    A    
C17   N2    A    
C6    C15   S    
C29   H27   S    
Cu2   O8    S    
C1    O1    A    
C16   C17   A    
C30   H25   S    
C27   H22   S    
C20   H6    S    
Cu1   O3    S    
S4    O18   D    
O14   H14   S    
C21   C22   S    
S3    O15   D    
C1    C12   S    
C13   N2    A    
C7    C12   A    
C29   H28   S    
O23   H17   S    
S1    O9    D    
C3    C25   S    
S6    O24   D    
S5    O22   D    
Cu2   O2    S    
S1    O10   D    
S3    O17   S    
C3    S5    S    
S5    O23   S    
Cu1   N1    S    
C1    O2    A    
C20   C23   S    
C8    C12   A    
C9    H9    S    
C2    C26   S    
C30   H26   S    
C3    S6    S    
C9    C11   A    
C27   H23   S    
C14   N1    A    
C5    C25   S    
C7    C27   S    
C28   H20   S    
C15   O3    A    
Cu1   O5    S    
C7    C9    A    
C21   C25   S    
O11   H13   S    
Cu2   O6    S    
C22   H2    S    
C18   O6    A    
C21   S2    S    
C4    C26   S    
C28   H21   S    
S2    O14   S    
C10   H10   S    
S1    O11   S    
O17   H15   S    
C2    C3    S    
S5    O21   D    
C22   S3    S    
C19   O8    A    
Cu2   N2    S    
S2    O13   D    
C19   C24   S    
O20   H16   S    
C13   H11   S    
C10   C11   A    
C14   H12   S    
O26   H18   S    
Cu1   O1    S    
C29   C30   S    
C8    C10   A    
C28   H19   S    
C22   C26   S    
Cu1   Cu2   S    
C17   H4    S    
C15   O4    A    
C8    C29   S    
C30   H24   S    
C13   C14   A    
C16   N1    A    
Cu1   O7    S    
