data_mof_unit_1003.cif
_audit_creation_date              2013-03-05T15:49:33-0500
_audit_creation_method            fapswitch 2.2
_symmetry_space_group_name_H-M    P1
_symmetry_Int_Tables_number       1
_space_group_crystal_system       triclinic
_cell_length_a                    25.143638
_cell_length_b                    7.241164
_cell_length_c                    22.102351
_cell_angle_alpha                 89.995736
_cell_angle_beta                  109.739562
_cell_angle_gamma                 89.993096
_cell_volume                      3787.68813635

loop_
_atom_site_label
_atom_site_type_symbol
_atom_site_description
_atom_site_fract_x
_atom_site_fract_y
_atom_site_fract_z
_atom_type_partial_charge
O1    O     O_R   0.554350 0.505270 0.581390 -0.586260
O2    O     O_R   0.445650 0.005270 0.418610 -0.585464
O3    O     O_R   0.553380 0.177580 0.454800 -0.581496
O4    O     O_R   0.446620 0.677580 0.545200 -0.581843
C1    C     C_R   0.563598 0.344235 0.435727 1.010089
C2    C     C_R   0.436395 0.844242 0.564264 1.010079
O5    O     O_R   0.560970 0.175640 0.583140 -0.575360
O6    O     O_R   0.439030 0.675640 0.416860 -0.576091
O7    O     O_R   0.453290 0.004120 0.547860 -0.586685
O8    O     O_R   0.546710 0.504120 0.452140 -0.587140
C3    C     C_R   0.577077 0.344173 0.606715 0.954669
C4    C     C_R   0.422929 0.844205 0.393283 0.954368
O9    O     O_3   0.464660 0.338800 0.488280 -0.275432
O10   O     O_3   0.535340 0.838800 0.511720 -0.275721
V1    V     V_3+5 0.506560 0.064420 0.502170 1.231614
V2    V     V_3+5 0.493440 0.564420 0.497830 1.230967
C5    C     C_R   0.144260 0.966692 0.287387 -0.210576
C6    C     C_R   0.855690 0.467921 0.712613 -0.210614
H1    H     H_    0.224941 0.945205 0.398102 0.179873
H2    H     H_    0.775024 0.446383 0.601902 0.180148
H3    H     H_    0.131593 0.990826 0.329022 0.171012
H4    H     H_    0.868329 0.492514 0.670983 0.171062
C7    C     C_R   0.119235 0.943621 0.172003 -0.258489
C8    C     C_R   0.880769 0.443820 0.827983 -0.258582
C9    C     C_R   0.395477 0.828942 0.276012 -0.167242
C10   C     C_R   0.604560 0.328491 0.723984 -0.167382
C11   C     C_R   0.357148 0.831776 0.213737 -0.069291
C12   C     C_R   0.642894 0.331285 0.786256 -0.069250
C13   C     C_R   0.299698 0.856579 0.202304 -0.130816
C14   C     C_R   0.700331 0.356345 0.797685 -0.130861
C15   C     C_R   0.278458 0.878942 0.253424 0.077962
C16   C     C_R   0.721555 0.378974 0.746564 0.077886
C17   C     C_R   0.318153 0.875537 0.318283 -0.077383
C18   C     C_R   0.681859 0.375543 0.681705 -0.077034
C19   C     C_R   0.219022 0.905993 0.242004 0.106435
C20   C     C_R   0.780977 0.406301 0.757984 0.106482
C21   C     C_R   0.201014 0.933083 0.295455 0.046303
C22   C     C_R   0.798954 0.434002 0.704540 0.046319
C23   C     C_R   0.239489 0.927688 0.357463 -0.232847
C24   C     C_R   0.760477 0.428678 0.642532 -0.233057
C25   C     C_R   0.296601 0.897266 0.369401 0.328136
C26   C     C_R   0.703396 0.397549 0.630585 0.327856
C27   C     C_R   0.176483 0.908171 0.179830 -0.247734
C28   C     C_R   0.823533 0.408127 0.820149 -0.247746
C29   C     C_R   0.103577 0.976974 0.226430 0.347167
C30   C     C_R   0.896393 0.477835 0.773565 0.347233
C31   C     C_R   0.377536 0.851035 0.328956 -0.149541
C32   C     C_R   0.622483 0.350864 0.671037 -0.149475
H5    H     H_    0.186329 0.884485 0.136639 0.121932
H6    H     H_    0.813711 0.383933 0.863327 0.122010
H7    H     H_    0.439912 0.809464 0.283004 0.097520
H8    H     H_    0.560133 0.308855 0.716996 0.097554
H9    H     H_    0.272925 0.858581 0.152628 0.116459
H10   H     H_    0.727105 0.358396 0.847361 0.116475
H11   H     H_    0.372221 0.814904 0.173606 0.124777
H12   H     H_    0.627833 0.314222 0.826389 0.124791
C33   C     C_R   0.121335 0.767947 0.878116 0.444086
C34   C     C_R   0.878636 0.267953 0.121846 0.443954
C35   C     C_R   0.156351 0.771110 0.840342 -0.231311
C36   C     C_R   0.843613 0.271119 0.159611 -0.231291
H13   H     H_    0.161961 0.644695 0.817111 0.211366
H14   H     H_    0.838000 0.144689 0.182835 0.211380
C37   C     C_R   0.186040 0.930230 0.834523 -0.069039
C38   C     C_R   0.813916 0.430251 0.165425 -0.069031
C39   C     C_R   0.179698 0.090387 0.868059 0.379989
C40   C     C_R   0.820263 0.590422 0.131890 0.379981
C41   C     C_R   0.141488 0.091188 0.902039 -0.166879
C42   C     C_R   0.858486 0.591219 0.097925 -0.166720
H15   H     H_    0.137968 0.214354 0.927649 0.236160
H16   H     H_    0.862010 0.714396 0.072318 0.236144
C43   C     C_R   0.110216 0.933706 0.906229 -0.368584
C44   C     C_R   0.889766 0.433723 0.093746 -0.368579
N1    N     N_R   0.238131 0.072063 0.768223 -0.022523
N2    N     N_R   0.761725 0.572102 0.231621 -0.022509
N3    N     N_R   0.271320 0.059586 0.732359 -0.059522
N4    N     N_R   0.728531 0.559612 0.267479 -0.059516
C45   C     C_R   0.291929 0.893670 0.721696 0.097768
C46   C     C_R   0.708013 0.393652 0.278236 0.097760
N5    N     N_R   0.277785 0.740834 0.748512 -0.060126
N6    N     N_R   0.722250 0.240785 0.251521 -0.060116
N7    N     N_R   0.244759 0.753568 0.784514 -0.045437
N8    N     N_R   0.755279 0.253534 0.215522 -0.045460
C47   C     C_R   0.224381 0.919559 0.795564 0.226683
C48   C     C_R   0.775569 0.419566 0.204379 0.226670
C49   C     C_R   0.344628 0.706793 0.663762 -0.132548
C50   C     C_R   0.655497 0.206769 0.336377 -0.132642
H17   H     H_    0.329912 0.580296 0.678950 0.126005
H18   H     H_    0.670355 0.080283 0.321351 0.126127
C51   C     C_R   0.379285 0.694585 0.625735 -0.118359
C52   C     C_R   0.620853 0.194562 0.374421 -0.118619
H19   H     H_    0.390304 0.559111 0.612899 0.135095
H20   H     H_    0.609988 0.059096 0.387433 0.135463
C53   C     C_R   0.399395 0.855121 0.604718 -0.086109
C54   C     C_R   0.600569 0.355090 0.395239 -0.086122
C55   C     C_R   0.383956 0.027921 0.623044 -0.095752
C56   C     C_R   0.615811 0.527876 0.376686 -0.095403
H21   H     H_    0.398587 0.155053 0.608172 0.140453
H22   H     H_    0.601035 0.654999 0.391393 0.139874
C57   C     C_R   0.349075 0.040021 0.660586 -0.142723
C58   C     C_R   0.650683 0.539980 0.339136 -0.142409
H23   H     H_    0.338144 0.175609 0.673431 0.122302
H24   H     H_    0.661466 0.675559 0.326122 0.122125
C59   C     C_R   0.328941 0.879803 0.681546 0.123432
C60   C     C_R   0.671000 0.379773 0.318384 0.123405
O11   O     O_R   0.953220 0.285790 0.047790 -0.536221
O12   O     O_R   0.046780 0.785790 0.952210 -0.536121
O13   O     O_R   0.939020 0.617570 0.916840 -0.567768
O14   O     O_R   0.060980 0.117570 0.083160 -0.567843
C61   C     C_R   0.924068 0.448904 0.892870 0.970986
C62   C     C_R   0.075939 0.948866 0.107121 0.970902
O15   O     O_R   0.946600 0.615450 0.045180 -0.576701
O16   O     O_R   0.053400 0.115450 0.954820 -0.576754
O17   O     O_R   0.054370 0.786770 0.081410 -0.586023
O18   O     O_R   0.945630 0.286770 0.918590 -0.585983
C63   C     C_R   0.932539 0.445824 0.059727 0.982280
C64   C     C_R   0.067455 0.945818 0.940266 0.982399
O19   O     O_3   0.035300 0.454160 0.011680 -0.257597
O20   O     O_3   0.964700 0.954160 0.988320 -0.257553
V3    V     V_3+5 0.993450 0.728620 0.997830 1.304715
V4    V     V_3+5 0.006550 0.228620 0.002170 1.304608
N9    N     N_R   0.046777 0.025089 0.220812 0.240136
O21   O     O_R   0.024629 0.958155 0.261534 -0.336323
O22   O     O_R   0.022417 0.164889 0.185316 -0.380480
N10   N     N_R   0.953175 0.526172 0.779185 0.240138
O23   O     O_R   0.975276 0.459954 0.738313 -0.336411
O24   O     O_R   0.977550 0.665622 0.814854 -0.380587
Br1   Br    Br    0.225293 0.307180 0.874939 -0.534502
Br2   Br    Br    0.774664 0.807258 0.124990 -0.534477
N11   N     N_R   0.331054 0.883376 0.434937 0.199844
O25   O     O_R   0.338466 0.031493 0.470102 -0.418116
O26   O     O_R   0.334796 0.722661 0.462326 -0.417540
N12   N     N_R   0.669010 0.382453 0.565053 0.199985
O27   O     O_R   0.664632 0.220560 0.538358 -0.417036
O28   O     O_R   0.662272 0.529092 0.529265 -0.418770
N13   N     N_R   0.102329 0.591862 0.891994 0.253530
O29   O     O_R   0.082791 0.471853 0.846027 -0.335796
O30   O     O_R   0.119767 0.534168 0.951222 -0.412719
N14   N     N_R   0.897634 0.091857 0.107958 0.253524
O31   O     O_R   0.917139 0.971757 0.153914 -0.335684
O32   O     O_R   0.880206 0.034254 0.048724 -0.412709

loop_
_geom_bond_atom_site_label_1
_geom_bond_atom_site_label_2
_geom_bond_distance
_ccdc_geom_bond_type
C40   C42   1.405202 A    
C37   C39   1.414109 A    
C7    C29   1.407282 A    
O12   V3    1.974709 S    
C11   C13   1.391425 A    
N1    N3    1.334063 A    
O14   V4    2.017086 S    
C57   C59   1.405485 A    
O1    C3    1.335791 A    
C50   C60   1.408637 A    
C2    O7    1.325247 A    
C1    C54   1.494346 S    
C12   H12   1.082765 S    
N13   O29   1.300703 A    
C23   C25   1.387158 A    
O5    C3    1.335106 A    
C14   H10   1.076866 S    
C44   C63   1.508636 S    
N2    N4    1.334061 A    
C16   C20   1.442413 A    
O15   V3    1.996823 S    
C19   C21   1.414421 A    
C5    C29   1.391439 A    
N10   O24   1.300271 A    
H2    C24   1.085621 S    
C55   C57   1.398901 A    
C33   C35   1.403302 A    
C34   C36   1.403295 A    
C58   C60   1.405463 A    
C7    C27   1.414030 A    
C36   H14   1.081860 S    
O20   V3    1.769467 S    
C38   C48   1.495913 S    
O17   V3    2.006244 S    
O14   C62   1.333983 A    
C18   C26   1.417242 A    
C39   C41   1.405184 A    
C56   H22   1.082858 S    
C15   C17   1.444061 A    
O11   V4    1.974672 S    
C51   H19   1.082899 S    
C19   C27   1.428206 A    
C9    C31   1.398197 A    
C41   C43   1.405927 A    
C49   C59   1.408639 A    
C10   C32   1.398207 A    
C34   N14   1.430853 S    
C49   H17   1.082843 S    
O2    C4    1.335750 A    
C53   C55   1.409476 A    
C22   C24   1.385704 A    
C13   C15   1.412656 A    
O13   C61   1.333924 A    
C30   N10   1.434113 S    
C3    C32   1.493503 S    
C4    C31   1.493450 S    
C6    C30   1.391470 A    
O13   V3    2.017324 S    
N7    C47   1.360630 A    
C52   C54   1.407655 A    
C45   N5    1.358286 A    
C35   H13   1.081867 S    
C50   H18   1.082839 S    
C46   C60   1.490441 S    
N4    C46   1.360084 A    
N6    N8    1.333258 A    
C50   C52   1.402987 A    
O19   V4    1.769657 S    
N5    N7    1.333257 A    
C49   C51   1.402968 A    
C27   H5    1.077785 S    
C29   N9    1.434061 S    
C5    H3    1.084798 S    
O12   C64   1.332488 A    
C42   C44   1.405920 A    
C41   H15   1.075892 S    
C38   C40   1.414149 A    
O4    V2    1.996480 S    
C9    H7    1.084144 S    
C10   H8    1.084147 S    
C25   N11   1.418123 S    
C52   H20   1.082893 S    
O6    C4    1.335144 A    
C2    C53   1.494331 S    
C58   H24   1.082946 S    
O1    V2    2.007235 S    
C5    C21   1.398350 A    
C33   C43   1.422088 A    
C54   C56   1.409486 A    
O2    V1    2.007373 S    
N3    C45   1.360085 A    
C62   O17   1.336723 A    
N9    O21   1.301415 A    
H1    C23   1.085627 S    
C61   O18   1.336788 A    
N12   O28   1.300463 A    
C57   H23   1.082949 S    
N8    C48   1.360643 A    
C17   C31   1.441713 A    
C15   C19   1.442418 A    
C45   C59   1.490459 S    
O4    C2    1.331632 A    
C18   C32   1.441758 A    
C20   C22   1.414387 A    
C39   Br1   1.919502 S    
O16   C64   1.346810 A    
O3    V1    1.996533 S    
O16   V4    1.996771 S    
N11   O25   1.300573 A    
C28   H6    1.077799 S    
N13   O30   1.301016 A    
C7    C62   1.479355 S    
C6    H4    1.084806 S    
C10   C12   1.388410 A    
O11   C63   1.332467 A    
C8    C61   1.479436 S    
N2    C48   1.358416 A    
C24   C26   1.387249 A    
O3    C1    1.331603 A    
C26   N12   1.418257 S    
C55   H21   1.082860 S    
N14   O32   1.301020 A    
C9    C11   1.388409 A    
C11   H11   1.082758 S    
C35   C37   1.402293 A    
C36   C38   1.402303 A    
C8    C30   1.407400 A    
C12   C14   1.391419 A    
C6    C22   1.398337 A    
C17   C25   1.417206 A    
C1    O8    1.325249 A    
C21   C23   1.385684 A    
O8    V2    1.979411 S    
C14   C16   1.412648 A    
C34   C44   1.422075 A    
C13   H9    1.076857 S    
C8    C28   1.414074 A    
C56   C58   1.398886 A    
O5    V1    2.017335 S    
C40   Br2   1.919507 S    
C43   C64   1.508630 S    
N12   O27   1.300300 A    
C46   N6    1.358274 A    
C51   C53   1.407661 A    
N9    O22   1.300233 A    
C20   C28   1.428229 A    
N14   O31   1.300696 A    
O6    V2    2.017097 S    
O9    V2    1.770452 S    
C37   C47   1.495846 S    
C42   H16   1.075902 S    
O10   V1    1.770262 S    
C33   N13   1.430851 S    
O15   C63   1.346802 A    
N1    C47   1.358419 A    
O18   V4    2.006110 S    
O7    V1    1.979447 S    
C16   C18   1.444079 A    
N10   O23   1.301491 A    
N11   O26   1.300411 A    
