data_mof_unit_368.cif
_audit_creation_date              2012-12-11T15:27:40-0500
_audit_creation_method            fapswitch 2.2
_symmetry_space_group_name_H-M    P1
_symmetry_Int_Tables_number       1
_space_group_crystal_system       triclinic
_cell_length_a                    23.151859
_cell_length_b                    7.287247
_cell_length_c                    15.136094
_cell_angle_alpha                 90.0
_cell_angle_beta                  107.931903
_cell_angle_gamma                 90.00004
_cell_volume                      2429.61172202

loop_
_atom_site_label
_atom_site_type_symbol
_atom_type_description
_atom_site_fract_x
_atom_site_fract_y
_atom_site_fract_z
_atom_type_partial_charge
O1    O     O_R   0.711000 0.648610 0.341170 -0.537366
O2    O     O_R   0.289000 0.351390 0.658830 -0.537367
O3    O     O_R   0.789000 0.148610 0.158830 -0.537367
O4    O     O_R   0.211000 0.851390 0.841170 -0.537367
O5    O     O_R   0.829650 0.322030 0.336650 -0.537866
O6    O     O_R   0.170350 0.677970 0.663350 -0.537866
O7    O     O_R   0.670350 0.822030 0.163350 -0.537866
O8    O     O_R   0.329650 0.177970 0.836650 -0.537866
C1    C     C_R   0.854326 0.485826 0.356740 0.717529
C2    C     C_R   0.145674 0.514174 0.643260 0.717529
C3    C     C_R   0.645674 0.985826 0.143260 0.717528
C4    C     C_R   0.354326 0.014174 0.856740 0.717529
O9    O     O_R   0.713950 0.319280 0.352070 -0.538185
O10   O     O_R   0.286050 0.680720 0.647930 -0.538186
O11   O     O_R   0.786050 0.819280 0.147930 -0.538186
O12   O     O_R   0.213950 0.180720 0.852070 -0.538186
O13   O     O_R   0.672470 0.142870 0.174360 -0.532188
O14   O     O_R   0.327530 0.857130 0.825640 -0.532188
O15   O     O_R   0.827530 0.642870 0.325640 -0.532188
O16   O     O_R   0.172470 0.357130 0.674360 -0.532188
C5    C     C_R   0.701728 0.487229 0.376131 0.682138
C6    C     C_R   0.298272 0.512771 0.623869 0.682139
C7    C     C_R   0.798272 0.987229 0.123869 0.682138
C8    C     C_R   0.201728 0.012771 0.876131 0.682138
O17   O     O_3   0.736530 0.478650 0.191680 -0.377467
O18   O     O_3   0.263470 0.521350 0.808320 -0.377467
O19   O     O_3   0.763470 0.978650 0.308320 -0.377467
O20   O     O_3   0.236530 0.021350 0.691680 -0.377467
V1    V     V_3+5 0.752500 0.206170 0.260820 1.420408
V2    V     V_3+5 0.247500 0.793830 0.739180 1.420408
V3    V     V_3+5 0.747500 0.706170 0.239180 1.420408
V4    V     V_3+5 0.252500 0.293830 0.760820 1.420409
C9    C     C_R   0.827283 0.991644 0.050831 -0.025079
C10   C     C_R   0.172716 0.008356 0.949168 -0.025079
C11   C     C_R   0.672717 0.491644 0.449169 -0.025079
C12   C     C_R   0.327283 0.508356 0.550831 -0.025078
C13   C     C_R   0.825004 0.907690 0.895503 -0.159436
C14   C     C_R   0.174994 0.092312 0.104496 -0.159436
C15   C     C_R   0.674995 0.407694 0.604497 -0.159436
C16   C     C_R   0.325005 0.592307 0.395503 -0.159436
C17   C     C_R   0.794679 0.938695 0.960550 -0.165701
C18   C     C_R   0.205320 0.061304 0.039449 -0.165702
C19   C     C_R   0.705320 0.438698 0.539449 -0.165702
C20   C     C_R   0.294680 0.561302 0.460551 -0.165702
C21   C     C_R   0.889645 0.024397 0.074239 -0.233302
C22   C     C_R   0.110354 0.975607 0.925759 -0.233303
C23   C     C_R   0.610354 0.524393 0.425760 -0.233301
C24   C     C_R   0.389646 0.475608 0.574240 -0.233301
C25   C     C_R   0.920601 0.006707 0.007589 0.077038
C26   C     C_R   0.079397 0.993301 0.992407 0.077037
C27   C     C_R   0.579398 0.506703 0.492409 0.077040
C28   C     C_R   0.420602 0.493298 0.507591 0.077039
C29   C     C_R   0.888172 0.931241 0.920225 0.106707
C30   C     C_R   0.111826 0.068765 0.079772 0.106710
C31   C     C_R   0.611827 0.431241 0.579774 0.106708
C32   C     C_R   0.388173 0.568760 0.420226 0.106709
C33   C     C_R   0.984003 0.042286 0.028402 -0.021582
C34   C     C_R   0.015995 0.957725 0.971593 -0.021586
C35   C     C_R   0.515996 0.542281 0.471595 -0.021583
C36   C     C_R   0.484004 0.457721 0.528405 -0.021584
C37   C     C_R   0.982961 0.843609 0.895881 0.126589
C38   C     C_R   0.017037 0.156401 0.104115 0.126601
C39   C     C_R   0.517038 0.343609 0.604118 0.126594
C40   C     C_R   0.482961 0.656393 0.395882 0.126597
C41   C     C_R   0.919650 0.857922 0.863566 -0.198371
C42   C     C_R   0.080348 0.142085 0.136431 -0.198372
C43   C     C_R   0.580349 0.357924 0.636433 -0.198372
C44   C     C_R   0.419651 0.642077 0.363567 -0.198372
H1    H     H_    0.894534 0.788137 0.800131 0.128459
H2    H     H_    0.105464 0.211865 0.199867 0.128450
H3    H     H_    0.605465 0.288144 0.699870 0.128454
H4    H     H_    0.394534 0.711855 0.300130 0.128452
H5    H     H_    0.085819 0.950221 0.853586 0.104992
H6    H     H_    0.914181 0.049783 0.146412 0.104992
H7    H     H_    0.414181 0.450225 0.646413 0.104992
H8    H     H_    0.585819 0.549775 0.353587 0.104991
H9    H     H_    0.253531 0.089380 0.057784 0.103252
H10   H     H_    0.746469 0.910616 0.942217 0.103253
H11   H     H_    0.246469 0.589378 0.442216 0.103253
H12   H     H_    0.753531 0.410622 0.557783 0.103253
H13   H     H_    0.799711 0.853506 0.827978 0.112776
H14   H     H_    0.200288 0.146494 0.172021 0.112776
H15   H     H_    0.700289 0.353513 0.672022 0.112777
H16   H     H_    0.299711 0.646488 0.327978 0.112776
C45   C     C_1   0.416807 0.006907 0.918672 -0.194045
C46   C     C_1   0.583193 0.993093 0.081328 -0.194045
C47   C     C_1   0.083193 0.506907 0.581328 -0.194044
C48   C     C_1   0.916807 0.493093 0.418672 -0.194046
C49   C     C_1   0.469161 0.002368 0.969926 0.000559
C50   C     C_1   0.530839 0.997631 0.030074 0.000559
C51   C     C_1   0.030839 0.502368 0.530074 0.000560
C52   C     C_1   0.969161 0.497632 0.469926 0.000559
C53   C     C_3   0.012039 0.689893 0.855563 -0.369310
C54   C     C_3   0.980555 0.503915 0.853287 -0.737279
H17   H     H_    0.973559 0.474049 0.921140 0.237683
H18   H     H_    0.936058 0.501027 0.798006 0.217317
H19   H     H_    0.009154 0.393360 0.838063 0.218954
H20   H     H_    0.011012 0.726440 0.783821 0.176486
H21   H     H_    0.059728 0.666640 0.898465 0.196285
C55   C     C_3   0.987960 0.310114 0.144436 -0.369315
C56   C     C_3   0.019440 0.496096 0.146703 -0.737249
H22   H     H_    0.063949 0.498978 0.201962 0.217315
H23   H     H_    0.026414 0.525984 0.078836 0.237682
H24   H     H_    0.990849 0.606639 0.161958 0.218946
H25   H     H_    0.940269 0.333360 0.101540 0.196281
H26   H     H_    0.988992 0.273568 0.216181 0.176484
C57   C     C_3   0.487961 0.189896 0.644439 -0.369315
C58   C     C_3   0.519443 0.003916 0.646712 -0.737260
H27   H     H_    0.526425 0.974033 0.578850 0.237680
H28   H     H_    0.563948 0.001035 0.701978 0.217317
H29   H     H_    0.490849 0.893368 0.661957 0.218949
H30   H     H_    0.488991 0.226445 0.716183 0.176486
H31   H     H_    0.440271 0.166645 0.601541 0.196284
C59   C     C_3   0.512039 0.810103 0.355559 -0.369317
C60   C     C_3   0.480558 0.996085 0.353287 -0.737252
H32   H     H_    0.436051 0.998964 0.298026 0.217316
H33   H     H_    0.473582 0.025975 0.421152 0.237679
H34   H     H_    0.509150 0.106630 0.338034 0.218946
H35   H     H_    0.559729 0.833353 0.398455 0.196283
H36   H     H_    0.511007 0.773553 0.283815 0.176486

loop_
_geom_bond_atom_site_label_1
_geom_bond_atom_site_label_2
_ccdc_geom_bond_type
O17   V3    S    
C25   C29   A    
O1    C5    A    
C53   C54   S    
C47   C51   T    
O19   V1    S    
C9    C21   A    
C57   H30   S    
C16   H16   S    
O3    C7    A    
C10   C18   A    
C11   C23   A    
C59   C60   S    
C25   C33   A    
C33   C38   A    
O7    C3    A    
C55   H25   S    
C56   H22   S    
C4    C45   S    
C36   C39   A    
C40   C44   A    
O9    V1    S    
C23   H8    S    
C14   C18   A    
C1    C48   S    
O4    C8    A    
C37   C53   S    
C3    C46   S    
C60   H32   S    
O1    V3    S    
O13   V1    S    
C58   H27   S    
O2    V4    S    
O3    V1    S    
C57   H31   S    
C28   C36   A    
C1    O15   A    
C15   C31   A    
C48   C52   T    
C2    O16   A    
C16   C32   A    
O2    C6    A    
C57   C58   S    
C10   C22   A    
C11   C19   A    
C53   H21   S    
C16   C20   A    
C43   H3    S    
C59   H35   S    
C44   H4    S    
C13   C29   A    
C34   C37   A    
O11   C7    A    
O15   V3    S    
C35   C36   A    
O12   C8    A    
C14   H14   S    
C24   H7    S    
C13   H13   S    
O10   V2    S    
O5    V1    S    
C39   C43   A    
C2    C47   S    
O7    V3    S    
C38   C42   A    
O8    V4    S    
C40   C59   S    
C46   C50   T    
C17   H10   S    
C45   C49   T    
O18   V4    S    
C23   C27   A    
C54   H19   S    
C7    C9    S    
C19   H12   S    
C32   C44   A    
C8    C10   S    
C21   H6    S    
C26   C34   A    
O5    C1    A    
C31   C43   A    
C14   C30   A    
C21   C25   A    
O8    C4    A    
C60   H34   S    
C35   C40   A    
O9    C5    A    
C26   C30   A    
C54   H18   S    
O14   V2    S    
O6    V2    S    
C56   H24   S    
C38   C55   S    
C12   C20   A    
C27   C35   A    
C39   C57   S    
C51   C52   S    
C29   C41   A    
O16   V4    S    
C60   H33   S    
C3    O13   A    
C20   H11   S    
O6    C2    A    
C15   C19   A    
O11   V3    S    
C30   C42   A    
O12   V4    S    
C6    C12   S    
C22   C26   A    
C55   H26   S    
C58   H29   S    
C9    C17   A    
O10   C6    A    
O20   V2    S    
C5    C11   S    
C15   H15   S    
C33   C34   A    
C42   H2    S    
C41   H1    S    
C55   C56   S    
C58   H28   S    
C12   C24   A    
C27   C31   A    
C13   C17   A    
C54   H17   S    
O4    V2    S    
C37   C41   A    
C24   C28   A    
C18   H9    S    
C56   H23   S    
C4    O14   A    
C49   C50   S    
C53   H20   S    
C22   H5    S    
C59   H36   S    
C28   C32   A    
