data_mof_unit_3010.cif
_audit_creation_date              2013-03-05T15:53:36-0500
_audit_creation_method            fapswitch 2.2
_symmetry_space_group_name_H-M    P1
_symmetry_Int_Tables_number       1
_space_group_crystal_system       triclinic
_cell_length_a                    9.930228
_cell_length_b                    10.703023
_cell_length_c                    13.586861
_cell_angle_alpha                 93.351478
_cell_angle_beta                  82.972347
_cell_angle_gamma                 90.644297
_cell_volume                      1430.74625152

loop_
_atom_site_label
_atom_site_type_symbol
_atom_site_description
_atom_site_fract_x
_atom_site_fract_y
_atom_site_fract_z
_atom_type_partial_charge
O1    O     O_R   0.385310 0.683220 0.500000 -0.632403
O2    O     O_R   0.614640 0.683250 0.500010 -0.654134
C1    C     C_R   0.500846 0.739492 0.501486 0.909251
O3    O     O_R   0.368830 0.499960 0.640340 -0.629350
O4    O     O_R   0.598160 0.499980 0.640350 -0.635784
C2    C     C_R   0.475664 0.499860 0.685712 0.923526
Zn1   Zn    Zn3+2 0.346870 0.499980 0.499990 0.985033
Zn2   Zn    Zn3+2 0.653130 0.500020 0.500010 1.017007
O5    O     O_R   0.385360 0.316750 0.499990 -0.595915
O6    O     O_R   0.614690 0.316780 0.500000 -0.573763
O7    O     O_R   0.401840 0.500020 0.359650 -0.598068
O8    O     O_R   0.631170 0.500040 0.359660 -0.563712
C3    C     C_R   0.500843 0.260345 0.490627 0.959309
C4    C     C_R   0.524081 0.508527 0.315136 0.964884
C5    C     C_1   0.541344 0.525029 0.212419 -0.071911
C6    C     C_2   0.551976 0.546016 0.022087 -0.149376
C7    C     C_2   0.440885 0.510740 0.982589 -0.128380
C8    C     C_1   0.445382 0.506002 0.878165 0.036012
C9    C     C_1   0.551082 0.537386 0.125484 0.044612
C10   C     C_1   0.457284 0.502567 0.789962 -0.118141
H1    H     H_    0.349797 0.479972 0.027644 0.173486
H2    H     H_    0.643906 0.574895 0.977052 0.163633
C11   C     C_R   0.646936 0.848505 0.333594 -0.159599
H3    H     H_    0.654743 0.748486 0.335668 0.153336
C12   C     C_R   0.713816 0.900713 0.250313 -0.213240
H4    H     H_    0.770688 0.841781 0.192647 0.168306
C13   C     C_R   0.701333 0.027108 0.238349 -0.130678
H5    H     H_    0.745981 0.064179 0.169265 0.186579
C14   C     C_R   0.622599 0.103409 0.310215 0.373554
C15   C     C_R   0.565440 0.053845 0.401583 -0.022605
C16   C     C_R   0.573577 0.923867 0.411000 0.027034
C17   C     C_R   0.505928 0.871676 0.496873 -0.186996
C18   C     C_R   0.439968 0.945682 0.576750 0.306567
H6    H     H_    0.389035 0.132122 0.630374 0.187969
C19   C     C_R   0.436129 0.073027 0.568267 -0.254713
C20   C     C_R   0.498830 0.126812 0.483729 -0.145608
C21   C     C_R   0.840126 0.666206 0.631854 -0.087027
H7    H     H_    0.732995 0.674571 0.634228 0.216901
C22   C     C_R   0.899979 0.744666 0.699405 -0.195498
H8    H     H_    0.837937 0.807963 0.750645 0.173175
C23   C     C_R   0.038975 0.741825 0.701384 -0.142725
H9    H     H_    0.084592 0.802056 0.754899 0.213100
C24   C     C_R   0.119449 0.662016 0.634714 -0.088462
H10   H     H_    0.225759 0.666054 0.639190 0.227185
C25   C     C_R   0.062220 0.580558 0.565874 0.113674
C26   C     C_R   0.917866 0.581499 0.565183 0.040565
N1    N     N_R   0.857120 0.501200 0.500900 -0.176047
C27   C     C_R   0.938157 0.422092 0.437265 0.666161
H11   H     H_    0.142796 0.359012 0.385867 0.202049
C28   C     C_R   0.081205 0.422457 0.437155 -0.194760
N2    N     N_R   0.142720 0.501280 0.500940 -0.152964
N3    N     N_R   0.383817 0.894362 0.668842 0.189078
O9    O     O_R   0.288866 0.954319 0.726797 -0.412198
O10   O     O_R   0.442395 0.800841 0.703251 -0.456609
N4    N     N_R   0.585316 0.222807 0.281189 0.175793
O11   O     O_R   0.456964 0.245499 0.280525 -0.433240
O12   O     O_R   0.674006 0.285500 0.224804 -0.372226
F1    F     F_    0.881163 0.342057 0.373147 -0.621648

loop_
_geom_bond_atom_site_label_1
_geom_bond_atom_site_label_2
_geom_bond_distance
_ccdc_geom_bond_type
C7    C8    1.411987 S    
O4    Zn2   1.918119 S    
Zn1   O7    1.918119 S    
C11   H3    1.076436 S    
C27   F1    1.354818 S    
C14   C15   1.429152 A    
C13   C14   1.402117 A    
C2    C10   1.404457 S    
C23   H9    1.081047 S    
C23   C24   1.391604 A    
C19   C20   1.390181 A    
C15   C20   1.422037 A    
Zn2   O8    1.945682 S    
C17   C18   1.404092 A    
N4    O11   1.301389 A    
C27   C28   1.420283 A    
O2    C1    1.283741 A    
C12   H4    1.082880 S    
Zn2   N1    2.027075 S    
Zn1   N2    2.025918 S    
C21   C22   1.390304 A    
N4    O12   1.301738 A    
O1    Zn1   1.993803 S    
C25   C26   1.434802 A    
C18   N3    1.442549 S    
C5    C9    1.188299 T    
C24   C25   1.407653 A    
C15   C16   1.408584 A    
O3    Zn1   1.945682 S    
O4    C2    1.294653 A    
Zn2   O6    1.993801 S    
C18   C19   1.375877 A    
C21   H7    1.065001 S    
O8    C4    1.292696 A    
C28   N2    1.366891 A    
C8    C10   1.188175 T    
C11   C12   1.383961 A    
C24   H10   1.065080 S    
C6    C9    1.412185 S    
C1    C17   1.419876 S    
O7    C4    1.293020 A    
C7    H1    1.087531 S    
C12   C13   1.380680 A    
C25   N2    1.375680 A    
Zn1   O5    2.002227 S    
C22   H8    1.082826 S    
N3    O9    1.301435 A    
C22   C23   1.384516 A    
C3    C20   1.426870 S    
O3    C2    1.290595 A    
H6    C19   1.085585 S    
C13   H5    1.082961 S    
H11   C28   1.081899 S    
O5    C3    1.290977 A    
C4    C5    1.406376 S    
C6    H2    1.087376 S    
C14   N4    1.425125 S    
C21   C26   1.409633 A    
C26   N1    1.376537 A    
C16   C17   1.414413 A    
O2    Zn2   2.002229 S    
N1    C27   1.368018 A    
N3    O10   1.301226 A    
C6    C7    1.326396 D    
O1    C1    1.291571 A    
O6    C3    1.292297 A    
C11   C16   1.419123 A    
