data_mof_unit_1976.cif
_audit_creation_date              2012-12-10T19:10:35-0500
_audit_creation_method            fapswitch 2.2
_symmetry_space_group_name_H-M    P1
_symmetry_Int_Tables_number       1
_space_group_crystal_system       triclinic
_cell_length_a                    10.674849
_cell_length_b                    9.91907
_cell_length_c                    15.692293
_cell_angle_alpha                 89.389978
_cell_angle_beta                  89.978875
_cell_angle_gamma                 89.765769
_cell_volume                      1661.46362121

loop_
_atom_site_label
_atom_site_type_symbol
_atom_type_description
_atom_site_fract_x
_atom_site_fract_y
_atom_site_fract_z
_atom_type_partial_charge
C1    C     C_R   0.258883 0.500062 0.503164 0.825530
C2    C     C_3   0.930234 0.367304 0.537975 -0.341953
C3    C     C_3   0.080388 0.521716 0.408237 -0.379002
C4    C     C_3   0.123092 0.500168 0.501549 0.115349
C5    C     C_3   0.880446 0.499875 0.495853 -0.035864
C6    C     C_R   0.500520 0.500632 0.338819 0.896336
C7    C     C_3   0.934282 0.515275 0.401685 -0.164955
C8    C     C_3   0.370033 0.080565 0.505212 -0.523534
C9    C     C_3   0.370316 0.921004 0.491882 -0.518369
C10   C     C_3   0.554777 0.083646 0.416623 0.332005
C11   C     C_3   0.575803 0.922760 0.424858 0.225624
C12   C     C_3   0.620408 0.553598 0.950836 -0.370571
C13   C     C_3   0.563984 0.077773 0.575126 0.307819
C14   C     C_3   0.547472 0.918617 0.580700 0.361993
C15   C     C_R   0.742392 0.499786 0.497931 0.841617
C16   C     C_R   0.500172 0.499394 0.661238 0.907501
C17   C     C_3   0.379532 0.586817 0.047826 0.295525
C18   C     C_3   0.485412 0.347881 0.050097 0.249384
C19   C     C_3   0.474870 0.352704 0.951042 -0.413742
C20   C     C_3   0.386177 0.588867 0.948441 -0.487190
C21   C     C_1   0.498810 0.498219 0.750200 -0.147967
C22   C     C_3   0.492605 0.498364 0.082984 -0.018070
C23   C     C_3   0.616502 0.561874 0.048669 -0.289680
C24   C     C_3   0.494857 0.498194 0.917205 0.176507
C25   C     C_2   0.880329 0.640219 0.357068 0.602179
C26   C     C_2   0.901292 0.393493 0.347594 0.445053
C27   C     C_2   0.469305 0.118526 0.339177 0.443565
C28   C     C_2   0.543678 0.860280 0.339209 0.520878
C29   C     C_2   0.253122 0.534166 0.077340 0.389328
C30   C     C_2   0.378438 0.267436 0.088912 0.476728
C31   C     C_1   0.497115 0.497999 0.825626 -0.035385
C32   C     C_1   0.496828 0.501057 0.174742 0.068558
C33   C     C_1   0.499246 0.501830 0.250050 0.000384
C34   C     C_3   0.071357 0.615296 0.557382 -0.410467
C35   C     C_3   0.072636 0.364028 0.536270 -0.424112
C36   C     C_3   0.928506 0.617349 0.552280 -0.308257
Cl1   Cl    Cl    0.722264 0.130423 0.589119 -0.511990
Cl2   Cl    Cl    0.678824 0.830963 0.627505 -0.513541
Cl3   Cl    Cl    0.700312 0.166513 0.391242 -0.397048
Cl4   Cl    Cl    0.740064 0.884890 0.440698 -0.439008
Cl5   Cl    Cl    0.624495 0.254442 0.079465 -0.447607
Cl6   Cl    Cl    0.389521 0.758687 0.084596 -0.476571
H1    H     H_    0.296742 0.555226 0.919146 0.147168
H2    H     H_    0.308454 0.873648 0.540654 0.221720
H3    H     H_    0.518846 0.119811 0.633086 0.095426
H4    H     H_    0.475830 0.899423 0.631140 0.072423
H5    H     H_    0.544553 0.283461 0.921675 0.234818
H6    H     H_    0.401177 0.693330 0.923955 0.243678
H7    H     H_    0.625035 0.668867 0.068069 0.242946
H8    H     H_    0.700468 0.510793 0.076007 0.237249
H9    H     H_    0.638715 0.655617 0.923383 0.207251
H10   H     H_    0.698913 0.486540 0.931151 0.206334
H11   H     H_    0.107478 0.714918 0.535392 0.205746
H12   H     H_    0.381104 0.317824 0.929495 0.173654
H13   H     H_    0.103923 0.279532 0.495071 0.193614
H14   H     H_    0.101503 0.600358 0.624759 0.170601
H15   H     H_    0.108951 0.343874 0.601726 0.185967
H16   H     H_    0.888810 0.608935 0.617762 0.200198
H17   H     H_    0.897229 0.359710 0.605191 0.217256
H18   H     H_    0.780480 0.644645 0.344503 0.121138
H19   H     H_    0.943806 0.296310 0.361900 0.131097
H20   H     H_    0.372132 0.088241 0.337630 0.004530
H21   H     H_    0.446905 0.841418 0.322284 0.047931
H22   H     H_    0.196611 0.471935 0.035950 0.054183
H23   H     H_    0.898805 0.716354 0.525880 0.269037
H24   H     H_    0.334360 0.299005 0.147732 0.072198
H25   H     H_    0.895780 0.277240 0.504232 0.257856
H26   H     H_    0.119161 0.619232 0.385117 0.230285
H27   H     H_    0.125959 0.444412 0.367300 0.148552
H28   H     H_    0.303461 0.131584 0.461324 0.209880
H29   H     H_    0.325916 0.896464 0.430206 0.189771
H30   H     H_    0.329000 0.102997 0.568843 0.194043
N1    N     N_3   0.499750 0.138610 0.498180 -0.153564
N2    N     N_3   0.499750 0.861390 0.498180 -0.156587
O1    O     O_R   0.314910 0.616040 0.499980 -0.639188
O2    O     O_2   0.830569 0.402105 0.286445 -0.510983
O3    O     O_2   0.510722 0.169471 0.273759 -0.451014
O4    O     O_2   0.623736 0.838959 0.285209 -0.466255
O5    O     O_2   0.215256 0.555664 0.149442 -0.517315
O6    O     O_2   0.345947 0.160690 0.057875 -0.476870
O7    O     O_R   0.314910 0.383960 0.499980 -0.645378
O8    O     O_R   0.500120 0.616090 0.377110 -0.648656
O9    O     O_R   0.500120 0.383910 0.377110 -0.568175
O10   O     O_R   0.685320 0.616040 0.499960 -0.563001
O11   O     O_R   0.685320 0.383960 0.499960 -0.531196
O12   O     O_R   0.500110 0.615990 0.622830 -0.577473
O13   O     O_R   0.500110 0.384010 0.622830 -0.614457
O14   O     O_2   0.945360 0.734045 0.332642 -0.490146
Zn1   Zn    Zn3+2 0.500150 0.654960 0.499960 0.989613
Zn2   Zn    Zn3+2 0.500150 0.345040 0.499960 1.007115

loop_
_geom_bond_atom_site_label_1
_geom_bond_atom_site_label_2
_ccdc_geom_bond_type
C10   C27   S    
C2    C35   S    
C34   H14   S    
C16   C21   S    
C6    O8    A    
C17   C29   S    
C3    H26   S    
C12   H9    S    
C14   H4    S    
C21   C31   T    
C12   C23   S    
C7    C26   S    
C22   C32   S    
C14   N2    S    
N2    Zn1   S    
C3    H27   S    
C26   H19   S    
N1    Zn2   S    
C3    C7    S    
C29   H22   S    
C10   N1    S    
C19   H5    S    
C23   H7    S    
C1    O7    A    
C5    C36   S    
C17   C20   S    
C18   C19   S    
C17   Cl6   S    
C20   C24   S    
C8    C9    S    
C16   O13   A    
C26   O2    D    
C18   C30   S    
C25   H18   S    
C28   O4    D    
C13   Cl1   S    
C15   O11   A    
C30   O6    D    
C4    C35   S    
C18   C22   S    
C13   C14   S    
C16   O12   A    
C12   H10   S    
C4    C34   S    
C8    H30   S    
C35   H13   S    
C1    O1    A    
C2    H25   S    
C18   Cl5   S    
C5    C7    S    
C36   H23   S    
C23   H8    S    
O12   Zn1   S    
C25   O14   D    
C10   Cl3   S    
C27   H20   S    
C14   Cl2   S    
C29   O5    D    
C30   H24   S    
O8    Zn1   S    
C20   H6    S    
O7    Zn2   S    
C19   H12   S    
C13   N1    S    
C2    C5    S    
C9    N2    S    
C3    C4    S    
C20   H1    S    
O9    Zn2   S    
C9    H2    S    
C6    O9    A    
C2    H17   S    
C8    H28   S    
C9    H29   S    
C27   O3    D    
C11   N2    S    
O11   Zn2   S    
C15   O10   A    
C12   C24   S    
C36   H16   S    
C17   C22   S    
C7    C25   S    
C6    C33   S    
C35   H15   S    
C1    C4    S    
C32   C33   T    
C19   C24   S    
C24   C31   S    
C13   H3    S    
C11   C28   S    
C8    N1    S    
C34   C36   S    
C11   Cl4   S    
C5    C15   S    
C10   C11   S    
O1    Zn1   S    
C28   H21   S    
C34   H11   S    
O10   Zn1   S    
O13   Zn2   S    
C22   C23   S    
