data_mof_unit_3322.cif
_audit_creation_date              2012-12-10T17:32:16-0500
_audit_creation_method            fapswitch 2.2
_symmetry_space_group_name_H-M    P1
_symmetry_Int_Tables_number       1
_space_group_crystal_system       triclinic
_cell_length_a                    12.387229
_cell_length_b                    13.140891
_cell_length_c                    15.063107
_cell_angle_alpha                 75.778412
_cell_angle_beta                  101.965662
_cell_angle_gamma                 116.354075
_cell_volume                      2116.11449419

loop_
_atom_site_label
_atom_site_type_symbol
_atom_type_description
_atom_site_fract_x
_atom_site_fract_y
_atom_site_fract_z
_atom_type_partial_charge
C1    C     C_R   0.855218 0.285445 0.508666 0.794799
C2    C     C_R   0.123692 0.552558 0.105159 -0.147185
C3    C     C_R   0.791153 0.421690 0.026643 -0.189844
C4    C     C_R   0.792076 0.421223 0.934799 -0.190258
C5    C     C_R   0.902180 0.465204 0.898055 0.135147
C6    C     C_R   0.013662 0.509855 0.953974 0.001306
C7    C     C_R   0.124742 0.555221 0.916192 -0.053325
C8    C     C_R   0.234579 0.585408 0.976322 0.453994
C9    C     C_R   0.235019 0.587075 0.069707 -0.115948
C10   C     C_R   0.901587 0.463099 0.806273 -0.229414
C11   C     C_R   0.009994 0.510314 0.767264 -0.120875
C12   C     C_R   0.003371 0.504058 0.670677 0.773821
C13   C     C_R   0.122173 0.563609 0.819984 -0.028263
C14   C     C_R   0.277596 0.037538 0.395987 -0.342409
C15   C     C_R   0.226417 0.839401 0.473193 -0.130201
C16   C     C_R   0.816785 0.075975 0.564620 0.449538
C17   C     C_R   0.732221 0.962088 0.589260 -0.249116
C18   C     C_R   0.609415 0.930072 0.562507 -0.228519
C19   C     C_R   0.565046 0.009386 0.505990 0.103046
C20   C     C_R   0.650022 0.123550 0.476564 0.014730
C21   C     C_R   0.438920 0.979358 0.477851 0.097766
C22   C     C_R   0.400905 0.062474 0.419788 0.116955
C23   C     C_R   0.144645 0.714740 0.487442 0.839899
C24   C     C_R   0.486444 0.169618 0.383721 -0.209967
C25   C     C_R   0.608920 0.197963 0.408886 -0.176071
C26   C     C_R   0.349430 0.868859 0.504277 -0.326084
C27   C     C_R   0.187266 0.926126 0.423675 0.467853
C28   C     C_R   0.774044 0.160051 0.514332 -0.188625
C29   C     C_R   0.364269 0.348262 0.664843 -0.110459
C30   C     C_R   0.744859 0.634551 0.365339 0.206899
C31   C     C_R   0.645801 0.663429 0.339613 -0.343902
C32   C     C_R   0.551841 0.616332 0.393017 -0.208259
C33   C     C_R   0.551485 0.534549 0.472415 0.016180
C34   C     C_R   0.001261 0.502606 0.328766 0.847371
C35   C     C_R   0.656201 0.508037 0.498959 0.264602
C36   C     C_R   0.449756 0.477299 0.525382 -0.052676
C37   C     C_R   0.457718 0.399067 0.607144 0.117845
C38   C     C_R   0.557405 0.369869 0.628595 -0.232672
C39   C     C_R   0.653084 0.422390 0.575866 -0.195334
C40   C     C_R   0.339759 0.493529 0.499785 -0.015428
C41   C     C_R   0.258157 0.368216 0.635911 0.097272
C42   C     C_R   0.118231 0.560108 0.196300 0.389627
C43   C     C_R   0.005682 0.509418 0.231647 -0.138019
C44   C     C_R   0.897878 0.464294 0.175110 -0.330528
C45   C     C_R   0.900378 0.465389 0.083120 0.146297
C46   C     C_R   0.012987 0.509031 0.047544 0.004844
Cu1   Cu    Cu3+1 0.098270 0.475420 0.521130 0.952332
Cu2   Cu    Cu3+1 0.901730 0.524580 0.478870 0.972102
H1    H     H_    0.458650 0.231589 0.334647 0.139347
H2    H     H_    0.254382 0.106266 0.354414 0.119724
H3    H     H_    0.373054 0.801658 0.547078 0.175380
H4    H     H_    0.552505 0.841510 0.587072 0.156914
H5    H     H_    0.760409 0.897322 0.632660 0.145827
H6    H     H_    0.670528 0.278347 0.372906 0.163625
H7    H     H_    0.561988 0.302997 0.685709 0.189140
H8    H     H_    0.811821 0.427422 0.203214 0.151581
H9    H     H_    0.326266 0.550107 0.437869 0.167275
H10   H     H_    0.479305 0.643659 0.368655 0.166743
H11   H     H_    0.639962 0.721969 0.275836 0.173350
H12   H     H_    0.721952 0.390992 0.597156 0.203584
H13   H     H_    0.704810 0.387684 0.053611 0.147283
H14   H     H_    0.706498 0.386706 0.892290 0.193982
H15   H     H_    0.815983 0.424686 0.764633 0.149891
N1    N     N_R   0.246280 0.438190 0.553160 -0.219435
N2    N     N_R   0.754320 0.561190 0.447410 -0.217242
O1    O     O_R   0.972510 0.318130 0.526570 -0.554955
O2    O     O_R   0.806530 0.359650 0.490890 -0.617721
O3    O     O_R   0.082980 0.479210 0.647590 -0.609670
O4    O     O_R   0.917000 0.520730 0.611900 -0.595639
O5    O     O_R   0.193470 0.640350 0.509110 -0.610594
O6    O     O_R   0.027490 0.681870 0.473430 -0.482566
O7    O     O_R   0.083000 0.479270 0.388100 -0.554585
O8    O     O_R   0.917020 0.520790 0.352410 -0.587074
O9    O     O_3   0.221686 0.619053 0.251072 -0.617661
C47   C     C_3   0.236123 0.734248 0.239593 0.066202
H16   H     H_    0.163132 0.737891 0.269446 0.168420
H17   H     H_    0.235139 0.775351 0.165418 0.164405
C48   C     C_3   0.357495 0.803811 0.289594 -0.785310
H18   H     H_    0.432616 0.806546 0.258304 0.256808
H19   H     H_    0.367642 0.893356 0.284233 0.216513
H20   H     H_    0.362881 0.763867 0.363455 0.244655
O10   O     O_3   0.939590 0.109360 0.595876 -0.598599
C49   C     C_3   0.981887 0.027949 0.588963 0.062254
H21   H     H_    0.939665 0.989846 0.525480 0.155667
H22   H     H_    0.963277 0.958199 0.650466 0.161231
C50   C     C_3   0.118279 0.086658 0.585925 -0.788862
H23   H     H_    0.163967 0.113786 0.652828 0.219744
H24   H     H_    0.150593 0.025492 0.573426 0.224454
H25   H     H_    0.142249 0.163340 0.530026 0.243950
C51   C     C_2   0.161826 0.316142 0.698186 0.371416
H26   H     H_    0.068041 0.274952 0.672462 0.178880
O11   O     O_2   0.186536 0.322128 0.780069 -0.601730
C52   C     C_2   0.376148 0.274733 0.755976 0.392007
H27   H     H_    0.300378 0.194687 0.777664 0.097339
O12   O     O_2   0.468405 0.306216 0.809553 -0.579082
C53   C     C_2   0.826441 0.676667 0.292987 0.413850
H28   H     H_    0.787310 0.666125 0.222547 0.029012
O13   O     O_2   0.935433 0.730120 0.308018 -0.501706
C54   C     C_2   0.232118 0.639305 0.772124 0.434624
H29   H     H_    0.261204 0.608548 0.725050 0.093303
O14   O     O_2   0.290680 0.738785 0.784451 -0.505236
O15   O     O_3   0.342173 0.607726 0.945483 -0.514585
C55   C     C_3   0.352413 0.502361 0.956016 0.037011
H30   H     H_    0.272167 0.439067 0.919898 0.181347
H31   H     H_    0.362000 0.464096 0.030271 0.123952
C56   C     C_3   0.464601 0.524488 0.914756 -0.658628
H32   H     H_    0.546432 0.588452 0.948595 0.246840
H33   H     H_    0.475744 0.442884 0.925501 0.227672
H34   H     H_    0.455308 0.557983 0.839618 0.246131
C57   C     C_2   0.352369 0.615460 0.130014 0.444808
H35   H     H_    0.356880 0.565782 0.198706 0.088799
O16   O     O_2   0.445433 0.694044 0.103069 -0.514266
O17   O     O_3   0.062400 0.896616 0.403979 -0.533280
C58   C     C_3   0.031284 0.988585 0.355529 0.093077
H36   H     H_    0.064992 0.021021 0.286577 0.147093
H37   H     H_    0.068357 0.059548 0.395978 0.130324
C59   C     C_3   0.893892 0.947216 0.339969 -0.749970
H38   H     H_    0.870063 0.022418 0.323659 0.192553
H39   H     H_    0.856019 0.900577 0.280839 0.239723
H40   H     H_    0.851912 0.889033 0.402262 0.249837

loop_
_geom_bond_atom_site_label_1
_geom_bond_atom_site_label_2
_ccdc_geom_bond_type
C16   C28   A    
C12   O4    A    
C52   H27   S    
C34   O7    A    
C19   C20   A    
C32   H10   S    
Cu2   O4    S    
C21   C26   A    
C10   H15   S    
C58   H36   S    
C18   H4    S    
C7    C8    A    
C14   H2    S    
C45   C46   A    
C2    C46   A    
C12   O3    A    
C36   C37   A    
C19   C21   A    
C59   H39   S    
C38   C39   A    
C50   H24   S    
C56   H32   S    
C35   N2    A    
C4    H14   S    
C24   H1    S    
C33   C36   A    
C18   C19   A    
C31   H11   S    
C57   H35   S    
C30   C53   S    
C33   C35   A    
C15   C27   A    
C38   H7    S    
Cu1   Cu2   S    
C8    C9    A    
C53   O13   D    
C1    C28   S    
Cu2   N2    S    
Cu1   O1    S    
C15   C23   S    
C41   C51   S    
C52   O12   D    
C21   C22   A    
C23   O5    A    
C17   C18   A    
C3    H13   S    
C42   O9    S    
O9    C47   S    
C30   N2    A    
C23   O6    A    
C36   C40   A    
C25   H6    S    
C59   H40   S    
Cu1   N1    S    
C48   H18   S    
C16   C17   A    
C15   C26   A    
C20   C28   A    
C3    C45   A    
C13   C54   S    
C35   C39   A    
C47   H16   S    
Cu1   O5    S    
C37   C38   A    
C44   H8    S    
C51   O11   D    
C49   H21   S    
C30   C31   A    
C53   H28   S    
C16   O10   S    
C1    O1    A    
C55   H31   S    
C24   C25   A    
C47   H17   S    
C27   O17   S    
C49   H22   S    
C43   C44   A    
C14   C27   A    
C22   C24   A    
C42   C43   A    
Cu2   O6    S    
C3    C4    A    
C17   H5    S    
Cu1   O3    S    
C44   C45   A    
O17   C58   S    
C9    C57   S    
C40   H9    S    
C6    C46   A    
C29   C41   A    
C50   H23   S    
Cu2   O8    S    
C31   C32   A    
C34   C43   S    
C4    C5    A    
C50   H25   S    
C58   H37   S    
C11   C12   S    
C6    C7    A    
C40   N1    A    
C54   H29   S    
C32   C33   A    
C14   C22   A    
C5    C10   A    
C26   H3    S    
C29   C52   S    
C11   C13   A    
C48   H20   S    
C51   H26   S    
C5    C6    A    
C56   H33   S    
C2    C42   A    
C39   H12   S    
C1    O2    A    
C55   C56   S    
C48   H19   S    
Cu2   O2    S    
O15   C55   S    
C47   C48   S    
C57   O16   D    
Cu1   O7    S    
C58   C59   S    
C10   C11   A    
C34   O8    A    
C7    C13   A    
C49   C50   S    
O10   C49   S    
C20   C25   A    
C29   C37   A    
C55   H30   S    
C41   N1    A    
C59   H38   S    
C2    C9    A    
C8    O15   S    
C54   O14   D    
C56   H34   S    
