data_mof_unit_177.cif
_audit_creation_date              2012-12-11T15:15:44-0500
_audit_creation_method            fapswitch 2.2
_symmetry_space_group_name_H-M    P1
_symmetry_Int_Tables_number       1
_space_group_crystal_system       triclinic
_cell_length_a                    14.072405
_cell_length_b                    14.072761
_cell_length_c                    28.045501
_cell_angle_alpha                 89.897374
_cell_angle_beta                  89.901365
_cell_angle_gamma                 119.846336
_cell_volume                      4817.36102382

loop_
_atom_site_label
_atom_site_type_symbol
_atom_type_description
_atom_site_fract_x
_atom_site_fract_y
_atom_site_fract_z
_atom_type_partial_charge
C1    C     C_R   0.566162 0.453184 0.566710 0.542598
C2    C     C_R   0.572062 0.172340 0.572997 0.561245
C3    C     C_R   0.886919 0.433717 0.566692 0.542095
C4    C     C_R   0.453190 0.566158 0.066708 0.542603
C5    C     C_R   0.172337 0.572057 0.072998 0.561237
C6    C     C_R   0.433725 0.886927 0.066687 0.542106
C7    C     C_3   0.981066 0.505318 0.704232 0.061342
C8    C     C_3   0.498614 0.480332 0.704514 0.054530
C9    C     C_3   0.555898 0.093429 0.714153 0.057697
C10   C     C_3   0.505381 0.981217 0.204205 0.061397
C11   C     C_3   0.480367 0.498514 0.204498 0.054480
C12   C     C_3   0.093437 0.555885 0.214157 0.057675
C13   C     C_3   0.937970 0.411991 0.770364 -0.119965
C14   C     C_3   0.590334 0.519112 0.770817 -0.102947
C15   C     C_3   0.487551 0.106780 0.781826 -0.110218
C16   C     C_3   0.411976 0.938299 0.270311 -0.120129
C17   C     C_3   0.519112 0.590258 0.270792 -0.102979
C18   C     C_3   0.106705 0.487431 0.281819 -0.110231
C19   C     C_3   0.889777 0.472743 0.741842 -0.142876
C20   C     C_3   0.522057 0.413035 0.741237 -0.145021
C21   C     C_3   0.602241 0.170218 0.757678 -0.151473
C22   C     C_3   0.472610 0.889925 0.241830 -0.142875
C23   C     C_3   0.413047 0.521957 0.241206 -0.145049
C24   C     C_3   0.170246 0.602125 0.257682 -0.151490
C25   C     C_1   0.036866 0.524756 0.847642 -0.065440
C26   C     C_1   0.479310 0.513879 0.848122 -0.074876
C27   C     C_1   0.495786 0.985271 0.851898 -0.059378
C28   C     C_1   0.524765 0.037028 0.347611 -0.065352
C29   C     C_1   0.513886 0.479288 0.348115 -0.074910
C30   C     C_1   0.985290 0.495787 0.351903 -0.059330
C31   C     C_1   0.960284 0.488346 0.653451 -0.007551
C32   C     C_1   0.513397 0.474869 0.653593 -0.011624
C33   C     C_1   0.564324 0.123794 0.663958 -0.013069
C34   C     C_1   0.488410 0.960385 0.153428 -0.007490
C35   C     C_1   0.474906 0.513322 0.153577 -0.011605
C36   C     C_1   0.123794 0.564310 0.163960 -0.013100
C37   C     C_R   0.566777 0.453890 0.434438 0.550625
C38   C     C_R   0.546622 0.113121 0.434299 0.560570
C39   C     C_R   0.887248 0.433389 0.434526 0.552911
C40   C     C_R   0.453890 0.566779 0.934438 0.550640
C41   C     C_R   0.113108 0.546621 0.934304 0.560604
C42   C     C_R   0.433388 0.887248 0.934525 0.552915
C43   C     C_3   0.056207 0.613034 0.730321 -0.144153
C44   C     C_3   0.393118 0.456732 0.730825 -0.149872
C45   C     C_3   0.589076 0.013027 0.735665 -0.138726
C46   C     C_3   0.613110 0.056236 0.230310 -0.144137
C47   C     C_3   0.456770 0.393035 0.230825 -0.149824
C48   C     C_3   0.013132 0.589174 0.235683 -0.138752
C49   C     C_3   0.965814 0.579727 0.768919 0.011415
C50   C     C_3   0.417253 0.390733 0.768517 0.008695
C51   C     C_3   0.633369 0.088382 0.779957 0.015690
C52   C     C_3   0.579612 0.965839 0.268922 0.011410
C53   C     C_3   0.390748 0.417171 0.268502 0.008679
C54   C     C_3   0.088506 0.633362 0.279975 0.015692
C55   C     C_1   0.064919 0.531694 0.888403 -0.020795
C56   C     C_1   0.470671 0.534257 0.888769 -0.024119
C57   C     C_1   0.470682 0.945081 0.890762 -0.012518
C58   C     C_1   0.531707 0.065013 0.388382 -0.020801
C59   C     C_1   0.534260 0.470664 0.388765 -0.024173
C60   C     C_1   0.945091 0.470687 0.390766 -0.012498
C61   C     C_1   0.933793 0.466636 0.612654 0.006318
C62   C     C_1   0.533417 0.467991 0.612692 0.004670
C63   C     C_1   0.567217 0.145727 0.622393 0.004568
C64   C     C_1   0.466678 0.933846 0.112638 0.006331
C65   C     C_1   0.468018 0.533379 0.112681 0.004668
C66   C     C_1   0.145723 0.567206 0.122394 0.004552
C67   C     C_3   0.105233 0.552829 0.758965 -0.100279
C68   C     C_3   0.460451 0.562604 0.760463 -0.109409
C69   C     C_3   0.474909 0.949229 0.759838 -0.111322
C70   C     C_3   0.553022 0.105441 0.258916 -0.100134
C71   C     C_3   0.562633 0.460393 0.260469 -0.109311
C72   C     C_3   0.949231 0.475001 0.259843 -0.111285
C73   C     C_3   0.013767 0.519427 0.796868 0.000918
C74   C     C_3   0.484862 0.495888 0.797488 0.001458
C75   C     C_3   0.519989 0.026060 0.803275 0.000183
C76   C     C_3   0.519433 0.013969 0.296833 0.000934
C77   C     C_3   0.495894 0.484807 0.297479 0.001471
C78   C     C_3   0.026082 0.519979 0.303281 0.000196
C79   C     C_3   0.028486 0.446290 0.732560 0.320949
C80   C     C_3   0.564980 0.583917 0.733784 0.325616
C81   C     C_3   0.443991 0.030775 0.738354 0.324327
C82   C     C_3   0.446469 0.028816 0.232491 0.320891
C83   C     C_3   0.583941 0.564903 0.233775 0.325606
C84   C     C_3   0.030682 0.443974 0.238346 0.324356
Cr1   Cr    Cr6+3 0.504830 0.254570 0.500510 1.024787
Cr2   Cr    Cr6+3 0.745430 0.250260 0.500510 1.036014
Cr3   Cr    Cr6+3 0.749740 0.495170 0.500510 1.031348
Cr4   Cr    Cr6+3 0.254570 0.504830 0.000510 1.024804
Cr5   Cr    Cr6+3 0.250260 0.745430 0.000510 1.035986
Cr6   Cr    Cr6+3 0.495170 0.749740 0.000510 1.031353
H1    H     H_    0.102360 0.692990 0.711847 0.098552
H2    H     H_    0.313942 0.431855 0.712976 0.126667
H3    H     H_    0.630723 0.976612 0.715329 0.102334
H4    H     H_    0.693090 0.102258 0.211844 0.098563
H5    H     H_    0.431923 0.313844 0.213001 0.126983
H6    H     H_    0.976792 0.630916 0.215361 0.102366
H7    H     H_    0.802071 0.442167 0.733817 0.104127
H8    H     H_    0.546080 0.350984 0.732471 0.111089
H9    H     H_    0.655884 0.260420 0.756304 0.094523
H10   H     H_    0.441907 0.802195 0.233817 0.104097
H11   H     H_    0.350987 0.545963 0.232426 0.111084
H12   H     H_    0.260461 0.655684 0.256310 0.094484
H13   H     H_    0.890558 0.329913 0.786461 0.125073
H14   H     H_    0.671112 0.545186 0.787155 0.127736
H15   H     H_    0.444358 0.143018 0.801081 0.125167
H16   H     H_    0.329870 0.891029 0.286396 0.125120
H17   H     H_    0.545168 0.671041 0.287114 0.127788
H18   H     H_    0.142869 0.444150 0.301062 0.125184
H19   H     H_    0.193345 0.584232 0.766499 0.100218
H20   H     H_    0.434550 0.623343 0.769129 0.094186
H21   H     H_    0.423534 0.858651 0.761703 0.092643
H22   H     H_    0.584530 0.193573 0.266436 0.100334
H23   H     H_    0.623385 0.434514 0.269148 0.094227
H24   H     H_    0.858644 0.423706 0.261708 0.092649
O1    O     O_R   0.479630 0.139450 0.552170 -0.492950
O2    O     O_R   0.860550 0.340180 0.552170 -0.510359
O3    O     O_R   0.659820 0.520370 0.552170 -0.499281
O4    O     O_R   0.139450 0.479630 0.052170 -0.492944
O5    O     O_R   0.340180 0.860550 0.052170 -0.510377
O6    O     O_R   0.520370 0.659820 0.052170 -0.499279
O7    O     O_R   0.516200 0.360080 0.548600 -0.520498
O8    O     O_R   0.639920 0.156120 0.548600 -0.492609
O9    O     O_R   0.843880 0.483800 0.548600 -0.502421
O10   O     O_R   0.360080 0.516200 0.048600 -0.520499
O11   O     O_R   0.156120 0.639920 0.048600 -0.492615
O12   O     O_R   0.483800 0.843880 0.048600 -0.502429
O13   O     O_R   0.478560 0.139320 0.448720 -0.510320
O14   O     O_R   0.860680 0.339240 0.448720 -0.511622
O15   O     O_R   0.660760 0.521440 0.448720 -0.509794
O16   O     O_R   0.139320 0.478560 0.948720 -0.510288
O17   O     O_R   0.339240 0.860680 0.948720 -0.511625
O18   O     O_R   0.521440 0.660760 0.948720 -0.509793
O19   O     O_R   0.515210 0.359960 0.452710 -0.497847
O20   O     O_R   0.640040 0.155250 0.452710 -0.489393
O21   O     O_R   0.844750 0.484790 0.452710 -0.493999
O22   O     O_R   0.359960 0.515210 0.952710 -0.497837
O23   O     O_R   0.155250 0.640040 0.952710 -0.489416
O24   O     O_R   0.484790 0.844750 0.952710 -0.494000
O25   O     O_3   0.666667 0.333333 0.499990 -0.280172
O26   O     O_3   0.333333 0.666667 0.999990 -0.280168
C85   C     C_R   0.927261 0.652421 0.790615 0.041800
C86   C     C_R   0.946920 0.749068 0.767430 -0.082383
C87   C     C_R   0.911079 0.816349 0.787811 -0.115439
C88   C     C_R   0.855721 0.787937 0.831482 -0.116786
C89   C     C_R   0.834162 0.690978 0.854393 -0.117767
C90   C     C_R   0.869069 0.622972 0.833920 -0.104304
H25   H     H_    0.988671 0.771886 0.733389 0.097212
H26   H     H_    0.925914 0.890422 0.769667 0.091565
H27   H     H_    0.828246 0.840307 0.847218 0.114143
H28   H     H_    0.789657 0.668057 0.887829 0.121247
H29   H     H_    0.850226 0.547298 0.851766 0.109268
C91   C     C_R   0.331872 0.279111 0.786100 0.030775
C92   C     C_R   0.257197 0.202931 0.753604 -0.085449
C93   C     C_R   0.172242 0.102056 0.769614 -0.119779
C94   C     C_R   0.163819 0.074575 0.817922 -0.129542
C95   C     C_R   0.240441 0.147868 0.850223 -0.121484
C96   C     C_R   0.324214 0.249719 0.834480 -0.101198
H30   H     H_    0.263121 0.222677 0.715988 0.118059
H31   H     H_    0.113334 0.045002 0.744482 0.103402
H32   H     H_    0.098803 0.996105 0.830307 0.119064
H33   H     H_    0.234843 0.125840 0.887532 0.117468
H34   H     H_    0.383027 0.304021 0.860179 0.115864
C97   C     C_R   0.734850 0.116330 0.808129 0.041171
C98   C     C_R   0.802225 0.072821 0.795744 -0.102522
C99   C     C_R   0.892733 0.094579 0.823897 -0.136740
C100  C     C_R   0.917656 0.161238 0.864104 -0.103415
C101  C     C_R   0.851087 0.204943 0.876656 -0.114148
C102  C     C_R   0.759443 0.181884 0.849041 -0.107738
H35   H     H_    0.784794 0.021630 0.764650 0.088657
H36   H     H_    0.944239 0.060707 0.814234 0.105687
H37   H     H_    0.988477 0.178939 0.885521 0.124352
H38   H     H_    0.870326 0.256467 0.907837 0.123048
H39   H     H_    0.707982 0.215535 0.859333 0.107794
C103  C     C_R   0.652149 0.927144 0.290670 0.041840
C104  C     C_R   0.748915 0.946852 0.267582 -0.082392
C105  C     C_R   0.816070 0.910923 0.288025 -0.115510
C106  C     C_R   0.787414 0.855430 0.331663 -0.116688
C107  C     C_R   0.690339 0.833826 0.354478 -0.117776
C108  C     C_R   0.622458 0.868820 0.333941 -0.104333
H40   H     H_    0.771927 0.988712 0.233568 0.097112
H41   H     H_    0.890242 0.925807 0.269956 0.091531
H42   H     H_    0.839691 0.827892 0.347449 0.114148
H43   H     H_    0.667234 0.789223 0.387889 0.121231
H44   H     H_    0.546701 0.849957 0.351714 0.109224
C109  C     C_R   0.279108 0.331789 0.286071 0.030715
C110  C     C_R   0.202882 0.257245 0.253551 -0.085537
C111  C     C_R   0.101988 0.172281 0.269542 -0.119773
C112  C     C_R   0.074533 0.163730 0.317856 -0.129596
C113  C     C_R   0.147871 0.240223 0.350183 -0.121487
C114  C     C_R   0.249742 0.323997 0.334459 -0.101182
H45   H     H_    0.222609 0.263277 0.215931 0.118056
H46   H     H_    0.044896 0.113464 0.244392 0.103489
H47   H     H_    0.996050 0.098715 0.330228 0.118993
H48   H     H_    0.125864 0.234525 0.387498 0.117462
H49   H     H_    0.304073 0.382705 0.360181 0.115908
C115  C     C_R   0.116579 0.734839 0.308169 0.041144
C116  C     C_R   0.073026 0.802220 0.295863 -0.102836
C117  C     C_R   0.094936 0.892745 0.324032 -0.136754
C118  C     C_R   0.161780 0.917667 0.364179 -0.103230
C119  C     C_R   0.205502 0.851072 0.376660 -0.114138
C120  C     C_R   0.182300 0.759416 0.349028 -0.107709
H50   H     H_    0.021681 0.784780 0.264819 0.088591
H51   H     H_    0.061027 0.944256 0.314430 0.105738
H52   H     H_    0.179596 0.988499 0.385608 0.124394
H53   H     H_    0.257157 0.870303 0.407798 0.123006
H54   H     H_    0.215972 0.707939 0.359263 0.107777
O27   O     O_3   0.060911 0.377935 0.709617 -0.562557
C121  C     C_3   0.088255 0.323120 0.744163 -0.125207
H55   H     H_    0.016013 0.267678 0.766061 0.136599
H56   H     H_    0.156446 0.381566 0.767331 0.118110
H57   H     H_    0.115094 0.271386 0.725420 0.141414
O28   O     O_3   0.645057 0.682294 0.712295 -0.550291
C122  C     C_3   0.661534 0.771985 0.740391 -0.118088
H58   H     H_    0.673477 0.760132 0.778697 0.121051
H59   H     H_    0.591790 0.787304 0.736277 0.112834
H60   H     H_    0.736517 0.845868 0.727591 0.134603
O29   O     O_3   0.346383 0.004794 0.714075 -0.553158
C123  C     C_3   0.256469 0.925979 0.740578 -0.115159
H61   H     H_    0.257289 0.953058 0.777885 0.129943
H62   H     H_    0.254743 0.846319 0.740560 0.108664
H63   H     H_    0.180175 0.913193 0.723401 0.133408
O30   O     O_3   0.378374 0.061483 0.209475 -0.562650
C124  C     C_3   0.322897 0.088144 0.243955 -0.125356
H64   H     H_    0.380877 0.155678 0.267522 0.118305
H65   H     H_    0.266800 0.015377 0.265426 0.136556
H66   H     H_    0.271747 0.115627 0.225157 0.141287
O31   O     O_3   0.682335 0.644972 0.212293 -0.550278
C125  C     C_3   0.772001 0.661564 0.240442 -0.118109
H67   H     H_    0.787404 0.591865 0.236379 0.112853
H68   H     H_    0.760057 0.673535 0.278732 0.121011
H69   H     H_    0.845876 0.736567 0.227650 0.134585
O32   O     O_3   0.004570 0.346352 0.214056 -0.553145
C126  C     C_3   0.925800 0.256470 0.240588 -0.115217
H70   H     H_    0.846168 0.254808 0.240635 0.108709
H71   H     H_    0.952993 0.257266 0.277873 0.129911
H72   H     H_    0.912904 0.180158 0.223393 0.133346

loop_
_geom_bond_atom_site_label_1
_geom_bond_atom_site_label_2
_ccdc_geom_bond_type
C68   C80   S    
C15   C75   S    
C13   C79   S    
C9    C45   S    
C99   C100  A    
C70   C82   S    
C46   C52   S    
C42   O24   A    
C9    C21   S    
C31   C61   T    
C11   C47   S    
C97   C98   A    
Cr4   O16   S    
Cr4   O10   S    
C45   H3    S    
C1    C62   S    
C7    C43   S    
C125  H68   S    
C107  C108  A    
C19   H7    S    
C124  H66   S    
C123  H61   S    
C109  C114  A    
C15   C81   S    
C39   O21   A    
C122  H58   S    
C10   C22   S    
C48   C54   S    
C16   H16   S    
C40   O22   A    
C12   C84   S    
C17   C23   S    
C123  H63   S    
C18   C24   S    
C14   C74   S    
C22   C52   S    
C98   C99   A    
C11   C23   S    
C51   C75   S    
C34   C64   T    
Cr3   O3    S    
C3    O2    A    
C17   H17   S    
C89   C90   A    
C41   O16   A    
C21   H9    S    
C36   C66   T    
C21   C51   S    
C45   C51   S    
C68   C74   S    
C106  H42   S    
C119  H53   S    
C72   H24   S    
C92   H30   S    
C105  H41   S    
C71   H23   S    
Cr2   O2    S    
C6    C64   S    
C110  H45   S    
C53   C109  S    
C103  C104  A    
Cr4   O26   S    
C72   C78   S    
C38   C58   S    
C123  H62   S    
C113  H48   S    
C67   H19   S    
Cr5   O11   S    
C41   C55   S    
Cr5   O5    S    
C37   O15   A    
C121  H55   S    
C40   C56   S    
C30   C60   T    
Cr2   O8    S    
C20   C50   S    
C120  H54   S    
C51   C97   S    
C117  C118  A    
C67   C73   S    
C14   C80   S    
C12   C36   S    
C54   C115  S    
C126  H70   S    
Cr1   O25   S    
C41   O23   A    
C89   H28   S    
C44   H2    S    
C12   C48   S    
C47   C53   S    
Cr6   O18   S    
C3    C61   S    
C40   O18   A    
Cr2   O20   S    
C126  H72   S    
C118  C119  A    
C92   C93   A    
C9    C33   S    
C98   H35   S    
C116  C117  A    
C48   C72   S    
C27   C75   S    
C42   C57   S    
C16   C82   S    
C125  H67   S    
Cr6   O24   S    
C3    O9    A    
C38   O13   A    
C94   C95   A    
C71   C83   S    
C2    O8    A    
C83   O31   S    
C102  H39   S    
C33   C63   T    
C72   C84   S    
C7    C31   S    
C13   C19   S    
Cr2   O14   S    
O27   C121  S    
C8    C32   S    
C29   C59   T    
Cr1   O1    S    
C67   C79   S    
C6    O12   A    
C124  H64   S    
Cr1   O19   S    
C27   C57   T    
C101  C102  A    
C119  C120  A    
C68   H20   S    
C11   C83   S    
O29   C123  S    
C45   C69   S    
C10   C82   S    
C113  C114  A    
C43   H1    S    
C49   C85   S    
C112  C113  A    
C17   C83   S    
Cr6   O6    S    
C24   C54   S    
C53   C77   S    
C10   C46   S    
C88   H27   S    
C42   O17   A    
C14   C20   S    
C24   H12   S    
C2    O1    A    
C19   C49   S    
C14   H14   S    
O31   C125  S    
C46   H4    S    
C15   C21   S    
C18   C78   S    
Cr5   O26   S    
C81   O29   S    
C17   C77   S    
Cr6   O12   S    
C20   H8    S    
C116  H50   S    
C10   C34   S    
C8    C20   S    
O28   C122  S    
Cr1   O7    S    
C126  H71   S    
C101  H38   S    
Cr4   O22   S    
C111  H46   S    
C37   C59   S    
C70   H22   S    
C85   C90   A    
C69   C81   S    
Cr2   O25   S    
C43   C67   S    
C105  C106  A    
C4    O10   A    
C13   C73   S    
C95   H33   S    
C7    C19   S    
C70   C76   S    
C100  C101  A    
C49   C73   S    
C44   C68   S    
C13   H13   S    
C47   C71   S    
C114  H49   S    
C28   C76   S    
C52   C103  S    
C6    O5    A    
C71   C77   S    
C93   H31   S    
C2    C63   S    
Cr3   O21   S    
C7    C79   S    
C108  H44   S    
C122  H60   S    
C44   C50   S    
C99   H36   S    
C91   C96   A    
C95   C96   A    
C16   C22   S    
C39   O14   A    
C48   H6    S    
C1    O7    A    
C94   H32   S    
C16   C76   S    
C86   H25   S    
C43   C49   S    
C107  H43   S    
Cr3   O25   S    
C115  C116  A    
C52   C76   S    
C26   C56   T    
C112  H47   S    
C47   H5    S    
Cr6   O26   S    
C124  H65   S    
C104  H40   S    
C82   O30   S    
C28   C58   T    
C12   C24   S    
Cr5   O23   S    
Cr5   O17   S    
C80   O28   S    
C5    O4    A    
C88   C89   A    
Cr3   O15   S    
C50   C74   S    
C97   C102  A    
C115  C120  A    
C122  H59   S    
C32   C62   T    
C18   C84   S    
C104  C105  A    
C85   C86   A    
C5    C66   S    
Cr3   O9    S    
C69   H21   S    
C15   H15   S    
C109  C110  A    
C4    C65   S    
C118  H52   S    
C121  H57   S    
C79   O27   S    
C39   C60   S    
C103  C108  A    
C23   C53   S    
C11   C35   S    
O32   C126  S    
C26   C74   S    
C25   C55   T    
C69   C75   S    
C25   C73   S    
C38   O20   A    
O30   C124  S    
C84   O32   S    
C37   O19   A    
C18   H18   S    
C87   H26   S    
C46   C70   S    
C22   H10   S    
Cr1   O13   S    
C23   H11   S    
C90   H29   S    
C30   C78   S    
C50   C91   S    
C93   C94   A    
C100  H37   S    
C29   C77   S    
C91   C92   A    
C121  H56   S    
C106  C107  A    
C5    O11   A    
C117  H51   S    
C8    C80   S    
C35   C65   T    
C86   C87   A    
C4    O6    A    
C111  C112  A    
C110  C111  A    
C1    O3    A    
Cr4   O4    S    
C96   H34   S    
C125  H69   S    
C87   C88   A    
C9    C81   S    
C54   C78   S    
C8    C44   S    
