data_mof_unit_4294.cif
_audit_creation_date              2012-12-10T17:42:16-0500
_audit_creation_method            fapswitch 2.2
_symmetry_space_group_name_H-M    P1
_symmetry_Int_Tables_number       1
_space_group_crystal_system       triclinic
_cell_length_a                    15.154215
_cell_length_b                    13.763606
_cell_length_c                    10.779699
_cell_angle_alpha                 90.375175
_cell_angle_beta                  88.865198
_cell_angle_gamma                 88.821485
_cell_volume                      2247.42253651

loop_
_atom_site_label
_atom_site_type_symbol
_atom_type_description
_atom_site_fract_x
_atom_site_fract_y
_atom_site_fract_z
_atom_type_partial_charge
C1    C     C_R   0.328114 0.501499 0.497878 0.862054
C2    C     C_3   0.553483 0.588271 0.928220 -0.397215
C3    C     C_R   0.811290 0.584977 0.482995 -0.224444
C4    C     C_R   0.767377 0.497397 0.493642 -0.086463
C5    C     C_R   0.815332 0.409428 0.499594 -0.260735
C6    C     C_R   0.908184 0.408330 0.499086 0.081044
C7    C     C_R   0.951844 0.498188 0.489470 0.051746
C8    C     C_R   0.902600 0.585972 0.480574 0.113434
C9    C     C_R   0.958682 0.320667 0.508073 0.074796
C10   C     C_R   0.051149 0.324940 0.507171 -0.216430
C11   C     C_R   0.094016 0.413926 0.498338 0.072884
C12   C     C_R   0.497410 0.499534 0.259284 0.713591
C13   C     C_R   0.044622 0.500965 0.489129 0.014077
C14   C     C_R   0.087591 0.591050 0.479986 0.058550
C15   C     C_R   0.036071 0.677105 0.469726 -0.150125
C16   C     C_R   0.944939 0.674360 0.470130 -0.209032
C17   C     C_R   0.185891 0.416561 0.499562 -0.258282
C18   C     C_R   0.230344 0.504990 0.493119 -0.149411
C19   C     C_R   0.180461 0.593460 0.481939 0.215550
C20   C     C_R   0.443713 0.796202 0.578103 0.445865
C21   C     C_R   0.440728 0.207194 0.573785 0.386482
C22   C     C_R   0.558048 0.790905 0.423822 -0.017406
C23   C     C_R   0.561259 0.205417 0.429181 -0.024464
C24   C     C_R   0.562007 0.894115 0.422689 -0.123853
C25   C     C_R   0.564131 0.101978 0.426397 -0.120923
C26   C     C_R   0.671116 0.499026 0.498086 0.794846
C27   C     C_R   0.500616 0.948104 0.496460 0.009178
C28   C     C_R   0.500753 0.051621 0.496765 0.017835
C29   C     C_R   0.439895 0.898648 0.572744 -0.011880
C30   C     C_R   0.438719 0.104602 0.571045 -0.004615
C31   C     C_R   0.626201 0.944543 0.352391 0.249193
C32   C     C_R   0.628699 0.047647 0.356926 0.227102
C33   C     C_R   0.376569 0.053554 0.642216 -0.182445
C34   C     C_R   0.377397 0.952914 0.643443 -0.148268
C35   C     C_R   0.505451 0.499885 0.739224 0.831270
C36   C     C_3   0.399994 0.514613 0.065899 0.224888
C37   C     C_3   0.549933 0.397472 0.066135 0.249157
C38   C     C_3   0.409351 0.490079 0.924269 -0.366702
C39   C     C_3   0.558562 0.408564 0.921133 -0.377456
C40   C     C_3   0.556435 0.583059 0.070784 -0.412059
C41   C     C_3   0.498860 0.497000 0.119469 0.020154
C42   C     C_3   0.506205 0.498283 0.876298 0.018868
Cu1   Cu    Cu3+1 0.499990 0.597420 0.500010 0.988312
Cu2   Cu    Cu3+1 0.499990 0.402580 0.500010 0.954681
H1    H     H_    0.090108 0.258319 0.514609 0.151035
H2    H     H_    0.222911 0.348683 0.506498 0.201478
H3    H     H_    0.064317 0.748144 0.461839 0.203983
H4    H     H_    0.907400 0.741952 0.462804 0.172488
H5    H     H_    0.602233 0.747017 0.365854 0.184077
H6    H     H_    0.608197 0.246408 0.375811 0.172182
H7    H     H_    0.326062 0.089915 0.698434 0.188664
H8    H     H_    0.327363 0.918941 0.700089 0.197379
H9    H     H_    0.388083 0.415669 0.903389 0.192877
H10   H     H_    0.533921 0.343798 0.872675 0.191480
H11   H     H_    0.365605 0.536928 0.867125 0.180578
H12   H     H_    0.626408 0.415046 0.884462 0.165552
H13   H     H_    0.534990 0.654012 0.111183 0.204359
H14   H     H_    0.626166 0.575034 0.098873 0.177114
H15   H     H_    0.521255 0.656895 0.897725 0.211954
H16   H     H_    0.622238 0.590236 0.890011 0.167871
H17   H     H_    0.774397 0.653110 0.476719 0.174726
H18   H     H_    0.779317 0.342662 0.505762 0.177600
N1    N     N_R   0.499930 0.743810 0.499950 -0.209419
N2    N     N_R   0.499930 0.256190 0.499950 -0.208816
O1    O     O_R   0.370250 0.582280 0.500040 -0.514890
O2    O     O_R   0.370250 0.417720 0.500040 -0.554101
O3    O     O_R   0.499970 0.582270 0.317700 -0.586696
O4    O     O_R   0.499970 0.417730 0.317700 -0.615516
O5    O     O_R   0.629730 0.582260 0.499980 -0.591528
O6    O     O_R   0.629730 0.417740 0.499980 -0.596367
O7    O     O_R   0.500000 0.582270 0.682320 -0.545327
O8    O     O_R   0.500000 0.417730 0.682320 -0.554956
C43   C     C_3   0.363846 0.624572 0.069289 -0.369602
C44   C     C_3   0.338058 0.673738 0.194090 -0.344233
C45   C     C_3   0.374549 0.776411 0.204588 -0.732590
H19   H     H_    0.447697 0.774244 0.201481 0.241270
H20   H     H_    0.350177 0.822279 0.127559 0.244134
H21   H     H_    0.352931 0.810812 0.293653 0.274406
H22   H     H_    0.264832 0.679612 0.201516 0.230624
H23   H     H_    0.358441 0.630851 0.274050 0.261752
H24   H     H_    0.406880 0.673091 0.015821 0.219441
H25   H     H_    0.302981 0.629186 0.014142 0.202015
C46   C     C_3   0.643424 0.384357 0.132668 -0.305136
C47   C     C_3   0.731225 0.387342 0.057369 -0.375137
C48   C     C_3   0.752824 0.293953 0.984047 -0.786404
H26   H     H_    0.762159 0.232259 0.048399 0.289189
H27   H     H_    0.700444 0.275707 0.918236 0.241339
H28   H     H_    0.815319 0.302988 0.930250 0.233453
H29   H     H_    0.734299 0.452447 0.997439 0.205800
H30   H     H_    0.785416 0.396291 0.124420 0.219908
H31   H     H_    0.650731 0.440915 0.204997 0.135938
H32   H     H_    0.645376 0.318167 0.190038 0.208406
Br1   Br    Br    0.234351 0.719396 0.468524 -0.568408
Br2   Br    Br    0.374574 0.733077 0.705991 -0.529321
Br3   Br    Br    0.363074 0.275695 0.690715 -0.607821
Br4   Br    Br    0.713112 0.873322 0.252507 -0.514116
Br5   Br    Br    0.724732 0.112619 0.274492 -0.594841
C49   C     C_3   0.328600 0.451048 0.136754 -0.402036
C50   C     C_3   0.251321 0.407344 0.064716 -0.357669
C51   C     C_3   0.187804 0.482490 0.010285 -0.753316
H33   H     H_    0.170309 0.539996 0.079785 0.246463
H34   H     H_    0.216650 0.515097 0.925421 0.252068
H35   H     H_    0.126208 0.446231 0.983262 0.237630
H36   H     H_    0.274401 0.354983 0.992044 0.225344
H37   H     H_    0.212439 0.363687 0.132006 0.211660
H38   H     H_    0.360228 0.390103 0.185547 0.158043
H39   H     H_    0.298305 0.492496 0.215528 0.180559
C52   C     C_3   0.496040 0.300894 0.089286 -0.440905
C53   C     C_3   0.540212 0.203564 0.045299 -0.348586
C54   C     C_3   0.481491 0.117773 0.076501 -0.797318
H40   H     H_    0.469057 0.113821 0.178232 0.253115
H41   H     H_    0.417466 0.125203 0.028665 0.256065
H42   H     H_    0.514745 0.048956 0.045313 0.261572
H43   H     H_    0.552963 0.201721 0.943841 0.225007
H44   H     H_    0.603930 0.190518 0.090701 0.264438
H45   H     H_    0.480338 0.290650 0.188499 0.227670
H46   H     H_    0.432552 0.305625 0.040776 0.206252
C55   C     C_3   0.916690 0.221866 0.518423 -0.380653
C56   C     C_3   0.879632 0.204763 0.649964 -0.375937
C57   C     C_3   0.825835 0.112314 0.655337 -0.769172
H47   H     H_    0.768314 0.118578 0.593303 0.268270
H48   H     H_    0.867432 0.048362 0.626609 0.265120
H49   H     H_    0.801061 0.101082 0.751717 0.244856
H50   H     H_    0.935193 0.198173 0.715408 0.229902
H51   H     H_    0.836690 0.266782 0.681577 0.220127
H52   H     H_    0.864606 0.214952 0.448059 0.234757
H53   H     H_    0.966110 0.163118 0.496174 0.205481

loop_
_geom_bond_atom_site_label_1
_geom_bond_atom_site_label_2
_ccdc_geom_bond_type
C27   C29   A    
C43   C44   S    
Cu2   O2    S    
C24   C27   A    
C15   H3    S    
Cu1   Cu2   S    
C16   H4    S    
C6    C9    A    
Cu1   N1    S    
C7    C8    A    
C56   H50   S    
Cu2   N2    S    
C25   C28   A    
C46   H32   S    
C12   O4    A    
C1    C18   S    
C32   Br5   S    
C38   C42   S    
C5    C6    A    
C2    H16   S    
C39   H10   S    
C15   C16   A    
C52   C53   S    
C18   C19   A    
C35   C42   S    
C55   C56   S    
C21   N2    A    
C22   N1    A    
C54   H40   S    
C11   C17   A    
C38   H11   S    
C39   H12   S    
C1    O1    A    
Cu2   O6    S    
C9    C10   A    
C19   Br1   S    
C57   H49   S    
C25   C32   A    
C3    H17   S    
C50   H36   S    
C35   O7    A    
C8    C16   A    
C44   H23   S    
C13   C14   A    
C9    C55   S    
C36   C41   S    
C47   H30   S    
C14   C19   A    
C43   H24   S    
C57   H48   S    
C1    O2    A    
C39   C42   S    
C20   C29   A    
C48   H27   S    
C50   H37   S    
C12   O3    A    
C40   H14   S    
C44   C45   S    
C17   H2    S    
C37   C52   S    
C3    C8    A    
C10   C11   A    
C2    H15   S    
C23   H6    S    
C21   Br3   S    
C48   H26   S    
C29   C34   A    
C51   H35   S    
C49   H39   S    
C45   H19   S    
C12   C41   S    
C46   C47   S    
Cu1   O1    S    
C10   H1    S    
C51   H34   S    
C17   C18   A    
C47   C48   S    
C45   H20   S    
C54   H42   S    
C53   H43   S    
C22   H5    S    
C56   H51   S    
C40   C41   S    
C35   O8    A    
C44   H22   S    
C26   O6    A    
C22   C24   A    
Cu2   O4    S    
C55   H53   S    
C3    C4    A    
C43   H25   S    
C57   H47   S    
C48   H28   S    
C20   Br2   S    
C23   N2    A    
Cu1   O7    S    
C40   H13   S    
C30   C33   A    
C52   H46   S    
C31   C32   A    
C4    C5    A    
C4    C26   S    
C56   C57   S    
C6    C7    A    
C33   H7    S    
C46   H31   S    
C21   C30   A    
C34   H8    S    
C49   H38   S    
C50   C51   S    
C52   H45   S    
C20   N1    A    
C36   C38   S    
C24   C31   A    
C37   C39   S    
C53   C54   S    
C11   C13   A    
C38   H9    S    
C2    C42   S    
C28   C30   A    
C51   H33   S    
C33   C34   A    
C5    H18   S    
Cu2   O8    S    
C23   C25   A    
C37   C41   S    
C45   H21   S    
C54   H41   S    
C36   C43   S    
C53   H44   S    
C2    C40   S    
C7    C13   A    
Cu1   O3    S    
C49   C50   S    
C47   H29   S    
C27   C28   A    
C26   O5    A    
C14   C15   A    
C37   C46   S    
C36   C49   S    
C55   H52   S    
Cu1   O5    S    
C31   Br4   S    
