data_mof_unit_3056.cif
_audit_creation_date              2012-12-11T15:22:35-0500
_audit_creation_method            fapswitch 2.2
_symmetry_space_group_name_H-M    P1
_symmetry_Int_Tables_number       1
_space_group_crystal_system       triclinic
_cell_length_a                    22.989608
_cell_length_b                    7.455667
_cell_length_c                    20.437907
_cell_angle_alpha                 90.000169
_cell_angle_beta                  93.354042
_cell_angle_gamma                 89.999893
_cell_volume                      3497.11518141

loop_
_atom_site_label
_atom_site_type_symbol
_atom_type_description
_atom_site_fract_x
_atom_site_fract_y
_atom_site_fract_z
_atom_type_partial_charge
O1    O     O_R   0.438030 0.494310 0.439340 -0.529680
O2    O     O_R   0.561970 0.994310 0.560660 -0.529702
O3    O     O_R   0.556900 0.822900 0.435960 -0.532736
O4    O     O_R   0.443100 0.322900 0.564040 -0.532710
C1    C     C_R   0.575456 0.657260 0.421714 0.715991
C2    C     C_R   0.424544 0.157260 0.578286 0.716000
O5    O     O_R   0.438170 0.823950 0.431660 -0.535250
O6    O     O_R   0.561830 0.323950 0.568340 -0.535228
O7    O     O_R   0.442390 0.995390 0.556340 -0.521295
O8    O     O_R   0.557610 0.495390 0.443660 -0.521269
C3    C     C_R   0.419077 0.655828 0.416503 0.746048
C4    C     C_R   0.580922 0.155828 0.583498 0.746050
O9    O     O_3   0.501520 0.661170 0.540910 -0.375546
O10   O     O_3   0.498480 0.161170 0.459090 -0.375541
V1    V     V_3+5 0.499720 0.935580 0.492410 1.552353
V2    V     V_3+5 0.500280 0.435580 0.507590 1.552446
C5    C     C_R   0.813056 0.140498 0.888137 0.237782
C6    C     C_R   0.186954 0.640282 0.111855 0.237751
C7    C     C_R   0.867716 0.080270 0.868686 -0.174922
C8    C     C_R   0.132275 0.580272 0.131321 -0.174920
C9    C     C_R   0.874136 0.026468 0.803587 0.176082
C10   C     C_R   0.125832 0.526708 0.196441 0.176044
C11   C     C_R   0.826339 0.038088 0.756962 0.044389
C12   C     C_R   0.173624 0.538370 0.243070 0.044410
C13   C     C_R   0.771047 0.094795 0.776275 -0.042187
C14   C     C_R   0.228937 0.594822 0.223740 -0.042193
C15   C     C_R   0.763135 0.134098 0.843242 -0.070931
C16   C     C_R   0.236869 0.633862 0.156756 -0.070944
C17   C     C_R   0.832262 0.986563 0.691709 -0.107450
C18   C     C_R   0.167673 0.487147 0.308349 -0.107428
C19   C     C_R   0.785967 0.997849 0.644477 0.111111
C20   C     C_R   0.213963 0.498491 0.355588 0.110944
C21   C     C_R   0.732496 0.077000 0.661042 0.127029
C22   C     C_R   0.267469 0.577345 0.338987 0.126987
C23   C     C_R   0.723537 0.109752 0.728437 -0.054922
C24   C     C_R   0.276449 0.609786 0.271577 -0.054916
C25   C     C_R   0.667297 0.158622 0.747816 -0.083739
C26   C     C_R   0.332710 0.658350 0.252179 -0.083754
C27   C     C_R   0.660503 0.201858 0.814415 0.276429
C28   C     C_R   0.339525 0.701325 0.185562 0.276427
C29   C     C_R   0.705820 0.170093 0.862020 0.280394
C30   C     C_R   0.294197 0.669587 0.137967 0.280342
C31   C     C_R   0.687333 0.123161 0.613332 0.023388
C32   C     C_R   0.312651 0.623497 0.386678 0.023452
C33   C     C_R   0.630203 0.146457 0.633223 -0.138682
C34   C     C_R   0.369793 0.646465 0.366780 -0.138658
C35   C     C_R   0.619625 0.153605 0.700194 0.240266
C36   C     C_R   0.380377 0.653306 0.299806 0.240216
H1    H     H_    0.872727 0.930170 0.676773 0.195000
H2    H     H_    0.127183 0.430984 0.323307 0.194995
C37   C     C_3   0.247755 0.241916 0.816528 0.022795
C38   C     C_3   0.752244 0.741914 0.183470 0.022777
C39   C     C_3   0.245711 0.910483 0.784883 -0.191875
C40   C     C_3   0.754288 0.410481 0.215115 -0.191890
C41   C     C_3   0.295520 0.939326 0.734215 0.427546
C42   C     C_3   0.704478 0.439325 0.265782 0.427544
H3    H     H_    0.264636 0.207786 0.866873 0.194379
H4    H     H_    0.735363 0.707783 0.133125 0.194377
H5    H     H_    0.216535 0.802071 0.765394 0.253685
H6    H     H_    0.783464 0.302070 0.234604 0.253683
C43   C     C_1   0.378747 0.157703 0.623901 -0.041684
C44   C     C_1   0.621252 0.657702 0.376097 -0.041700
C45   C     C_3   0.207442 0.086086 0.791044 -0.049648
C46   C     C_3   0.792557 0.586084 0.208955 -0.049638
C47   C     C_3   0.301241 0.265776 0.772098 0.219691
C48   C     C_3   0.698758 0.765774 0.227900 0.219698
C49   C     C_3   0.292575 0.138237 0.708360 -0.025446
C50   C     C_3   0.707423 0.638236 0.291638 -0.025440
C51   C     C_3   0.228283 0.171177 0.671519 0.237474
C52   C     C_3   0.771715 0.671176 0.328479 0.237432
C53   C     C_3   0.179991 0.137757 0.722081 0.095806
C54   C     C_3   0.820007 0.637757 0.277918 0.095815
C55   C     C_1   0.340107 0.158753 0.661911 0.133694
C56   C     C_1   0.659891 0.658752 0.338087 0.133690
C57   C     C_1   0.159673 0.069091 0.837646 0.140209
C58   C     C_1   0.840326 0.569090 0.162352 0.140218
C59   C     C_1   0.121043 0.071876 0.875764 -0.010440
C60   C     C_1   0.878957 0.571876 0.124235 -0.010403
H7    H     H_    0.155353 0.264362 0.727657 0.216188
H8    H     H_    0.844646 0.764362 0.272342 0.216193
O11   O     O_R   0.942420 0.735670 0.056390 -0.528492
O12   O     O_R   0.057580 0.235670 0.943610 -0.528484
O13   O     O_R   0.061840 0.404850 0.068350 -0.525702
O14   O     O_R   0.938160 0.904850 0.931650 -0.525670
C61   C     C_R   0.081478 0.572951 0.083128 0.790105
C62   C     C_R   0.918519 0.072951 0.916874 0.790081
O15   O     O_R   0.943100 0.406010 0.064050 -0.515663
O16   O     O_R   0.056900 0.906010 0.935950 -0.515659
O17   O     O_R   0.938020 0.234710 0.939330 -0.522023
O18   O     O_R   0.061980 0.734710 0.060670 -0.522046
C63   C     C_R   0.924713 0.572726 0.078396 0.730246
C64   C     C_R   0.075287 0.072725 0.921604 0.730157
O19   O     O_3   0.998500 0.567790 0.959120 -0.377937
O20   O     O_3   0.001500 0.067790 0.040880 -0.377979
V3    V     V_3+5 0.000280 0.293330 0.007580 1.634976
V4    V     V_3+5 0.999720 0.793330 0.992420 1.635014
Br1   Br    Br    0.812109 0.260586 0.972291 -0.475143
Br2   Br    Br    0.187934 0.760149 0.027662 -0.475067
C65   C     C_3   0.269437 0.849952 0.854131 -0.531283
H9    H     H_    0.303304 0.940975 0.875682 0.254916
H10   H     H_    0.233982 0.840648 0.888446 0.250179
H11   H     H_    0.289189 0.716523 0.853572 0.258259
C66   C     C_3   0.730562 0.349949 0.145866 -0.531263
H12   H     H_    0.696696 0.440972 0.124315 0.254934
H13   H     H_    0.766018 0.340642 0.111551 0.250180
H14   H     H_    0.710810 0.216520 0.146426 0.258246
Br3   Br    Br    0.374113 0.857246 0.765745 -0.357671
Br4   Br    Br    0.625886 0.357244 0.234252 -0.357638
Br5   Br    Br    0.292670 0.778476 0.658861 -0.568821
Br6   Br    Br    0.707329 0.278476 0.341136 -0.568785
Br7   Br    Br    0.116666 0.970356 0.694507 -0.414948
Br8   Br    Br    0.883332 0.470356 0.305492 -0.414918
Br9   Br    Br    0.217104 0.413375 0.636310 -0.517896
Br10  Br    Br    0.782894 0.913374 0.363689 -0.517851
Br11  Br    Br    0.201353 0.456407 0.836373 -0.549808
Br12  Br    Br    0.798645 0.956405 0.163626 -0.549885
C67   C     C_3   0.310787 0.459508 0.753892 -0.471301
H15   H     H_    0.269621 0.528333 0.742551 0.264274
H16   H     H_    0.331367 0.533287 0.795573 0.250011
H17   H     H_    0.340743 0.470878 0.713559 0.252476
C68   C     C_3   0.689211 0.959506 0.246106 -0.471318
H18   H     H_    0.730377 0.028330 0.257447 0.264280
H19   H     H_    0.668632 0.033285 0.204424 0.250007
H20   H     H_    0.659255 0.970877 0.286438 0.252472
Br13  Br    Br    0.950452 0.951144 0.778425 -0.473495
Br14  Br    Br    0.049494 0.451630 0.221611 -0.473548
C69   C     C_3   0.214755 0.068108 0.605809 -0.522309
H21   H     H_    0.176608 0.125921 0.577104 0.238692
H22   H     H_    0.252215 0.073505 0.573934 0.194999
H23   H     H_    0.200811 0.928053 0.611790 0.267075
C70   C     C_3   0.785243 0.568108 0.394189 -0.522246
H24   H     H_    0.823390 0.625921 0.422894 0.238697
H25   H     H_    0.747783 0.573507 0.426065 0.195000
H26   H     H_    0.799187 0.428054 0.388208 0.267078
C71   C     C_3   0.793507 0.898934 0.580873 -0.708549
H27   H     H_    0.819488 0.774829 0.590111 0.215341
H28   H     H_    0.751254 0.853001 0.557917 0.217709
H29   H     H_    0.817057 0.984016 0.546570 0.244694
C72   C     C_3   0.206373 0.399938 0.419255 -0.708111
H30   H     H_    0.180237 0.276089 0.410123 0.215340
H31   H     H_    0.248599 0.353630 0.442170 0.217689
H32   H     H_    0.182960 0.485427 0.453551 0.244681
C73   C     C_3   0.699383 0.167581 0.542933 -0.684117
H33   H     H_    0.675584 0.291289 0.527112 0.199753
H34   H     H_    0.745872 0.199111 0.537248 0.235146
H35   H     H_    0.684713 0.056557 0.509730 0.222574
C74   C     C_3   0.300616 0.668215 0.457056 -0.684223
H36   H     H_    0.324518 0.791758 0.472857 0.199727
H37   H     H_    0.254153 0.700192 0.462700 0.234978
H38   H     H_    0.315170 0.557154 0.490300 0.222725
Br15  Br    Br    0.539709 0.118640 0.723002 -0.347765
Br16  Br    Br    0.460279 0.617924 0.277020 -0.347809
Br17  Br    Br    0.596478 0.346532 0.842068 -0.228502
Br18  Br    Br    0.403612 0.845632 0.157852 -0.228322
Br19  Br    Br    0.681743 0.130275 0.950096 -0.271922
Br20  Br    Br    0.318256 0.629429 0.049904 -0.271899
Br21  Br    Br    0.373243 0.228763 0.829044 -0.309534
Br22  Br    Br    0.626755 0.728760 0.170953 -0.309559

loop_
_geom_bond_atom_site_label_1
_geom_bond_atom_site_label_2
_ccdc_geom_bond_type
C73   H35   S    
C48   C50   S    
O16   V4    S    
C59   C64   S    
O4    V2    S    
O15   C63   A    
C71   H29   S    
C39   C45   S    
C31   C73   S    
C74   H36   S    
O1    C3    A    
C7    C62   S    
O2    C4    A    
C2    O7    A    
C53   H7    S    
C39   H5    S    
C38   C48   S    
C71   H27   S    
C27   C29   A    
C17   H1    S    
C52   Br10  S    
O5    C3    A    
C51   Br9   S    
C40   C46   S    
C27   Br17  S    
C11   C17   A    
C2    C43   S    
C7    C9    A    
O14   C62   A    
C67   H16   S    
C37   C47   S    
C72   H32   S    
C10   Br14  S    
C12   C18   A    
C50   C56   S    
C73   H33   S    
C32   C74   S    
O12   C64   A    
C73   H34   S    
O14   V4    S    
C33   C35   A    
C16   C30   A    
C51   C53   S    
C42   Br4   S    
C68   H20   S    
C5    C7    A    
O16   C64   A    
C47   C49   S    
C53   Br7   S    
C19   C21   A    
C37   H3    S    
C25   C35   A    
C26   C36   A    
C70   H26   S    
C38   Br12  S    
C18   H2    S    
O6    V2    S    
C41   Br5   S    
C28   Br18  S    
C42   Br6   S    
C32   C34   A    
C40   C42   S    
C39   C41   S    
C61   O18   A    
C34   C36   A    
C74   H37   S    
C58   C60   T    
C5    C15   A    
C40   C66   S    
C74   H38   S    
C37   C45   S    
C20   C72   S    
C47   Br21  S    
C38   C46   S    
C67   H17   S    
O11   V4    S    
C40   H6    S    
C70   H25   S    
C42   C50   S    
C39   C65   S    
C54   H8    S    
C41   Br3   S    
C49   C51   S    
C21   C31   A    
O17   V3    S    
C30   Br20  S    
C69   H22   S    
C18   C20   A    
C57   C59   T    
C15   C29   A    
C28   C30   A    
C65   H9    S    
O6    C4    A    
O13   V3    S    
C8    C61   S    
C46   C58   S    
C48   C68   S    
C6    C16   A    
C66   H13   S    
O1    V2    S    
O2    V1    S    
C31   C33   A    
C68   H18   S    
C38   H4    S    
C13   C23   A    
C49   C55   S    
C19   C71   S    
O13   C61   A    
C45   C53   S    
O19   V4    S    
C9    C11   A    
C10   C12   A    
O4    C2    A    
C8    C10   A    
C9    Br13  S    
C69   H21   S    
C48   Br22  S    
O3    V1    S    
C14   C24   A    
C71   H28   S    
C22   C32   A    
O15   V3    S    
O12   V3    S    
C23   C25   A    
C12   C14   A    
C4    C33   S    
O3    C1    A    
C62   O17   A    
C41   C49   S    
C72   H30   S    
O18   V4    S    
C60   C63   S    
C13   C15   A    
C14   C16   A    
C43   C55   T    
C54   Br8   S    
C36   Br16  S    
O7    V1    S    
C69   H23   S    
C1    O8    A    
C25   C27   A    
O8    V2    S    
C67   H15   S    
C24   C26   A    
C26   C28   A    
C72   H31   S    
C45   C57   S    
O5    V1    S    
C52   C70   S    
C21   C23   A    
C22   C24   A    
C1    C44   S    
C66   H14   S    
C6    C8    A    
C11   C13   A    
O20   V3    S    
C37   Br11  S    
C68   H19   S    
C35   Br15  S    
O11   C63   A    
C65   H11   S    
C51   C69   S    
C17   C19   A    
O9    V2    S    
C66   H12   S    
C50   C52   S    
C47   C67   S    
O10   V1    S    
C44   C56   T    
C3    C34   S    
C52   C54   S    
C6    Br2   S    
C5    Br1   S    
C65   H10   S    
C70   H24   S    
C46   C54   S    
C20   C22   A    
C29   Br19  S    
