data_mof_unit_2955.cif
_audit_creation_date              2012-12-11T14:43:37-0500
_audit_creation_method            fapswitch 2.2
_symmetry_space_group_name_H-M    P1
_symmetry_Int_Tables_number       1
_space_group_crystal_system       triclinic
_cell_length_a                    20.837843
_cell_length_b                    7.101528
_cell_length_c                    16.39087
_cell_angle_alpha                 90.113042
_cell_angle_beta                  92.468909
_cell_angle_gamma                 89.922699
_cell_volume                      2423.27138803

loop_
_atom_site_label
_atom_site_type_symbol
_atom_type_description
_atom_site_fract_x
_atom_site_fract_y
_atom_site_fract_z
_atom_type_partial_charge
O1    O     O_R   0.564840 0.505290 0.579830 -0.539949
O2    O     O_R   0.435160 0.005290 0.420170 -0.539913
O3    O     O_R   0.556720 0.179930 0.409350 -0.536390
O4    O     O_R   0.443280 0.679930 0.590650 -0.536029
C1    C     C_R   0.570449 0.344635 0.381073 0.735749
C2    C     C_R   0.429582 0.845160 0.618936 0.736081
O5    O     O_R   0.572280 0.175810 0.578530 -0.540046
O6    O     O_R   0.427720 0.675810 0.421470 -0.540063
O7    O     O_R   0.450830 0.001920 0.590540 -0.536640
O8    O     O_R   0.549170 0.501920 0.409460 -0.536401
C3    C     C_R   0.590036 0.342861 0.604990 0.695093
C4    C     C_R   0.409967 0.842789 0.395011 0.695188
O9    O     O_3   0.460130 0.338030 0.503750 -0.372766
O10   O     O_3   0.539870 0.838030 0.496250 -0.372939
V1    V     V_3+5 0.507400 0.064560 0.499310 1.445993
V2    V     V_3+5 0.492600 0.564560 0.500690 1.446170
C5    C     C_R   0.144798 0.925834 0.166641 -0.269563
C6    C     C_R   0.855233 0.425590 0.833320 -0.267366
C7    C     C_R   0.355788 0.839508 0.332691 -0.092092
C8    C     C_R   0.644197 0.339764 0.667332 -0.091970
C9    C     C_R   0.292660 0.658511 0.230748 -0.005435
C10   C     C_R   0.707155 0.159483 0.769535 -0.006352
C11   C     C_R   0.346574 0.677660 0.283643 -0.140238
C12   C     C_R   0.653267 0.178582 0.716593 -0.139845
C13   C     C_R   0.310078 0.984836 0.326226 -0.142182
C14   C     C_R   0.690031 0.484490 0.673607 -0.142822
C15   C     C_R   0.254934 0.965750 0.273453 -0.053737
C16   C     C_R   0.745152 0.465428 0.726419 -0.052763
C17   C     C_R   0.245945 0.800492 0.225456 -0.045007
C18   C     C_R   0.753989 0.300836 0.774652 -0.044695
C19   C     C_R   0.190818 0.780716 0.172631 0.563952
C20   C     C_R   0.809086 0.281100 0.827528 0.562017
C21   C     C_R   0.154085 0.087718 0.215729 -0.293262
C22   C     C_R   0.846102 0.586787 0.784002 -0.293287
C23   C     C_R   0.208176 0.107813 0.268350 0.624898
C24   C     C_R   0.792036 0.606846 0.731336 0.624104
H1    H     H_    0.119397 0.201557 0.212758 0.191942
H2    H     H_    0.880897 0.700111 0.786830 0.190379
H3    H     H_    0.287367 0.530979 0.194713 0.183551
H4    H     H_    0.712335 0.032470 0.805746 0.183397
H5    H     H_    0.381043 0.563283 0.286850 0.129560
H6    H     H_    0.618698 0.064694 0.713519 0.129308
H7    H     H_    0.316378 0.109077 0.364212 0.172826
H8    H     H_    0.683842 0.608187 0.635443 0.172575
C25   C     C_R   0.380986 0.883061 0.836681 0.653220
C26   C     C_R   0.619471 0.354042 0.162945 0.653318
H9    H     H_    0.470086 0.865132 0.776371 0.146034
H10   H     H_    0.530403 0.335851 0.223265 0.146511
H11   H     H_    0.300289 0.914307 0.957780 0.191857
H12   H     H_    0.700333 0.370898 0.041555 0.193194
C27   C     C_R   0.389076 0.855889 0.690327 -0.137475
C28   C     C_R   0.611007 0.352933 0.309689 -0.137485
C29   C     C_R   0.077386 0.894045 0.732119 -0.277294
C30   C     C_R   0.922212 0.416443 0.268155 -0.274918
C31   C     C_R   0.111706 0.880911 0.660308 0.515507
C32   C     C_R   0.887687 0.413166 0.339857 0.510225
C33   C     C_R   0.178764 0.871971 0.666229 -0.202206
C34   C     C_R   0.820864 0.395050 0.334124 -0.207197
C35   C     C_R   0.213408 0.883808 0.742266 0.035201
C36   C     C_R   0.786479 0.388671 0.257781 0.036863
C37   C     C_R   0.177627 0.902027 0.814393 0.060958
C38   C     C_R   0.822390 0.396660 0.185430 0.059984
C39   C     C_R   0.282346 0.877064 0.749036 0.034743
C40   C     C_R   0.717688 0.374434 0.250944 0.034711
C41   C     C_R   0.313487 0.888434 0.827919 -0.012296
C42   C     C_R   0.686816 0.368015 0.171798 -0.013206
C43   C     C_R   0.277134 0.905708 0.897415 -0.110419
C44   C     C_R   0.723285 0.375746 0.102115 -0.109874
C45   C     C_R   0.210515 0.912498 0.890879 -0.165988
C46   C     C_R   0.789762 0.389932 0.108700 -0.167814
C47   C     C_R   0.321768 0.860379 0.680519 -0.215493
C48   C     C_R   0.678154 0.366801 0.319615 -0.215848
C49   C     C_R   0.418194 0.867518 0.768383 -0.230853
C50   C     C_R   0.582159 0.346570 0.231375 -0.231310
C51   C     C_R   0.109437 0.906799 0.808582 -0.132649
C52   C     C_R   0.890450 0.410137 0.191372 -0.134264
H13   H     H_    0.302026 0.852491 0.618781 0.118024
H14   H     H_    0.697709 0.371509 0.381500 0.117569
H15   H     H_    0.025389 0.891569 0.729082 0.119406
H16   H     H_    0.974186 0.421821 0.271821 0.121357
H17   H     H_    0.202316 0.855961 0.609438 0.142091
H18   H     H_    0.797296 0.387563 0.391201 0.141762
H19   H     H_    0.184885 0.925800 0.946696 0.120271
H20   H     H_    0.815493 0.395360 0.052741 0.123843
O11   O     O_R   0.950790 0.256670 0.090520 -0.536085
O12   O     O_R   0.049210 0.756670 0.909480 -0.535586
O13   O     O_R   0.927720 0.590370 0.921470 -0.546490
O14   O     O_R   0.072280 0.090370 0.078530 -0.546841
C53   C     C_R   0.909926 0.422805 0.895085 0.765487
C54   C     C_R   0.090077 0.922874 0.104907 0.765452
O15   O     O_R   0.943270 0.586180 0.090640 -0.543071
O16   O     O_R   0.056730 0.086180 0.909360 -0.543247
O17   O     O_R   0.064850 0.759970 0.079840 -0.505289
O18   O     O_R   0.935150 0.259970 0.920160 -0.505651
C55   C     C_R   0.930329 0.417910 0.118994 0.701023
C56   C     C_R   0.069647 0.917354 0.881004 0.702121
O19   O     O_3   0.039850 0.428050 0.996240 -0.363485
O20   O     O_3   0.960150 0.928050 0.003760 -0.363852
V3    V     V_3+5 0.992610 0.701540 0.000700 1.520368
V4    V     V_3+5 0.007390 0.201540 0.999300 1.519313
F1    F     F_    0.183439 0.624598 0.125050 -0.679671
F2    F     F_    0.816313 0.125710 0.875359 -0.680937
O21   O     O_3   0.081991 0.860102 0.583179 -0.555296
C57   C     C_3   0.028960 0.982669 0.571674 -0.217434
H21   H     H_    0.038776 0.125880 0.597163 0.143935
H22   H     H_    0.985457 0.920818 0.597806 0.147698
H23   H     H_    0.018580 0.999154 0.505109 0.177400
O22   O     O_3   0.917690 0.411806 0.417199 -0.554256
C58   C     C_3   0.963481 0.557778 0.425790 -0.202620
H24   H     H_    0.945865 0.692662 0.398207 0.128953
H25   H     H_    0.009620 0.514702 0.399782 0.152608
H26   H     H_    0.973275 0.584243 0.491887 0.185817
F3    F     F_    0.214933 0.267545 0.313596 -0.684378
F4    F     F_    0.785422 0.765930 0.685867 -0.685807
F5    F     F_    0.411210 0.894023 0.911640 -0.655632
F6    F     F_    0.589507 0.347656 0.087731 -0.655640

loop_
_geom_bond_atom_site_label_1
_geom_bond_atom_site_label_2
_ccdc_geom_bond_type
C42   C44   A    
C39   C41   A    
C15   C17   A    
C12   H6    S    
O1    C3    A    
C47   H13   S    
O2    C4    A    
C13   H7    S    
C2    O7    A    
C57   H22   S    
C14   H8    S    
C37   C51   A    
O5    C3    A    
C5    C21   A    
O12   V3    S    
C19   F1    S    
C36   C38   A    
C29   H15   S    
C26   C42   A    
C28   C50   A    
C58   H25   S    
C52   C55   S    
C33   C35   A    
C34   C36   A    
C31   O21   S    
O16   C56   A    
O22   C58   S    
C38   C46   A    
C25   C49   A    
C53   O18   A    
C32   O22   S    
C48   H14   S    
C8    C12   A    
C41   C43   A    
C1    C28   S    
C2    C27   S    
C46   H20   S    
O17   V3    S    
O13   V3    S    
O5    V1    S    
C24   F4    S    
O6    V2    S    
C38   C52   A    
C29   C51   A    
C27   C47   A    
C57   H21   S    
O19   V3    S    
C51   C56   S    
C30   H16   S    
C29   C31   A    
C30   C32   A    
C3    C8    S    
C35   C37   A    
H10   C50   S    
H9    C49   S    
C34   H18   S    
O4    C2    A    
C58   H26   S    
C15   C23   A    
C9    C17   A    
C21   H1    S    
C43   C45   A    
C40   C42   A    
O4    V2    S    
C7    C11   A    
C45   H19   S    
C25   F5    S    
C9    H3    S    
O18   V4    S    
O6    C4    A    
C10   H4    S    
C28   C48   A    
O1    V2    S    
O2    V1    S    
C6    C22   A    
O14   V4    S    
O12   C56   A    
C30   C52   A    
O14   C54   A    
O20   V4    S    
C31   C33   A    
C25   C41   A    
C5    C19   A    
C10   C12   A    
C6    C20   A    
C26   C50   A    
O19   V4    S    
O3    V1    S    
O16   V4    S    
C54   O17   A    
C37   C45   A    
C10   C18   A    
C22   H2    S    
C6    C53   S    
C14   C16   A    
C5    C54   S    
C27   C49   A    
C39   C47   A    
O3    C1    A    
H11   C43   S    
C20   F2    S    
C13   C15   A    
C35   C39   A    
C11   H5    S    
C26   F6    S    
C36   C40   A    
C9    C11   A    
O7    V1    S    
C1    O8    A    
C17   C19   A    
O11   V4    S    
O8    V2    S    
C58   H24   S    
C18   C20   A    
O11   C55   A    
C8    C14   A    
C4    C7    S    
C16   C18   A    
C21   C23   A    
C32   C34   A    
C23   F3    S    
C22   C24   A    
C40   C48   A    
C7    C13   A    
C33   H17   S    
O15   C55   A    
C16   C24   A    
C44   C46   A    
O20   V3    S    
O9    V2    S    
O21   C57   S    
O13   C53   A    
O10   V1    S    
O15   V3    S    
H12   C44   S    
C57   H23   S    
