data_mof_unit_1464.cif
_audit_creation_date              2012-12-11T15:49:37-0500
_audit_creation_method            fapswitch 2.2
_symmetry_space_group_name_H-M    P1
_symmetry_Int_Tables_number       1
_space_group_crystal_system       triclinic
_cell_length_a                    8.39112
_cell_length_b                    19.022172
_cell_length_c                    27.040925
_cell_angle_alpha                 95.986071
_cell_angle_beta                  92.657536
_cell_angle_gamma                 85.574061
_cell_volume                      4276.66725648

loop_
_atom_site_label
_atom_site_type_symbol
_atom_type_description
_atom_site_fract_x
_atom_site_fract_y
_atom_site_fract_z
_atom_type_partial_charge
Ba1   Ba    Ba6+2 0.854000 0.466860 0.523710 1.619368
Ba2   Ba    Ba6+2 0.335820 0.533080 0.476290 1.627398
C1    C     C_3   0.628110 0.232594 0.704959 -0.088953
C2    C     C_3   0.611343 0.286529 0.665063 0.391839
C3    C     C_3   0.592006 0.632176 0.632244 0.333246
C4    C     C_3   0.687520 0.653048 0.680066 -0.323888
C5    C     C_3   0.970585 0.706528 0.348640 0.337960
C6    C     C_3   0.912143 0.749632 0.306173 -0.340050
C7    C     C_3   0.470914 0.709566 0.340850 0.353623
C8    C     C_3   0.409244 0.767131 0.308361 -0.343232
C9    C     C_R   0.007522 0.455698 0.180349 0.591313
C10   C     C_R   0.962673 0.581975 0.183732 0.588899
C11   C     C_2   0.782369 0.558124 0.274552 -0.070746
C12   C     C_3   0.056997 0.314814 0.655619 0.299398
C13   C     C_3   0.752712 0.573728 0.329610 -0.077362
C14   C     C_1   0.987196 0.491659 0.344396 0.040319
C15   C     C_2   0.031616 0.490918 0.297570 -0.095542
C16   C     C_2   0.921665 0.523454 0.259174 0.223971
C17   C     C_R   0.037897 0.514576 0.105217 -0.081172
C18   C     C_R   0.045517 0.452217 0.129451 -0.032827
C19   C     C_R   0.088800 0.387460 0.102085 -0.063769
C20   C     C_R   0.995834 0.579799 0.132703 -0.027298
C21   C     C_2   0.855335 0.526569 0.361464 -0.222562
C22   C     C_2   0.339334 0.482735 0.642958 -0.265151
C23   C     C_3   0.063779 0.295647 0.709936 -0.144846
C24   C     C_R   0.163437 0.444013 0.975712 0.001753
C25   C     C_R   0.085136 0.571548 0.977088 0.027246
C26   C     C_R   0.141756 0.506399 0.950779 0.046691
C27   C     C_R   0.228113 0.381536 0.948754 -0.129422
C28   C     C_R   0.266511 0.379071 0.898691 0.166594
C29   C     C_R   0.240713 0.440304 0.872944 -0.017547
C30   C     C_R   0.177309 0.503810 0.899110 -0.115857
C31   C     C_R   0.149840 0.565076 0.873694 -0.027040
C32   C     C_R   0.185315 0.562571 0.822791 0.585912
C33   C     C_R   0.277515 0.440166 0.821956 0.598136
C34   C     C_3   0.190887 0.317448 0.415666 0.305853
C35   C     C_2   0.442441 0.481643 0.730957 -0.096377
C36   C     C_3   0.484820 0.486638 0.677455 -0.033421
C37   C     C_1   0.204185 0.515618 0.658528 0.025455
C38   C     C_2   0.165360 0.518710 0.705997 -0.125271
C39   C     C_2   0.290115 0.499509 0.745297 0.212663
C40   C     C_R   0.121627 0.446029 0.026711 0.027430
C41   C     C_R   0.072668 0.511803 0.053528 0.050123
C42   C     C_R   0.058121 0.574894 0.029215 0.018872
C43   C     C_R   0.126068 0.384310 0.052096 -0.101106
C44   C     C_R   0.988534 0.641877 0.108734 -0.061944
C45   C     C_3   0.205559 0.237864 0.401043 -0.388023
C46   C     C_R   0.056199 0.631313 0.950010 -0.101297
C47   C     C_R   0.087575 0.628008 0.899676 -0.059506
C48   C     C_R   0.018413 0.639603 0.058314 -0.103284
C49   C     C_R   0.394387 0.298791 0.518995 -0.287428
C50   C     C_R   0.534760 0.276127 0.494713 0.071673
C51   C     C_R   0.583212 0.203424 0.488304 -0.121250
C52   C     C_R   0.491567 0.153465 0.506845 -0.019268
C53   C     C_R   0.347859 0.177488 0.530164 -0.136867
C54   C     C_R   0.298198 0.249770 0.535041 0.038892
C55   C     C_R   0.538372 0.036201 0.542010 -0.077011
C56   C     C_3   0.173887 0.687054 0.624730 0.239257
C57   C     C_R   0.588241 0.963934 0.537420 -0.091341
C58   C     C_R   0.643794 0.929892 0.492103 0.080725
C59   C     C_R   0.645450 0.969877 0.451181 -0.046374
C60   C     C_R   0.597467 0.042499 0.455964 -0.085358
C61   C     C_R   0.543674 0.076490 0.501485 0.063491
C62   C     C_R   0.852500 0.829145 0.468281 0.063577
C63   C     C_R   0.912034 0.757856 0.470833 0.010579
C64   C     C_R   0.671193 0.734411 0.511745 0.056635
C65   C     C_R   0.610759 0.804480 0.508365 -0.161888
C66   C     C_R   0.702565 0.853325 0.488619 0.008877
C67   C     C_3   0.211067 0.707039 0.680109 -0.118261
C68   C     C_R   0.827376 0.713291 0.496611 -0.233478
C69   C     C_3   0.685632 0.369672 0.373128 0.324927
C70   C     C_3   0.644900 0.351208 0.317831 -0.141335
H1    H     H_    0.281825 0.225459 0.368323 0.127956
H2    H     H_    0.260374 0.209749 0.432097 0.064805
H3    H     H_    0.085233 0.218544 0.391557 0.123802
H4    H     H_    0.148224 0.736452 0.606308 0.046014
H5    H     H_    0.275356 0.658096 0.605653 0.067675
H6    H     H_    0.099131 0.727612 0.698894 0.110309
H7    H     H_    0.260381 0.659272 0.697543 0.098158
H8    H     H_    0.816907 0.367644 0.379535 0.020247
H9    H     H_    0.631690 0.423561 0.385168 0.059334
H10   H     H_    0.756103 0.216009 0.711597 0.113411
H11   H     H_    0.675971 0.293792 0.307205 0.102262
H12   H     H_    0.513852 0.361658 0.311012 0.138816
H13   H     H_    0.568342 0.183625 0.691240 0.065237
H14   H     H_    0.481127 0.611193 0.642699 -0.071419
H15   H     H_    0.658618 0.588653 0.610541 0.089782
H16   H     H_    0.613326 0.690052 0.705563 0.119887
H17   H     H_    0.725622 0.605255 0.699129 0.085417
H18   H     H_    0.794842 0.679520 0.671773 0.139048
H19   H     H_    0.154854 0.326066 0.731904 0.131715
H20   H     H_    0.019846 0.653455 0.332954 0.066752
H21   H     H_    0.865166 0.700670 0.370939 -0.084237
H22   H     H_    0.010081 0.752960 0.280545 0.146522
H23   H     H_    0.812202 0.724033 0.284887 0.117372
H24   H     H_    0.868495 0.803928 0.321167 0.089428
H25   H     H_    0.603161 0.709731 0.342899 -0.088010
H26   H     H_    0.425354 0.722798 0.378851 0.088541
H27   H     H_    0.449731 0.819029 0.324780 0.062693
H28   H     H_    0.276930 0.770746 0.305643 0.147267
H29   H     H_    0.936993 0.336600 0.645315 0.121024
H30   H     H_    0.456242 0.755047 0.270448 0.114193
H31   H     H_    0.147325 0.466181 0.286664 0.117585
H32   H     H_    0.094040 0.338357 0.119319 0.119763
H33   H     H_    0.536686 0.469501 0.758301 0.097468
H34   H     H_    0.254509 0.333079 0.965806 0.066378
H35   H     H_    0.154702 0.331950 0.034136 0.068204
H36   H     H_    0.699364 0.582023 0.248043 0.093911
H37   H     H_    0.958675 0.693066 0.128969 0.117715
H38   H     H_    0.005814 0.681673 0.966399 0.066810
H39   H     H_    0.136397 0.358202 0.653361 -0.001736
H40   H     H_    0.063039 0.675683 0.881084 0.117913
H41   H     H_    0.043796 0.534812 0.716558 0.121097
H42   H     H_    0.012647 0.690175 0.043518 0.067901
H43   H     H_    0.830113 0.530723 0.400685 0.057414
H44   H     H_    0.347848 0.456290 0.605485 0.073574
H45   H     H_    0.494163 0.821615 0.522703 0.086481
H46   H     H_    0.586226 0.934804 0.569702 0.066976
H47   H     H_    0.498421 0.061017 0.577624 0.062922
H48   H     H_    0.691331 0.185966 0.468809 0.086911
H49   H     H_    0.683244 0.944932 0.415388 0.076989
H50   H     H_    0.948770 0.312433 0.727659 0.137948
H51   H     H_    0.600097 0.071929 0.423855 0.062174
H52   H     H_    0.273004 0.140082 0.543444 0.081816
H53   H     H_    0.355014 0.354548 0.522889 0.068681
H54   H     H_    0.311731 0.335854 0.424495 0.021142
H55   H     H_    0.115640 0.328578 0.448720 0.055692
N1    N     N_R   0.965171 0.520182 0.207024 -0.422825
N2    N     N_R   0.249228 0.500645 0.797456 -0.427988
O1    O     O_2   0.913240 0.537010 0.617740 -0.454056
O2    O     O_3   0.623793 0.318291 0.398509 -0.659577
O3    O     O_3   0.097398 0.255473 0.621912 -0.633520
O4    O     O_2   0.276450 0.462960 0.382230 -0.445826
O5    O     O_3   0.044470 0.462980 0.442430 -0.502918
O6    O     O_3   0.519740 0.589470 0.411120 -0.469403
O7    O     O_3   0.120760 0.350287 0.375376 -0.634614
O8    O     O_3   0.632420 0.583650 0.524140 -0.496803
O9    O     O_3   0.111040 0.625070 0.435230 -0.485485
O10   O     O_2   0.248508 0.747731 0.461632 -0.487929
O11   O     O_3   0.092320 0.740875 0.376615 -0.604880
O12   O     O_3   0.145240 0.536960 0.557560 -0.483633
O13   O     O_3   0.557280 0.416300 0.475860 -0.483469
O14   O     O_2   0.376710 0.670070 0.522470 -0.459973
O15   O     O_3   0.554649 0.692376 0.606625 -0.635324
O16   O     O_2   0.464674 0.507291 0.326314 -0.470386
O17   O     O_3   0.418435 0.643896 0.320188 -0.578104
O18   O     O_2   0.010310 0.401123 0.200625 -0.609004
O19   O     O_2   0.334389 0.386037 0.799197 -0.604521
O20   O     O_2   0.932727 0.639253 0.207551 -0.623570
O21   O     O_2   0.161648 0.616025 0.801249 -0.611602
O22   O     O_3   0.669960 0.410470 0.588880 -0.484786
O23   O     O_2   0.806662 0.462047 0.673119 -0.494187
O24   O     O_3   0.036418 0.649638 0.618574 -0.662361
O25   O     O_3   0.692616 0.346589 0.684657 -0.617393
O26   O     O_2   0.812980 0.329910 0.477500 -0.462520
O27   O     O_3   0.078660 0.374870 0.564770 -0.492541
O28   O     O_2   0.965706 0.248905 0.532418 -0.484691
P1    P     P_3+3 0.082480 0.557670 0.610090 0.958513
P2    P     P_3+3 0.635220 0.340300 0.462910 0.982733
P3    P     P_3+3 0.107402 0.282344 0.562279 0.925575
P4    P     P_3+3 0.107220 0.442270 0.389900 0.984303
P5    P     P_3+3 0.092994 0.718481 0.437686 0.948568
P6    P     P_3+3 0.655461 0.424696 0.654364 0.917026
P7    P     P_3+3 0.557415 0.671568 0.541701 0.939454
P8    P     P_3+3 0.538632 0.577067 0.346363 0.981222
C71   C     C_3   0.688493 0.249008 0.617831 -0.345199
H56   H     H_    0.693315 0.284817 0.588511 0.148219
H57   H     H_    0.811172 0.226847 0.626342 0.125711
H58   H     H_    0.619327 0.203703 0.602471 0.063639
N3    N     N_3   0.327080 0.760890 0.686781 -0.489530
H59   H     H_    0.271453 0.808355 0.676054 0.174631
H60   H     H_    0.355105 0.770004 0.724882 0.187814
N4    N     N_3   0.731031 0.393062 0.287324 -0.515697
H61   H     H_    0.682251 0.386282 0.251003 0.208597
H62   H     H_    0.849044 0.371066 0.285783 0.204491
C72   C     C_3   0.434822 0.305030 0.654099 -0.331682
H63   H     H_    0.383840 0.338524 0.686334 0.099897
H64   H     H_    0.416253 0.334097 0.620709 0.045133
H65   H     H_    0.373808 0.255353 0.646899 0.099935
N5    N     N_3   0.563506 0.260982 0.752938 -0.467389
H66   H     H_    0.438788 0.265717 0.749661 0.225273
H67   H     H_    0.604417 0.310982 0.763860 0.248008
N6    N     N_3   0.332134 0.313247 0.874395 -0.432077
H68   H     H_    0.437276 0.297775 0.893941 0.175311
H69   H     H_    0.250476 0.274888 0.876373 0.177812
N7    N     N_3   0.946829 0.878119 0.448025 -0.506263
H70   H     H_    0.058726 0.877598 0.466715 0.186051
H71   H     H_    0.962736 0.861539 0.410435 0.189441
C73   C     C_3   0.911681 0.646607 0.512757 -0.225405
H72   H     H_    0.868732 0.635304 0.548456 0.126376
H73   H     H_    0.892134 0.601212 0.484520 0.130163
H74   H     H_    0.040591 0.653150 0.520829 0.133626
N8    N     N_3   0.101373 0.220116 0.714586 -0.478331
H75   H     H_    0.021067 0.190391 0.692142 0.204137
H76   H     H_    0.216328 0.205358 0.702129 0.202731

loop_
_geom_bond_atom_site_label_1
_geom_bond_atom_site_label_2
_ccdc_geom_bond_type
C25   C46   A    
C46   H38   S    
C53   C54   A    
C7    H26   S    
C1    H13   S    
C28   N6    S    
C2    O25   S    
C17   C18   A    
C6    H24   S    
O13   P2    S    
C41   C42   A    
C32   O21   D    
C51   H48   S    
C56   H4    S    
C5    C6    S    
C12   O3    S    
N4    H61   S    
N5    H66   S    
C60   C61   A    
C11   C16   D    
C62   C66   A    
Ba1   P2    S    
Ba1   P1    S    
C35   C36   S    
Ba1   Ba2   S    
N6    H69   S    
C28   C29   A    
C55   C57   A    
N3    H59   S    
O11   P5    S    
C63   C68   A    
C10   C20   A    
C7    O17   S    
C22   C37   D    
C4    H16   S    
C34   C45   S    
C59   H49   S    
C49   C54   A    
O24   P1    S    
Ba1   O26   S    
C60   H51   S    
Ba1   O13   S    
C56   H5    S    
C16   N1    S    
C52   C53   A    
C19   H32   S    
C25   C42   A    
C72   H65   S    
C38   H41   S    
C32   N2    Am   
C17   C41   A    
C14   C15   D    
N8    H76   S    
C63   P5    S    
C22   C36   S    
C72   H63   S    
C7    C8    S    
C33   N2    Am   
C55   H47   S    
Ba1   O27   S    
C14   C21   D    
C50   P2    S    
C13   C21   S    
C64   C65   A    
C57   C58   A    
O15   P7    S    
C71   H57   S    
Ba2   O14   S    
C67   H6    S    
C73   H72   S    
C6    H23   S    
C11   H36   S    
C34   O7    S    
Ba2   P4    S    
C8    H27   S    
C69   H8    S    
N5    H67   S    
C55   C61   A    
C19   C43   A    
O7    P4    S    
N4    H62   S    
C12   H39   S    
C5    H21   S    
C9    C18   A    
C23   H19   S    
Ba2   O4    S    
O26   P2    D    
C65   C66   A    
C49   H53   S    
O25   P6    S    
C26   C30   A    
C17   C20   A    
C6    H22   S    
C45   H1    S    
Ba1   O1    S    
C37   C38   D    
C3    O15   S    
O16   P8    D    
C4    H18   S    
C21   H43   S    
C49   C50   A    
C58   C59   A    
C48   H42   S    
C40   C43   A    
Ba2   O9    S    
C73   H74   S    
O2    P2    S    
C1    N5    S    
N6    H68   S    
C35   H33   S    
C27   C28   A    
C56   O24   S    
O12   P1    S    
C29   C30   A    
O27   P3    S    
C1    H10   S    
C15   C16   S    
O6    P8    S    
C64   P7    S    
O9    P5    S    
Ba2   O5    S    
C70   N4    S    
C8    H28   S    
C65   H45   S    
C67   N3    S    
C70   H12   S    
C24   C27   A    
C47   H40   S    
C3    H14   S    
C38   C39   S    
C20   C44   A    
O17   P8    S    
C22   H44   S    
C57   H46   S    
O22   P6    S    
C11   C13   S    
C37   P1    S    
C2    C72   S    
C71   H56   S    
Ba2   O13   S    
C29   C33   A    
C27   H34   S    
C67   H7    S    
C34   H55   S    
C40   C41   A    
N7    H71   S    
Ba1   O5    S    
O14   P7    D    
C23   N8    S    
Ba1   O8    S    
C50   C51   A    
C24   C40   A    
C23   H50   S    
C42   C48   A    
C2    C71   S    
C53   H52   S    
C36   P6    S    
C7    H25   S    
Ba2   O8    S    
C10   O20   D    
O10   P5    D    
C34   H54   S    
C45   H2    S    
C12   H29   S    
O4    P4    D    
O8    P7    S    
C64   C68   A    
C56   C67   S    
C51   C52   A    
C10   N1    Am   
C14   P4    S    
O28   P3    D    
C4    H17   S    
C44   C48   A    
C24   C26   A    
Ba2   O6    S    
O5    P4    S    
O1    P1    D    
C62   C63   A    
C9    N1    Am   
C15   H31   S    
C45   H3    S    
C69   C70   S    
C54   P3    S    
C30   C31   A    
C39   N2    S    
C9    O18   D    
C3    C4    S    
N3    H60   S    
C46   C47   A    
C5    H20   S    
C8    H30   S    
C72   H64   S    
C31   C32   A    
Ba1   O22   S    
C33   O19   D    
C12   C23   S    
C35   C39   D    
C59   C60   A    
O23   P6    D    
Ba1   O12   S    
C70   H11   S    
C69   O2    S    
C3    H15   S    
C43   H35   S    
C5    O11   S    
C18   C19   A    
C58   C66   S    
C71   H58   S    
N8    H75   S    
C52   C61   S    
C44   H37   S    
C25   C26   A    
Ba2   O12   S    
C13   P8    S    
C73   H73   S    
N7    H70   S    
C31   C47   A    
O3    P3    S    
C62   N7    S    
C1    C2    S    
C68   C73   S    
C69   H9    S    
