data_mof_unit_2070.cif
_audit_creation_date              2012-12-10T18:39:51-0500
_audit_creation_method            fapswitch 2.2
_symmetry_space_group_name_H-M    P1
_symmetry_Int_Tables_number       1
_space_group_crystal_system       triclinic
_cell_length_a                    15.206421
_cell_length_b                    13.828357
_cell_length_c                    23.521334
_cell_angle_alpha                 89.908483
_cell_angle_beta                  89.414491
_cell_angle_gamma                 89.509672
_cell_volume                      4945.61684115

loop_
_atom_site_label
_atom_site_type_symbol
_atom_type_description
_atom_site_fract_x
_atom_site_fract_y
_atom_site_fract_z
_atom_type_partial_charge
C1    C     C_R   0.329636 0.500692 0.500974 0.910487
C2    C     C_R   0.670476 0.499855 0.498611 0.897329
C3    C     C_R   0.504527 0.406368 0.239825 0.538269
C4    C     C_R   0.484223 0.410276 0.760391 0.537210
C5    C     C_R   0.504418 0.410265 0.299266 -0.393476
C6    C     C_R   0.482675 0.414079 0.700961 -0.389817
C7    C     C_R   0.496196 0.499177 0.327931 -0.203078
C8    C     C_R   0.507314 0.498468 0.671685 -0.206949
C9    C     C_R   0.486356 0.585182 0.295794 0.427230
C10   C     C_R   0.536633 0.579318 0.702956 0.447131
C11   C     C_R   0.491591 0.581176 0.236499 -0.278354
C12   C     C_R   0.532931 0.576826 0.762323 -0.270590
C13   C     C_R   0.500112 0.492523 0.208531 0.213056
C14   C     C_R   0.507191 0.492965 0.790978 0.206336
C15   C     C_R   0.095437 0.582506 0.476775 0.355571
C16   C     C_R   0.908292 0.425916 0.467092 0.366964
C17   C     C_R   0.903933 0.580142 0.518630 0.346716
C18   C     C_R   0.092767 0.428523 0.528918 0.306500
C19   C     C_R   0.187147 0.585005 0.481767 0.221715
C20   C     C_R   0.815353 0.422508 0.470887 0.319767
C21   C     C_R   0.812739 0.583021 0.514536 0.233138
C22   C     C_R   0.185468 0.426821 0.528659 0.327577
C23   C     C_R   0.232650 0.503442 0.503102 -0.354216
C24   C     C_R   0.767626 0.501042 0.495085 -0.362266
C25   C     C_R   0.048493 0.504568 0.500271 -0.138104
C26   C     C_R   0.952391 0.503814 0.493651 -0.144012
C27   C     C_R   0.498250 0.500083 0.390754 0.818328
C28   C     C_R   0.502266 0.499854 0.609120 0.805780
C29   C     C_R   0.443216 0.108418 0.535976 -0.292736
C30   C     C_R   0.525007 0.892287 0.451359 -0.292375
C31   C     C_R   0.557025 0.107691 0.464034 -0.290770
C32   C     C_R   0.475948 0.892501 0.548840 -0.289045
C33   C     C_R   0.444597 0.209974 0.535516 0.109121
C34   C     C_R   0.525959 0.790757 0.452568 0.044279
C35   C     C_R   0.555187 0.209254 0.464380 0.108204
C36   C     C_R   0.474839 0.790975 0.547631 0.062194
C37   C     C_R   0.500260 0.054865 0.500056 0.131619
C38   C     C_R   0.500377 0.945564 0.500075 0.144879
C39   C     C_R   0.583275 0.477714 0.880232 0.541072
C40   C     C_R   0.423779 0.503270 0.119229 0.530850
C41   C     C_R   0.427677 0.503849 0.880170 0.598202
C42   C     C_R   0.579252 0.476144 0.119343 0.600247
C43   C     C_R   0.424957 0.503200 0.939792 -0.032059
C44   C     C_R   0.581800 0.475358 0.059706 -0.032739
C45   C     C_R   0.503876 0.489418 0.969746 -0.017226
C46   C     C_R   0.502882 0.489083 0.029740 -0.016657
C47   C     C_R   0.583828 0.476311 0.939847 -0.015119
C48   C     C_R   0.423016 0.502876 0.059626 -0.014912
C49   C     C_R   0.345628 0.516317 0.970031 -0.165630
C50   C     C_R   0.661073 0.461827 0.029457 -0.165315
C51   C     C_R   0.344676 0.516224 0.029345 -0.165654
C52   C     C_R   0.662085 0.462358 0.970133 -0.165493
Cu1   Cu    Cu3+1 0.500000 0.596430 0.500000 0.948703
Cu2   Cu    Cu3+1 0.500000 0.403570 0.500000 0.957869
H1    H     H_    0.284100 0.526974 0.947994 0.185545
H2    H     H_    0.722590 0.451088 0.051495 0.185832
H3    H     H_    0.400901 0.249984 0.563516 0.138082
H4    H     H_    0.547641 0.751968 0.415138 0.171236
H5    H     H_    0.597968 0.248872 0.436098 0.133428
H6    H     H_    0.453886 0.752409 0.585280 0.157683
H7    H     H_    0.282434 0.526833 0.051350 0.185434
H8    H     H_    0.724356 0.451990 0.948124 0.185282
H9    H     H_    0.511891 0.343344 0.322790 0.194321
H10   H     H_    0.460264 0.351353 0.677870 0.188288
H11   H     H_    0.487837 0.647289 0.211872 0.167038
H12   H     H_    0.551895 0.639877 0.786393 0.174249
H13   H     H_    0.396730 0.072722 0.563868 0.132842
H14   H     H_    0.543286 0.928222 0.412181 0.137686
H15   H     H_    0.603554 0.071435 0.436099 0.131265
H16   H     H_    0.458005 0.928623 0.588063 0.136304
N1    N     N_R   0.506013 0.491428 0.851849 -0.433631
N2    N     N_R   0.501107 0.490171 0.147652 -0.435749
N3    N     N_R   0.500000 0.258690 0.500000 -0.177694
N4    N     N_R   0.500000 0.741310 0.500000 -0.180086
O1    O     O_R   0.371460 0.581430 0.500000 -0.563263
O2    O     O_R   0.628540 0.418570 0.500000 -0.546459
O3    O     O_R   0.628540 0.581430 0.500000 -0.566394
O4    O     O_R   0.371460 0.418570 0.500000 -0.548678
O5    O     O_R   0.499970 0.581450 0.417880 -0.567141
O6    O     O_R   0.500030 0.418550 0.582120 -0.596231
O7    O     O_R   0.500030 0.581450 0.582120 -0.575007
O8    O     O_R   0.499970 0.418550 0.417880 -0.603935
O9    O     O_2   0.659144 0.465241 0.850805 -0.572645
O10   O     O_2   0.347959 0.516448 0.148640 -0.565731
O11   O     O_2   0.352883 0.517150 0.850662 -0.542722
O12   O     O_2   0.654149 0.463712 0.148855 -0.540875
O13   O     O_3   0.515328 0.319098 0.211989 -0.561443
C53   C     C_3   0.434579 0.269814 0.213399 -0.311685
H17   H     H_    0.381245 0.313530 0.193496 0.183330
H18   H     H_    0.415733 0.249183 0.257582 0.155102
H19   H     H_    0.442006 0.202169 0.188465 0.194390
O14   O     O_3   0.456600 0.328553 0.789122 -0.566357
C54   C     C_3   0.522980 0.257085 0.784771 -0.313052
H20   H     H_    0.586757 0.283565 0.801354 0.185534
H21   H     H_    0.531126 0.231329 0.740235 0.154740
H22   H     H_    0.503319 0.194116 0.811107 0.195288
O15   O     O_3   0.475214 0.674253 0.321639 -0.619719
C55   C     C_3   0.384578 0.691272 0.332562 0.102596
H23   H     H_    0.379162 0.735482 0.371846 0.179104
H24   H     H_    0.346626 0.623860 0.341201 0.136527
C56   C     C_3   0.343230 0.748360 0.283610 -0.366034
H25   H     H_    0.380666 0.816037 0.276378 0.226193
H26   H     H_    0.345810 0.704739 0.244056 0.234872
C57   C     C_3   0.247409 0.773754 0.296472 -0.916352
H27   H     H_    0.208785 0.706658 0.302548 0.259695
H28   H     H_    0.219381 0.814967 0.260284 0.262084
H29   H     H_    0.242268 0.819033 0.335302 0.247557
O16   O     O_3   0.563981 0.663742 0.676864 -0.615999
C58   C     C_3   0.650308 0.651909 0.654488 0.139710
H30   H     H_    0.659380 0.709889 0.622388 0.170708
H31   H     H_    0.660030 0.582856 0.630801 0.144148
C59   C     C_3   0.721050 0.665010 0.700141 -0.414308
H32   H     H_    0.776605 0.706748 0.681635 0.195957
H33   H     H_    0.694063 0.707346 0.736552 0.238513
C60   C     C_3   0.757562 0.568273 0.721390 -0.817541
H34   H     H_    0.704796 0.523364 0.740263 0.286071
H35   H     H_    0.807732 0.581332 0.754390 0.255699
H36   H     H_    0.788983 0.527617 0.685827 0.224228
O17   O     O_3   0.049121 0.661018 0.454894 -0.570564
C61   C     C_3   0.068517 0.676318 0.396814 0.089951
H37   H     H_    0.088065 0.608729 0.374247 0.133743
H38   H     H_    0.122601 0.729249 0.392818 0.184418
C62   C     C_3   0.986848 0.719487 0.368724 -0.359614
H39   H     H_    0.930768 0.669150 0.373914 0.206084
H40   H     H_    0.968725 0.788586 0.390116 0.225721
C63   C     C_3   0.002377 0.738824 0.305584 -0.911875
H41   H     H_    0.054098 0.794216 0.299739 0.261503
H42   H     H_    0.940684 0.766289 0.286276 0.262263
H43   H     H_    0.022661 0.671302 0.283392 0.262892
O18   O     O_3   0.952509 0.344737 0.445876 -0.561423
C64   C     C_3   0.014544 0.364468 0.401601 0.099633
H44   H     H_    0.033191 0.293464 0.382815 0.169148
H45   H     H_    0.076729 0.393156 0.418278 0.144375
C65   C     C_3   0.980548 0.428786 0.352852 -0.463530
H46   H     H_    0.921229 0.397367 0.333871 0.226974
H47   H     H_    0.963512 0.501796 0.368965 0.215684
C66   C     C_3   0.049696 0.437800 0.305634 -0.878922
H48   H     H_    0.112335 0.465877 0.322627 0.244816
H49   H     H_    0.025464 0.488094 0.272349 0.263505
H50   H     H_    0.062497 0.366108 0.285834 0.259126
O19   O     O_3   0.945704 0.656331 0.545058 -0.553608
C67   C     C_3   0.956300 0.634863 0.603215 0.074086
H51   H     H_    0.009395 0.580077 0.608357 0.111750
H52   H     H_    0.894242 0.607802 0.622932 0.146031
C68   C     C_3   0.983296 0.726767 0.634103 -0.319813
H53   H     H_    0.043989 0.755985 0.613947 0.217300
H54   H     H_    0.930070 0.781967 0.630377 0.218308
C69   C     C_3   0.000718 0.706995 0.696842 -0.929703
H55   H     H_    0.940552 0.679114 0.718127 0.261343
H56   H     H_    0.020103 0.775112 0.718064 0.262326
H57   H     H_    0.054890 0.653208 0.701447 0.258699
O20   O     O_3   0.047708 0.348735 0.549715 -0.542281
C70   C     C_3   0.998300 0.373845 0.599011 0.058230
H58   H     H_    0.938969 0.416565 0.587942 0.133361
H59   H     H_    0.038063 0.416096 0.629635 0.102550
C71   C     C_3   0.966923 0.281496 0.628294 -0.306922
H60   H     H_    0.926681 0.239088 0.598187 0.243629
H61   H     H_    0.024528 0.236569 0.640745 0.208976
C72   C     C_3   0.911624 0.304532 0.681169 -0.921597
H62   H     H_    0.950797 0.346204 0.712157 0.258569
H63   H     H_    0.890165 0.236151 0.701623 0.262258
H64   H     H_    0.852292 0.347261 0.669458 0.255847
O21   O     O_3   0.232494 0.665019 0.462166 -0.601257
C73   C     C_3   0.225613 0.739535 0.503198 0.103614
H65   H     H_    0.265670 0.720587 0.541054 0.142225
H66   H     H_    0.156305 0.752370 0.517347 0.171688
C74   C     C_3   0.259974 0.833413 0.477267 -0.339380
H67   H     H_    0.330079 0.823816 0.464780 0.233582
H68   H     H_    0.221989 0.851195 0.438496 0.209816
C75   C     C_3   0.251217 0.917418 0.518983 -0.912851
H69   H     H_    0.180823 0.931664 0.529216 0.259390
H70   H     H_    0.279686 0.983525 0.499585 0.267630
H71   H     H_    0.286725 0.900832 0.558884 0.248893
O22   O     O_3   0.770227 0.338909 0.456829 -0.563814
C76   C     C_3   0.772259 0.319738 0.397618 0.105309
H72   H     H_    0.731871 0.254514 0.390581 0.141954
H73   H     H_    0.838521 0.297851 0.382815 0.173369
C77   C     C_3   0.733629 0.402448 0.361500 -0.476525
H74   H     H_    0.667479 0.421892 0.378187 0.235215
H75   H     H_    0.775892 0.467404 0.363975 0.200436
C78   C     C_3   0.726055 0.373027 0.299238 -0.805563
H76   H     H_    0.791555 0.353043 0.281381 0.248178
H77   H     H_    0.699167 0.434561 0.274291 0.285552
H78   H     H_    0.681228 0.310506 0.295072 0.263759
O23   O     O_3   0.767717 0.661825 0.536974 -0.597361
C79   C     C_3   0.773070 0.739985 0.498207 0.123669
H79   H     H_    0.731568 0.725331 0.460504 0.135162
H80   H     H_    0.841797 0.752959 0.483299 0.175809
C80   C     C_3   0.739565 0.831794 0.527570 -0.341538
H81   H     H_    0.669215 0.823095 0.539348 0.230381
H82   H     H_    0.777337 0.843585 0.567148 0.217934
C81   C     C_3   0.749408 0.920154 0.489148 -0.913669
H83   H     H_    0.820017 0.933654 0.479869 0.259366
H84   H     H_    0.720952 0.984690 0.510783 0.268397
H85   H     H_    0.714407 0.909079 0.448512 0.250042
O24   O     O_3   0.231687 0.348358 0.550588 -0.567835
C82   C     C_3   0.227236 0.344956 0.610887 0.094161
H86   H     H_    0.272232 0.285965 0.624681 0.145157
H87   H     H_    0.161510 0.322797 0.625920 0.164367
C83   C     C_3   0.256307 0.438719 0.640396 -0.468268
H88   H     H_    0.323807 0.457020 0.626075 0.225844
H89   H     H_    0.211634 0.499743 0.629315 0.197023
C84   C     C_3   0.254701 0.427264 0.704931 -0.810777
H90   H     H_    0.186298 0.415238 0.720226 0.245743
H91   H     H_    0.280074 0.493950 0.725004 0.279882
H92   H     H_    0.296534 0.365104 0.718046 0.274455

loop_
_geom_bond_atom_site_label_1
_geom_bond_atom_site_label_2
_ccdc_geom_bond_type
C84   H90   S    
C54   H20   S    
C82   C83   S    
C14   N1    S    
C40   O10   S    
C10   O16   S    
Cu1   N4    S    
C51   H7    S    
C69   H57   S    
O13   C53   S    
C64   C65   S    
C65   C66   S    
C59   H33   S    
O15   C55   S    
C71   C72   S    
C62   H39   S    
C76   H73   S    
Cu1   Cu2   S    
C15   C19   A    
C84   H91   S    
C30   C38   A    
C73   H66   S    
C56   H25   S    
C17   C26   A    
C32   C36   A    
C35   H5    S    
C71   H60   S    
Cu1   O5    S    
C69   H56   S    
C27   O5    A    
C58   H31   S    
C72   H62   S    
C62   H40   S    
C75   H69   S    
C60   H34   S    
C29   C33   A    
C7    C27   S    
O16   C58   S    
C5    H9    S    
Cu1   O7    S    
C6    H10   S    
C80   H82   S    
C20   C24   A    
O22   C76   S    
C57   H27   S    
C29   H13   S    
C48   C51   A    
C20   O22   S    
O21   C73   S    
C44   C46   A    
C83   H88   S    
C60   H35   S    
C50   C52   A    
C72   H63   S    
C42   O12   S    
C32   C38   A    
C74   C75   S    
C16   O18   S    
C3    C13   A    
C61   C62   S    
C41   N1    A    
C45   C47   A    
C56   H26   S    
C39   N1    A    
C1    O4    A    
C41   C43   A    
C67   C68   S    
C22   O24   S    
Cu1   O1    S    
C18   C25   A    
C42   C44   A    
C18   O20   S    
C10   C12   A    
C57   H28   S    
C59   H32   S    
C68   H54   S    
C61   H38   S    
C68   H53   S    
C76   C77   S    
Cu2   O6    S    
C78   H77   S    
C16   C26   A    
C66   H50   S    
C46   C48   A    
C67   H51   S    
C30   C34   A    
C3    O13   S    
C1    O1    A    
C81   H85   S    
C77   H74   S    
C84   H92   S    
C69   H55   S    
C83   H89   S    
C4    C6    A    
C58   C59   S    
C74   H67   S    
C5    C7    A    
C43   C49   A    
C62   C63   S    
C6    C8    A    
C63   H43   S    
C49   C51   A    
C25   C26   S    
C45   C46   A    
C12   H12   S    
C50   H2    S    
C31   C37   A    
C74   H68   S    
C35   N3    A    
C81   H84   S    
C78   H76   S    
C80   C81   S    
C19   C23   A    
C65   H47   S    
C37   C38   S    
Cu2   N3    S    
C66   H49   S    
C77   H75   S    
C76   H72   S    
C53   H19   S    
C16   C20   A    
C60   H36   S    
C42   N2    A    
C72   H64   S    
C19   O21   S    
C53   H17   S    
C70   C71   S    
C63   H42   S    
C9    C11   A    
C57   H29   S    
C47   C52   A    
C36   N4    A    
C34   N4    A    
Cu2   O2    S    
C33   N3    A    
C12   C14   A    
C1    C23   S    
C56   C57   S    
C55   H24   S    
C2    C24   S    
Cu1   O3    S    
C8    C28   S    
C67   H52   S    
C70   H59   S    
C79   H80   S    
C64   H44   S    
C3    C5    A    
Cu2   O8    S    
C68   C69   S    
C2    O2    A    
C61   H37   S    
C39   C47   A    
C78   H78   S    
C44   C50   A    
C80   H81   S    
C40   C48   A    
C73   H65   S    
C9    O15   S    
C40   N2    A    
C28   O7    A    
C18   C22   A    
C27   O8    A    
C53   H18   S    
O24   C82   S    
C64   H45   S    
C32   H16   S    
O17   C61   S    
C21   O23   S    
C65   H46   S    
C13   N2    S    
C33   H3    S    
C54   H22   S    
C55   C56   S    
C41   O11   S    
C66   H48   S    
C83   C84   S    
C81   H83   S    
C79   C80   S    
C82   H87   S    
O18   C64   S    
C79   H79   S    
C39   O9    S    
C43   C45   A    
C2    O3    A    
C49   H1    S    
C58   H30   S    
C11   C13   A    
O23   C79   S    
C54   H21   S    
C75   H70   S    
C63   H41   S    
C71   H61   S    
O14   C54   S    
C15   O17   S    
C31   C35   A    
C73   C74   S    
C4    C14   A    
C82   H86   S    
C28   O6    A    
C17   O19   S    
C17   C21   A    
C77   C78   S    
C15   C25   A    
C7    C9    A    
C31   H15   S    
O20   C70   S    
C8    C10   A    
C55   H23   S    
C21   C24   A    
C29   C37   A    
C34   H4    S    
C36   H6    S    
C22   C23   A    
C52   H8    S    
Cu2   O4    S    
C70   H58   S    
O19   C67   S    
C59   C60   S    
C30   H14   S    
C11   H11   S    
C4    O14   S    
C75   H71   S    
