data_mof_unit_2407.cif
_audit_creation_date              2012-10-26T20:50:25-0400
_audit_creation_method            fapswitch 2.2
_symmetry_space_group_name_H-M    P1
_symmetry_Int_Tables_number       1
_space_group_crystal_system       triclinic
_cell_length_a                    19.622607
_cell_length_b                    18.294394
_cell_length_c                    10.791007
_cell_angle_alpha                 90.416291
_cell_angle_beta                  89.667129
_cell_angle_gamma                 91.049014
_cell_volume                      3872.98175195

loop_
_atom_site_label
_atom_site_type_symbol
_atom_type_description
_atom_site_fract_x
_atom_site_fract_y
_atom_site_fract_z
_atom_type_partial_charge
C1    C     C_R   0.367503 0.499259 0.498144 0.607419
C2    C     C_R   0.038719 0.569791 0.541678 0.111444
C3    C     C_R   0.071726 0.502170 0.526519 0.083484
C4    C     C_R   0.928396 0.504753 0.551024 0.081020
C5    C     C_R   0.033134 0.436552 0.524899 0.227412
C6    C     C_R   0.962655 0.437832 0.551412 0.227597
C7    C     C_R   0.466686 0.721998 0.409480 0.241908
C8    C     C_R   0.535431 0.723307 0.588240 0.248002
C9    C     C_R   0.461309 0.798726 0.417168 -0.157219
C10   C     C_R   0.542393 0.800070 0.580265 -0.157303
C11   C     C_R   0.502019 0.839880 0.499125 -0.043978
C12   C     C_R   0.632664 0.501027 0.501360 0.540561
C13   C     C_R   0.512658 0.964072 0.611731 0.254522
C14   C     C_R   0.492526 0.963801 0.389404 0.249799
C15   C     C_R   0.500344 0.499771 0.262778 0.584795
C16   C     C_R   0.502456 0.500088 0.737379 0.577542
C17   C     C_R   0.522072 0.040459 0.608568 0.281735
C18   C     C_R   0.483799 0.039950 0.394458 0.267736
C19   C     C_R   0.502997 0.080235 0.502138 -0.046988
C20   C     C_R   0.502405 0.923153 0.500056 -0.082945
C21   C     C_R   0.545874 0.203210 0.420797 0.061577
C22   C     C_R   0.459390 0.201195 0.583870 0.061600
C23   C     C_R   0.811442 0.548092 0.611899 0.262545
C24   C     C_R   0.541821 0.280925 0.418871 0.368885
C25   C     C_R   0.459571 0.279151 0.582241 0.336306
C26   C     C_R   0.503352 0.162884 0.503146 -0.036479
C27   C     C_R   0.452857 0.466215 0.063107 -0.034323
C28   C     C_R   0.454213 0.464806 0.935901 0.005083
C29   C     C_R   0.505246 0.498770 0.129940 -0.007916
C30   C     C_R   0.507193 0.498717 0.870753 -0.047257
C31   C     C_R   0.565821 0.520193 0.067559 0.112872
C32   C     C_R   0.566801 0.521923 0.935616 0.121513
C33   C     C_3   0.378151 0.471186 0.927296 0.483430
C34   C     C_R   0.181833 0.541175 0.425376 0.268309
C35   C     C_3   0.377071 0.474540 0.069832 0.451314
C36   C     C_R   0.748387 0.448304 0.453612 0.083689
C37   C     C_R   0.255312 0.443725 0.567678 0.109873
C38   C     C_R   0.820190 0.456627 0.450057 0.136172
C39   C     C_R   0.184915 0.452022 0.590542 0.134243
C40   C     C_R   0.852448 0.503799 0.537180 0.105941
C41   C     C_R   0.147442 0.499269 0.515208 0.107290
C42   C     C_3   0.671617 0.476088 0.146200 -0.300100
C43   C     C_3   0.667963 0.604932 0.911511 -0.269950
C44   C     C_3   0.483212 0.696997 0.193088 -0.277414
C45   C     C_R   0.743795 0.561253 0.574634 0.072438
C46   C     C_3   0.520152 0.702265 0.804239 -0.292169
C47   C     C_3   0.583371 0.161738 0.214294 -0.281852
C48   C     C_3   0.426294 0.158516 0.791373 -0.259339
C49   C     C_3   0.719557 0.322111 0.486086 -0.259546
C50   C     C_3   0.279891 0.319410 0.519345 -0.265716
C51   C     C_3   0.884240 0.456321 0.258039 -0.315327
C52   C     C_3   0.141661 0.452129 0.800296 -0.306451
C53   C     C_3   0.757590 0.694600 0.620496 -0.319557
C54   C     C_3   0.280759 0.677140 0.427385 -0.302877
C55   C     C_3   0.944976 0.679515 0.681034 -0.243550
C56   C     C_R   0.253504 0.548088 0.429569 0.086447
C57   C     C_3   0.069676 0.689619 0.451596 -0.248247
C58   C     C_R   0.708839 0.503989 0.508866 -0.031175
C59   C     C_R   0.291456 0.497055 0.497700 0.007955
C60   C     C_R   0.966839 0.571230 0.553264 0.104871
Cu1   Cu    Cu3+1 0.500000 0.573360 0.500000 0.998992
Cu2   Cu    Cu3+1 0.500000 0.426640 0.500000 1.101911
H1    H     H_    0.428111 0.825687 0.352955 0.153695
H2    H     H_    0.682337 0.639795 0.832280 0.144232
H3    H     H_    0.391791 0.702023 0.282400 0.231966
H4    H     H_    0.482460 0.754971 0.162992 0.121104
H5    H     H_    0.463677 0.661958 0.116174 0.163315
H6    H     H_    0.536719 0.681822 0.212120 0.156303
H7    H     H_    0.611578 0.703525 0.710007 0.236101
H8    H     H_    0.524152 0.760641 0.833055 0.125308
H9    H     H_    0.537680 0.668330 0.881707 0.143451
H10   H     H_    0.465791 0.687689 0.786565 0.167191
H11   H     H_    0.480260 0.890522 0.726059 0.314637
H12   H     H_    0.576439 0.828153 0.643945 0.150366
H13   H     H_    0.524334 0.891114 0.273423 0.311854
H14   H     H_    0.566317 0.123220 0.691730 0.312656
H15   H     H_    0.441513 0.121898 0.312011 0.318505
H16   H     H_    0.616151 0.120316 0.384191 0.257290
H17   H     H_    0.575143 0.103790 0.185966 0.208837
H18   H     H_    0.628918 0.183153 0.164018 0.132594
H19   H     H_    0.538351 0.193696 0.186388 0.168472
H20   H     H_    0.361920 0.167854 0.638206 0.238313
H21   H     H_    0.428020 0.100686 0.821240 0.218959
H22   H     H_    0.384870 0.185416 0.844312 0.117370
H23   H     H_    0.618655 0.563526 0.219193 0.253913
H24   H     H_    0.475493 0.186256 0.814875 0.170087
H25   H     H_    0.611037 0.293047 0.288395 0.320654
H26   H     H_    0.392101 0.287826 0.715698 0.328612
H27   H     H_    0.384603 0.576826 0.895487 0.312741
H28   H     H_    0.365119 0.369723 0.105209 0.324788
H29   H     H_    0.298714 0.410755 0.896704 0.328346
H30   H     H_    0.308520 0.545749 0.106485 0.351548
H31   H     H_    0.731502 0.371497 0.314606 0.231407
H32   H     H_    0.773262 0.309068 0.507757 0.154815
H33   H     H_    0.695730 0.273260 0.441630 0.153687
H34   H     H_    0.645880 0.430604 0.196640 0.188013
H35   H     H_    0.691686 0.333882 0.573690 0.171901
H36   H     H_    0.277599 0.363975 0.696045 0.272264
H37   H     H_    0.225005 0.304875 0.508103 0.150118
H38   H     H_    0.306246 0.270573 0.553416 0.127998
H39   H     H_    0.302059 0.334375 0.427772 0.186326
H40   H     H_    0.842255 0.363901 0.341932 0.261865
H41   H     H_    0.919182 0.422018 0.202188 0.156942
H42   H     H_    0.912755 0.506397 0.287768 0.150612
H43   H     H_    0.840624 0.471812 0.199275 0.126208
H44   H     H_    0.166571 0.358877 0.699106 0.260174
H45   H     H_    0.717859 0.493934 0.197589 0.131824
H46   H     H_    0.112433 0.417960 0.867402 0.151360
H47   H     H_    0.112573 0.502590 0.783354 0.149261
H48   H     H_    0.191859 0.467151 0.841122 0.157499
H49   H     H_    0.797803 0.581653 0.779727 0.321795
H50   H     H_    0.175141 0.593881 0.269128 0.348124
H51   H     H_    0.681946 0.646004 0.523186 0.280933
H52   H     H_    0.727959 0.745548 0.612405 0.114478
H53   H     H_    0.800501 0.697739 0.553063 0.170002
H54   H     H_    0.776373 0.693550 0.716823 0.161661
H55   H     H_    0.332116 0.596469 0.326186 0.316443
H56   H     H_    0.687531 0.456524 0.052942 0.173824
H57   H     H_    0.323905 0.684862 0.492583 0.166748
H58   H     H_    0.232356 0.681792 0.480467 0.164979
H59   H     H_    0.282272 0.721423 0.357702 0.131412
H60   H     H_    0.931451 0.670638 0.487896 0.229438
H61   H     H_    0.897716 0.707303 0.709626 0.151914
H62   H     H_    0.984827 0.722430 0.668264 0.107841
H63   H     H_    0.960252 0.642640 0.757113 0.178355
H64   H     H_    0.087542 0.656169 0.635850 0.234001
H65   H     H_    0.120276 0.708650 0.417526 0.162564
H66   H     H_    0.042858 0.738017 0.488343 0.104777
H67   H     H_    0.629560 0.532096 0.775479 0.263507
H68   H     H_    0.040731 0.666462 0.371712 0.176166
H69   H     H_    0.030974 0.337160 0.459150 0.334188
H70   H     H_    0.957164 0.337493 0.609557 0.332007
H71   H     H_    0.639684 0.639458 0.978615 0.156928
H72   H     H_    0.715504 0.585872 0.954872 0.158684
N1    N     N_R   0.500000 0.683620 0.500000 -0.183299
N2    N     N_2   0.288348 0.379434 0.606579 -0.438679
N3    N     N_2   0.860151 0.415517 0.364370 -0.481986
N4    N     N_2   0.150984 0.411673 0.686051 -0.482889
N5    N     N_2   0.713743 0.631721 0.593856 -0.524779
N6    N     N_2   0.285439 0.606911 0.365135 -0.525693
N7    N     N_2   0.933005 0.639155 0.566543 -0.480579
N8    N     N_2   0.078607 0.635748 0.548085 -0.492061
N9    N     N_R   0.500000 0.316380 0.500000 -0.204752
N10   N     N_2   0.626083 0.536807 0.135973 -0.522792
N11   N     N_2   0.627719 0.542271 0.869444 -0.496336
N12   N     N_2   0.440610 0.686466 0.302084 -0.448035
N13   N     N_2   0.561428 0.689008 0.694548 -0.447555
N14   N     N_2   0.595434 0.166520 0.346642 -0.551779
N15   N     N_2   0.412482 0.160760 0.659508 -0.527213
N16   N     N_2   0.716597 0.384199 0.403748 -0.480510
O1    O     O_R   0.400190 0.561980 0.499980 -0.501155
O2    O     O_3   0.491408 0.931540 0.273547 -0.650959
O3    O     O_3   0.548430 0.073988 0.713368 -0.648976
O4    O     O_3   0.458350 0.072811 0.289982 -0.647803
O5    O     O_3   0.579983 0.323364 0.338154 -0.655509
O6    O     O_3   0.420188 0.319893 0.662165 -0.609893
O7    O     O_3   0.356200 0.534599 0.866755 -0.686728
O8    O     O_3   0.342695 0.416011 0.129155 -0.687909
O9    O     O_3   0.348103 0.407548 0.877900 -0.669057
O10   O     O_3   0.358480 0.542561 0.118433 -0.714234
O11   O     O_3   0.836843 0.573835 0.722904 -0.705895
O12   O     O_R   0.599810 0.561980 0.500020 -0.527968
O13   O     O_3   0.144255 0.574174 0.334159 -0.704236
O14   O     O_3   0.065194 0.372382 0.492783 -0.699996
O15   O     O_3   0.925775 0.374606 0.577462 -0.701000
O16   O     O_R   0.400190 0.438070 0.500040 -0.427033
O17   O     O_R   0.599810 0.438070 0.499960 -0.443383
O18   O     O_R   0.500000 0.561960 0.319660 -0.489538
O19   O     O_R   0.500000 0.561960 0.680340 -0.475280
O20   O     O_R   0.500000 0.438060 0.319720 -0.455992
O21   O     O_R   0.500000 0.438060 0.680280 -0.443342
O22   O     O_3   0.513644 0.931820 0.726769 -0.651990

loop_
_geom_bond_atom_site_label_1
_geom_bond_atom_site_label_2
_ccdc_geom_bond_type
C38   C40   A    
C21   C26   A    
C34   C56   A    
C23   C45   A    
C8    N1    A    
C54   H58   S    
C27   C29   A    
C14   C18   A    
C44   H4    S    
H49   O11   S    
C47   H17   S    
Cu2   N9    S    
C17   O3    S    
C57   H66   S    
C39   C41   A    
Cu2   O21   S    
C50   H37   S    
C49   N16   S    
C42   H34   S    
H69   O14   S    
C36   C58   A    
C1    C59   S    
C5    C6    A    
C56   N6    S    
C2    C60   A    
H44   N4    S    
C24   N9    A    
C16   C30   S    
C23   C40   A    
H36   N2    S    
H14   O3    S    
C45   N5    S    
C18   C19   A    
C31   N10   S    
C43   H71   S    
C19   C26   S    
C22   N15   S    
C35   O10   S    
C17   C19   A    
C47   N14   S    
C16   O19   A    
C13   O22   S    
C54   N6    S    
C4    C40   S    
C22   C25   A    
C44   N12   S    
H51   N5    S    
C49   H32   S    
C42   H45   S    
H29   O9    S    
C18   O4    S    
C24   O5    S    
H16   N14   S    
C7    N12   S    
C12   C58   S    
Cu2   O17   S    
C6    O15   S    
C9    H1    S    
C48   N15   S    
C25   O6    S    
H31   N16   S    
C25   N9    A    
C34   C41   A    
C47   H18   S    
C12   O17   A    
C48   H21   S    
Cu2   O20   S    
H23   N10   S    
C33   O7    S    
C43   H2    S    
C15   C29   S    
C45   C58   A    
C55   H61   S    
C11   C20   S    
Cu1   O12   S    
C5    O14   S    
C55   H63   S    
C57   H68   S    
H70   O15   S    
C4    C6    A    
C34   O13   S    
C42   H56   S    
C32   N11   S    
C27   C35   S    
C51   H42   S    
C49   H35   S    
H64   N8    S    
C48   H22   S    
C15   O20   A    
H40   N3    S    
H28   O8    S    
C43   H72   S    
C21   N14   S    
C7    N1    A    
C43   N11   S    
C14   C20   A    
C60   N7    S    
C9    C11   A    
C52   N4    S    
C46   N13   S    
C52   H48   S    
H13   O2    S    
C51   H43   S    
C4    C60   A    
C37   N2    S    
C49   H33   S    
H11   O22   S    
Cu1   O1    S    
C46   H9    S    
C37   C59   A    
C51   N3    S    
C8    C10   A    
Cu2   O16   S    
C54   H59   S    
C28   C33   S    
C42   N10   S    
C2    N8    S    
H25   O5    S    
C15   O18   A    
C44   H6    S    
C8    N13   S    
Cu1   O19   S    
H26   O6    S    
C53   H52   S    
Cu1   N1    S    
C7    C9    A    
H50   O13   S    
C55   H62   S    
C3    C41   S    
C13   C20   A    
C57   N8    S    
C53   N5    S    
C46   H10   S    
C55   N7    S    
C31   C32   A    
C3    C5    A    
C57   H65   S    
C53   H54   S    
H27   O7    S    
C52   H47   S    
C50   H38   S    
C56   C59   A    
C13   C17   A    
C39   N4    S    
H30   O10   S    
Cu1   O18   S    
C28   C30   A    
C2    C3    A    
C35   O8    S    
C29   C31   A    
C50   N2    S    
C30   C32   A    
C10   H12   S    
C16   O21   A    
C36   N16   S    
C1    O16   A    
H7    N13   S    
C36   C38   A    
C33   C35   S    
C38   N3    S    
C1    O1    A    
C48   H24   S    
H67   N11   S    
C47   H19   S    
Cu1   Cu2   S    
C46   H8    S    
H20   N15   S    
C10   C11   A    
C12   O12   A    
H55   N6    S    
C33   O9    S    
C52   H46   S    
C50   H39   S    
C37   C39   A    
C22   C26   A    
C21   C24   A    
C14   O2    S    
C27   C28   A    
H15   O4    S    
C44   H5    S    
H60   N7    S    
H3    N12   S    
C54   H57   S    
C51   H41   S    
C53   H53   S    
C23   O11   S    
