data_mof_unit_1531.cif
_audit_creation_date              2012-12-10T16:42:58-0500
_audit_creation_method            fapswitch 2.2
_symmetry_space_group_name_H-M    P1
_symmetry_Int_Tables_number       1
_space_group_crystal_system       triclinic
_cell_length_a                    7.495802
_cell_length_b                    8.682249
_cell_length_c                    13.012774
_cell_angle_alpha                 87.734013
_cell_angle_beta                  80.12629
_cell_angle_gamma                 102.964041
_cell_volume                      810.37837614

loop_
_atom_site_label
_atom_site_type_symbol
_atom_type_description
_atom_site_fract_x
_atom_site_fract_y
_atom_site_fract_z
_atom_type_partial_charge
C1    C     C_R   0.452782 0.199854 0.503129 0.856026
C2    C     C_R   0.547265 0.800179 0.496616 0.881164
C3    C     C_R   0.466949 0.492996 0.701196 0.817816
C4    C     C_R   0.531623 0.498296 0.299279 0.812320
C5    C     C_R   0.548627 0.488692 0.186563 -0.157173
C6    C     C_R   0.446757 0.483712 0.814949 -0.153852
C7    C     C_R   0.254439 0.465304 0.986423 -0.287151
C8    C     C_R   0.740245 0.493130 0.016040 -0.282044
C9    C     C_R   0.268678 0.458219 0.879090 0.485415
C10   C     C_R   0.719529 0.479502 0.124541 0.486269
C11   C     C_R   0.604821 0.497451 0.860773 -0.312465
C12   C     C_R   0.394054 0.486786 0.139879 -0.312726
C13   C     C_R   0.586677 0.492230 0.969213 0.098014
C14   C     C_R   0.411087 0.482124 0.032059 0.103152
C15   C     C_2   0.426558 0.031761 0.504540 -0.367848
C16   C     C_2   0.573588 0.968346 0.494771 -0.376833
Cu1   Cu    Cu3+1 0.686350 0.517570 0.488220 0.966331
Cu2   Cu    Cu3+1 0.313650 0.482430 0.511780 0.966775
H1    H     H_    0.260397 0.487480 0.187224 0.205325
H2    H     H_    0.741283 0.510280 0.812513 0.206702
H3    H     H_    0.120255 0.453186 0.034017 0.201931
H4    H     H_    0.874201 0.499328 0.968756 0.203240
H5    H     H_    0.935176 0.377405 0.583383 0.226420
H6    H     H_    0.064843 0.622560 0.416616 0.230587
H7    H     H_    0.285026 0.959838 0.513768 0.182644
H8    H     H_    0.715132 0.040289 0.485466 0.177949
N1    N     N_2   0.033570 0.455950 0.529530 -0.213597
N2    N     N_2   0.966430 0.544050 0.470470 -0.212262
O1    O     O_R   0.621060 0.286250 0.492350 -0.590318
O2    O     O_R   0.378940 0.713750 0.507650 -0.582306
O3    O     O_R   0.306310 0.256580 0.512240 -0.591633
O4    O     O_R   0.693690 0.743420 0.487760 -0.587223
O5    O     O_R   0.631800 0.512400 0.642670 -0.600834
O6    O     O_R   0.368200 0.487600 0.357330 -0.603042
O7    O     O_R   0.317060 0.482730 0.662570 -0.525248
O8    O     O_R   0.682940 0.517270 0.337430 -0.529638
O9    O     O_3   0.867931 0.459316 0.169172 -0.585940
C17   C     C_3   0.846340 0.295200 0.193182 -0.325062
H9    H     H_    0.849796 0.230038 0.121191 0.142952
H10   H     H_    0.715503 0.242989 0.249991 0.169316
H11   H     H_    0.963992 0.277959 0.230090 0.189990
O10   O     O_3   0.108251 0.434465 0.837117 -0.582519
C18   C     C_3   0.027518 0.270262 0.844848 -0.334843
H12   H     H_    0.981589 0.221612 0.927953 0.151673
H13   H     H_    0.124910 0.204365 0.802310 0.167485
H14   H     H_    0.902205 0.250894 0.807963 0.185060

loop_
_geom_bond_atom_site_label_1
_geom_bond_atom_site_label_2
_ccdc_geom_bond_type
C8    H4    S    
C18   H12   S    
C4    O8    A    
O9    C17   S    
C1    C15   S    
Cu1   O8    S    
H5    N1    S    
C2    C16   S    
C11   C13   A    
Cu2   O7    S    
C3    O7    A    
C2    O2    A    
C3    C6    S    
C6    C9    A    
C1    O1    A    
Cu1   Cu2   S    
C5    C10   A    
C13   C14   A    
C17   H10   S    
C18   H13   S    
C9    O10   S    
C8    C13   A    
Cu1   O5    S    
C5    C12   A    
C10   O9    S    
Cu2   O2    S    
C12   H1    S    
C8    C10   A    
C12   C14   A    
Cu2   O6    S    
C16   H8    S    
C17   H9    S    
C18   H14   S    
C4    O6    A    
C11   H2    S    
C15   H7    S    
O10   C18   S    
C3    O5    A    
C15   C16   D    
C1    O3    A    
Cu1   O1    S    
C17   H11   S    
C2    O4    A    
C6    C11   A    
C7    C9    A    
Cu1   O4    S    
Cu2   O3    S    
C7    H3    S    
Cu1   N2    S    
C7    C14   A    
Cu2   N1    S    
H6    N2    S    
C4    C5    S    
N1    N2    D    
