data_mof_unit_1331.cif
_audit_creation_date              2012-12-10T17:49:36-0500
_audit_creation_method            fapswitch 2.2
_symmetry_space_group_name_H-M    P1
_symmetry_Int_Tables_number       1
_space_group_crystal_system       triclinic
_cell_length_a                    10.528447
_cell_length_b                    10.592254
_cell_length_c                    9.926941
_cell_angle_alpha                 90.027957
_cell_angle_beta                  88.346329
_cell_angle_gamma                 92.202979
_cell_volume                      1105.77317184

loop_
_atom_site_label
_atom_site_type_symbol
_atom_type_description
_atom_site_fract_x
_atom_site_fract_y
_atom_site_fract_z
_atom_type_partial_charge
C1    C     C_R   0.524710 0.264011 0.499827 0.855378
C2    C     C_3   0.966439 0.523714 0.370231 -0.155004
C3    C     C_3   0.042538 0.412010 0.420393 -0.188680
C4    C     C_3   0.122187 0.505393 0.504750 -0.035891
C5    C     C_R   0.593947 0.126120 0.748574 -0.133900
C6    C     C_R   0.564615 0.068002 0.871322 -0.145066
C7    C     C_R   0.494342 0.954365 0.875211 -0.187578
C8    C     C_R   0.462594 0.894168 0.755068 -0.166791
C9    C     C_R   0.506312 0.944932 0.628786 0.098565
C10   C     C_R   0.556272 0.068963 0.626784 0.088188
C11   C     C_R   0.563235 0.133591 0.502752 -0.219364
C12   C     C_R   0.257416 0.501963 0.501811 0.866348
C13   C     C_R   0.577678 0.065920 0.382211 0.169011
C14   C     C_R   0.541852 0.938849 0.383555 -0.220331
C15   C     C_R   0.504318 0.877955 0.504525 -0.189445
C16   C     C_R   0.344465 0.323948 0.145467 -0.226135
C17   C     C_R   0.276239 0.229513 0.079380 -0.237762
C18   C     C_R   0.276314 0.226263 0.939459 0.203554
C19   C     C_R   0.345920 0.320326 0.866198 -0.220610
C20   C     C_R   0.423880 0.411970 0.930483 0.134308
C21   C     C_R   0.423545 0.412789 0.074808 0.169494
C22   C     C_R   0.572848 0.584018 0.069186 -0.132436
C23   C     C_R   0.495015 0.741402 0.501081 0.884500
C24   C     C_R   0.572636 0.584144 0.926166 -0.126530
C25   C     C_R   0.742355 0.503691 0.497971 0.858093
C26   C     C_3   0.031209 0.488614 0.627016 0.187838
C27   C     C_3   0.951204 0.394928 0.543499 0.139871
C28   C     C_3   0.877164 0.505649 0.493941 -0.058610
C29   C     C_3   0.955970 0.600133 0.576544 -0.193290
C30   C     C_3   0.048857 0.617345 0.453449 -0.200897
H1    H     H_    0.464363 0.912857 0.971151 0.138861
H2    H     H_    0.401602 0.810122 0.763656 0.162376
H3    H     H_    0.632484 0.652682 0.120963 0.140642
H4    H     H_    0.332427 0.323895 0.252092 0.222147
H5    H     H_    0.222048 0.159110 0.138382 0.152817
H6    H     H_    0.334775 0.321235 0.759894 0.205367
H7    H     H_    0.915955 0.677336 0.638305 0.142629
H8    H     H_    0.093191 0.708357 0.417224 0.140323
H9    H     H_    0.935634 0.538273 0.265537 0.152918
H10   H     H_    0.592358 0.114493 0.962735 0.148742
N1    N     N_R   0.498800 0.498800 0.142780 -0.115654
N2    N     N_R   0.498760 0.498720 0.857170 -0.117643
O1    O     O_R   0.500000 0.316780 0.614690 -0.638486
O2    O     O_R   0.499990 0.316750 0.385360 -0.645675
O3    O     O_R   0.313960 0.499980 0.614650 -0.635289
O4    O     O_R   0.313940 0.499960 0.385310 -0.629078
O5    O     O_R   0.500010 0.683250 0.614640 -0.625260
O6    O     O_R   0.500000 0.683220 0.385310 -0.617343
O7    O     O_R   0.686060 0.500040 0.614690 -0.627311
O8    O     O_R   0.686040 0.500020 0.385350 -0.627015
Zn1   Zn    Zn3+2 0.500010 0.500020 0.653130 0.910655
Zn2   Zn    Zn3+2 0.499990 0.499980 0.346870 0.917757
C31   C     C_3   0.889676 0.268156 0.589266 -0.411413
C32   C     C_3   0.978261 0.159444 0.565579 -0.889486
H11   H     H_    0.990424 0.140784 0.455972 0.251623
H12   H     H_    0.072571 0.182725 0.607732 0.261244
H13   H     H_    0.936671 0.072494 0.614395 0.258854
H14   H     H_    0.862388 0.273732 0.697753 0.195834
H15   H     H_    0.802663 0.248620 0.531398 0.200962
H16   H     H_    0.546957 0.886691 0.289855 0.175348
C33   C     C_3   0.205447 0.119690 0.869324 -0.399468
C34   C     C_3   0.062485 0.118140 0.901577 -0.899812
H17   H     H_    0.042523 0.101740 0.010681 0.256207
H18   H     H_    0.021570 0.208500 0.872195 0.262355
H19   H     H_    0.014658 0.040150 0.845331 0.255933
H20   H     H_    0.222262 0.125620 0.758593 0.194985
H21   H     H_    0.242614 0.028483 0.902536 0.216105
H22   H     H_    0.632039 0.652937 0.870725 0.153294
C35   C     C_3   0.059665 0.469233 0.775454 -0.399184
C36   C     C_3   0.114597 0.588660 0.841882 -0.842773
H23   H     H_    0.198661 0.628286 0.784400 0.273660
H24   H     H_    0.041641 0.661496 0.849036 0.240869
H25   H     H_    0.143881 0.565794 0.945371 0.249873
H26   H     H_    0.970195 0.439893 0.830757 0.195624
H27   H     H_    0.126239 0.392072 0.782557 0.219985
H28   H     H_    0.082243 0.336475 0.356011 0.141281
C37   C     C_3   0.632491 0.126209 0.253623 -0.370629
C38   C     C_3   0.743864 0.054202 0.193213 -0.931702
H29   H     H_    0.815582 0.038746 0.270896 0.271407
H30   H     H_    0.710869 0.961881 0.151369 0.255935
H31   H     H_    0.790244 0.110252 0.109648 0.251745
H32   H     H_    0.555296 0.131441 0.180667 0.204294
H33   H     H_    0.671215 0.223323 0.272355 0.233569
H34   H     H_    0.646161 0.215996 0.749705 0.150176

loop_
_geom_bond_atom_site_label_1
_geom_bond_atom_site_label_2
_ccdc_geom_bond_type
C16   C21   A    
C24   N2    A    
C19   C20   A    
C1    C11   S    
C31   H15   S    
C7    C8    A    
C31   C32   S    
C25   C28   S    
C26   C27   S    
C34   H17   S    
C28   C29   S    
C19   H6    S    
C5    C6    A    
C38   H30   S    
C22   N1    A    
O3    Zn1   S    
O4    Zn2   S    
C30   H8    S    
C18   C19   A    
C25   O8    A    
C34   H18   S    
C16   H4    S    
C2    H9    S    
C1    O1    A    
C16   C17   A    
O7    Zn1   S    
O8    Zn2   S    
C36   H23   S    
C4    C12   S    
C9    C10   A    
N1    Zn2   S    
N2    Zn1   S    
O2    Zn2   S    
C15   C23   S    
C13   C14   A    
C33   C34   S    
C33   H20   S    
C13   C37   S    
C32   H12   S    
C7    H1    S    
C8    H2    S    
C23   O5    A    
C12   O4    A    
C5    H34   S    
C38   H29   S    
C8    C9    A    
O5    Zn1   S    
C37   C38   S    
C29   C30   S    
C33   H21   S    
C1    O2    A    
C20   N2    A    
C36   H25   S    
C17   C18   A    
C35   H26   S    
C3    H28   S    
C21   N1    A    
C22   C24   A    
C3    C4    S    
C22   H3    S    
C32   H11   S    
C23   O6    A    
C34   H19   S    
C12   O3    A    
C4    C26   S    
C31   H14   S    
C27   C31   S    
C18   C33   S    
C6    C7    A    
C14   H16   S    
C2    C30   S    
C3    C27   S    
C2    C3    S    
C9    C15   A    
C5    C10   A    
C11   C13   A    
C38   H31   S    
O1    Zn1   S    
C37   H32   S    
C35   H27   S    
C6    H10   S    
C35   C36   S    
C25   O7    A    
C2    C28   S    
C10   C11   A    
C24   H22   S    
O6    Zn2   S    
C20   C21   A    
C26   C29   S    
C29   H7    S    
C27   C28   S    
C26   C35   S    
C37   H33   S    
C14   C15   A    
C36   H24   S    
C17   H5    S    
C4    C30   S    
C32   H13   S    
