data_mof_unit_2159.cif
_audit_creation_date              2012-12-10T18:05:48-0500
_audit_creation_method            fapswitch 2.2
_symmetry_space_group_name_H-M    P1
_symmetry_Int_Tables_number       1
_space_group_crystal_system       triclinic
_cell_length_a                    12.588823
_cell_length_b                    13.137866
_cell_length_c                    14.996863
_cell_angle_alpha                 90.561531
_cell_angle_beta                  102.689443
_cell_angle_gamma                 82.308299
_cell_volume                      2397.48876811

loop_
_atom_site_label
_atom_site_type_symbol
_atom_type_description
_atom_site_fract_x
_atom_site_fract_y
_atom_site_fract_z
_atom_type_partial_charge
C1    C     C_R   0.438732 0.691189 0.485866 0.855018
C2    C     C_R   0.600360 0.496189 0.833696 -0.256971
C3    C     C_R   0.501065 0.500136 0.769281 -0.071749
C4    C     C_R   0.500480 0.500591 0.673117 0.889136
C5    C     C_R   0.401566 0.501026 0.796526 -0.224605
C6    C     C_R   0.702197 0.064127 0.436055 -0.196652
C7    C     C_R   0.596782 0.200122 0.501616 -0.048609
C8    C     C_R   0.299649 0.838238 0.498568 -0.189222
C9    C     C_R   0.271062 0.943032 0.506860 -0.144569
C10   C     C_R   0.344771 0.010289 0.498081 -0.189851
C11   C     C_R   0.446995 0.973477 0.476208 0.085183
C12   C     C_R   0.398948 0.489420 0.074050 -0.016187
C13   C     C_R   0.467464 0.869503 0.453742 0.083083
C14   C     C_R   0.529646 0.036289 0.475863 0.077513
C15   C     C_R   0.622258 0.000087 0.439165 0.172692
C16   C     C_R   0.561131 0.308745 0.509345 0.865703
C17   C     C_R   0.632559 0.901336 0.404759 -0.248945
C18   C     C_R   0.556141 0.836646 0.411897 -0.195289
C19   C     C_R   0.523510 0.133807 0.512714 -0.254634
C20   C     C_R   0.688414 0.164918 0.465730 -0.202889
C21   C     C_R   0.399371 0.800762 0.475103 -0.111344
C22   C     C_R   0.087570 0.346349 0.373550 -0.306988
C23   C     C_R   0.699316 0.485633 0.083592 -0.217534
C24   C     C_R   0.799816 0.630312 0.607950 0.021477
C25   C     C_R   0.904535 0.658949 0.629928 -0.243072
C26   C     C_R   0.985970 0.609696 0.589021 -0.201061
C27   C     C_R   0.962735 0.530872 0.525680 0.017264
C28   C     C_R   0.499633 0.498817 0.326907 0.870449
C29   C     C_R   0.854650 0.504340 0.505952 0.240772
C30   C     C_R   0.041817 0.477614 0.481223 -0.012484
C31   C     C_R   0.011147 0.399532 0.418169 0.199411
C32   C     C_R   0.904673 0.374886 0.400452 -0.305952
C33   C     C_R   0.827918 0.426341 0.444034 -0.225055
C34   C     C_R   0.699726 0.488023 0.991138 -0.214163
C35   C     C_R   0.150876 0.498174 0.496651 -0.053181
C36   C     C_R   0.193883 0.370450 0.391887 0.007994
C37   C     C_R   0.400342 0.494500 0.167051 -0.245405
C38   C     C_R   0.499660 0.494074 0.230874 -0.066382
C39   C     C_R   0.599185 0.488686 0.203326 -0.260643
C40   C     C_R   0.599948 0.487162 0.111364 0.145157
C41   C     C_R   0.499709 0.488885 0.046368 0.016643
C42   C     C_R   0.600763 0.492081 0.926092 0.136385
C43   C     C_R   0.500378 0.492026 0.953662 0.060360
C44   C     C_R   0.400614 0.496601 0.888403 0.017070
C45   C     C_R   0.301443 0.495565 0.915448 -0.222084
C46   C     C_R   0.299563 0.489146 0.007541 0.434882
H1    H     H_    0.324553 0.502126 0.190726 0.173489
H2    H     H_    0.880500 0.315224 0.352748 0.153458
H3    H     H_    0.065369 0.286659 0.325329 0.146215
H4    H     H_    0.676124 0.487101 0.253316 0.163645
H5    H     H_    0.182029 0.555430 0.543373 0.121537
H6    H     H_    0.736035 0.668529 0.639241 0.142898
H7    H     H_    0.065677 0.634992 0.608246 0.133852
H8    H     H_    0.922518 0.719298 0.678359 0.154620
H9    H     H_    0.748034 0.403213 0.427933 0.210480
H10   H     H_    0.776405 0.483709 0.133369 0.153666
H11   H     H_    0.777078 0.487586 0.970513 0.158312
H12   H     H_    0.700724 0.873419 0.373749 0.152353
H13   H     H_    0.677249 0.495185 0.812079 0.163779
H14   H     H_    0.324564 0.504778 0.746264 0.158272
H15   H     H_    0.225048 0.497487 0.864739 0.171861
H16   H     H_    0.745798 0.216186 0.456444 0.149712
H17   H     H_    0.211540 0.439024 0.084142 0.325165
H18   H     H_    0.772649 0.037612 0.407397 0.136756
H19   H     H_    0.459312 0.162003 0.547536 0.150513
H20   H     H_    0.245432 0.786354 0.513380 0.151750
H21   H     H_    0.318475 0.090709 0.506453 0.135541
H22   H     H_    0.193536 0.971924 0.524032 0.143602
H23   H     H_    0.566516 0.761017 0.383244 0.174744
H24   H     H_    0.254433 0.329933 0.358418 0.136512
N1    N     N_R   0.222190 0.444670 0.452360 -0.102352
N2    N     N_R   0.776970 0.554790 0.547140 -0.132978
O1    O     O_R   0.366740 0.627160 0.477250 -0.615036
O2    O     O_R   0.544830 0.662520 0.507680 -0.618422
O3    O     O_R   0.410940 0.482340 0.616930 -0.625684
O4    O     O_R   0.589030 0.517700 0.647360 -0.621712
O5    O     O_R   0.455170 0.337480 0.492320 -0.615054
O6    O     O_R   0.633260 0.372840 0.522750 -0.634795
O7    O     O_R   0.410970 0.482300 0.352640 -0.620850
O8    O     O_R   0.589060 0.517660 0.383070 -0.648170
O9    O     O_3   0.199382 0.483429 0.028954 -0.768158
Zn1   Zn    Zn3+2 0.381090 0.476390 0.479680 0.940728
Zn2   Zn    Zn3+2 0.618910 0.523610 0.520320 0.929076

loop_
_geom_bond_atom_site_label_1
_geom_bond_atom_site_label_2
_ccdc_geom_bond_type
C33   H9    S    
C1    C21   S    
C27   C29   A    
C32   H2    S    
C34   C42   A    
O2    Zn2   S    
C23   H10   S    
C45   C46   A    
C8    H20   S    
C26   C27   A    
C37   C38   A    
C13   C18   A    
H17   O9    S    
C1    O2    A    
C24   H6    S    
C30   C31   A    
C11   C14   A    
C23   C40   A    
C29   C33   A    
C16   O5    A    
C6    H18   S    
C12   C37   A    
C28   O7    A    
C4    O3    A    
C6    C15   A    
O6    Zn2   S    
C8    C9    A    
C34   H11   S    
C37   H1    S    
C9    C10   A    
C36   N1    A    
C17   H12   S    
N1    Zn1   S    
C18   H23   S    
C35   N1    A    
C27   C30   A    
C41   C43   A    
O8    Zn2   S    
O4    Zn2   S    
C36   H24   S    
C8    C21   A    
C22   C31   A    
C25   H8    S    
C12   C46   A    
C39   C40   A    
C2    H13   S    
C25   C26   A    
C10   H21   S    
C43   C44   A    
C12   C41   A    
C46   O9    S    
C31   C32   A    
C28   C38   S    
C23   C34   A    
C17   C18   A    
C13   C21   A    
C24   C25   A    
C22   H3    S    
C30   C35   A    
C7    C16   S    
C5    C44   A    
C7    C19   A    
C35   H5    S    
C42   C43   A    
C3    C4    S    
C26   H7    S    
O1    Zn1   S    
C22   C36   A    
C44   C45   A    
C24   N2    A    
C15   C17   A    
C40   C41   A    
C5    H14   S    
C14   C19   A    
C3    C5    A    
O7    Zn1   S    
O3    Zn1   S    
C6    C20   A    
C1    O1    A    
C32   C33   A    
C29   N2    A    
C2    C3    A    
C9    H22   S    
C11   C13   A    
C38   C39   A    
O5    Zn1   S    
C2    C42   A    
C45   H15   S    
C19   H19   S    
C16   O6    A    
C20   H16   S    
C28   O8    A    
C4    O4    A    
N2    Zn2   S    
C10   C11   A    
C39   H4    S    
C7    C20   A    
C14   C15   A    
