data_mof_unit_1822.cif
_audit_creation_date              2012-12-10T20:36:39-0500
_audit_creation_method            fapswitch 2.2
_symmetry_space_group_name_H-M    P1
_symmetry_Int_Tables_number       1
_space_group_crystal_system       triclinic
_cell_length_a                    10.537753
_cell_length_b                    10.737265
_cell_length_c                    9.951578
_cell_angle_alpha                 89.50426
_cell_angle_beta                  89.794926
_cell_angle_gamma                 91.757845
_cell_volume                      1125.40733526

loop_
_atom_site_label
_atom_site_type_symbol
_atom_type_description
_atom_site_fract_x
_atom_site_fract_y
_atom_site_fract_z
_atom_type_partial_charge
C1    C     C_R   0.508562 0.260974 0.499774 0.935265
C2    C     C_3   0.956725 0.615501 0.466108 -0.390060
C3    C     C_3   0.040687 0.534676 0.377144 0.724917
C4    C     C_3   0.123172 0.506298 0.499257 -0.347344
C5    C     C_R   0.520983 0.064024 0.618509 -0.024464
C6    C     C_R   0.533054 0.130628 0.498439 -0.212336
C7    C     C_R   0.562360 0.067136 0.378158 -0.189371
C8    C     C_R   0.547505 0.937824 0.378526 0.663311
C9    C     C_R   0.519014 0.872821 0.498823 -0.198756
C10   C     C_R   0.518795 0.936682 0.620056 -0.179106
C11   C     C_3   0.424928 0.929707 0.733966 -0.262035
C12   C     C_R   0.257970 0.504729 0.499914 1.009260
C13   C     C_3   0.425067 0.071112 0.728982 0.546407
C14   C     C_R   0.431066 0.411837 0.072447 0.095427
C15   C     C_R   0.582787 0.576221 0.070430 -0.013463
C16   C     C_R   0.587523 0.569953 0.925950 -0.002787
C17   C     C_R   0.426063 0.416505 0.931248 0.169194
C18   C     C_3   0.284257 0.398163 0.933467 0.417308
C19   C     C_3   0.292417 0.384116 0.085495 -0.490528
C20   C     C_R   0.501751 0.740133 0.499493 0.903683
C21   C     C_R   0.742008 0.497069 0.499934 0.900645
C22   C     C_3   0.042713 0.388033 0.532800 -0.447185
C23   C     C_3   0.959252 0.417675 0.410025 -0.150555
C24   C     C_3   0.876602 0.497135 0.499669 -0.310022
C25   C     C_3   0.958901 0.469142 0.621726 0.675380
C26   C     C_3   0.040349 0.585889 0.588418 0.564737
H1    H     H_    0.462067 0.119784 0.819711 0.109978
H2    H     H_    0.243826 0.456597 0.142734 0.257458
H3    H     H_    0.272518 0.287381 0.122242 0.250736
H4    H     H_    0.080820 0.296061 0.560620 0.254365
H5    H     H_    0.918519 0.707547 0.438828 0.201463
H6    H     H_    0.332430 0.883879 0.706771 0.264145
N1    N     N_R   0.499140 0.499140 0.142800 -0.149470
N2    N     N_R   0.499140 0.499180 0.857150 -0.161482
O1    O     O_R   0.500020 0.316790 0.614690 -0.585905
O2    O     O_R   0.500000 0.316760 0.385350 -0.656974
O3    O     O_R   0.313960 0.499990 0.614650 -0.573392
O4    O     O_R   0.313940 0.499950 0.385310 -0.595326
O5    O     O_R   0.500000 0.683240 0.614650 -0.646025
O6    O     O_R   0.499980 0.683210 0.385310 -0.586719
O7    O     O_R   0.686060 0.500050 0.614690 -0.607544
O8    O     O_R   0.686040 0.500010 0.385350 -0.679528
Zn1   Zn    Zn3+2 0.500010 0.500020 0.653130 1.036131
Zn2   Zn    Zn3+2 0.499990 0.499980 0.346870 0.989637
C27   C     C_2   0.912828 0.321726 0.312434 0.530748
H7    H     H_    0.864030 0.237921 0.349435 0.016096
O9    O     O_2   0.930886 0.336423 0.192088 -0.488213
C28   C     C_2   0.482218 0.881586 0.861546 0.480267
H8    H     H_    0.580372 0.904873 0.886055 0.113260
O10   O     O_2   0.418010 0.818332 0.939961 -0.438156
F1    F     F_    0.310530 0.114609 0.682992 -0.578427
C29   C     C_2   0.663138 0.671437 0.140911 0.648914
H9    H     H_    0.684515 0.663972 0.245275 0.113668
O11   O     O_2   0.704033 0.765208 0.083196 -0.512994
C30   C     C_2   0.690826 0.635465 0.850131 0.598505
H10   H     H_    0.671256 0.692024 0.763221 0.060129
O12   O     O_2   0.801166 0.625807 0.884725 -0.460087
C31   C     C_2   0.207574 0.508563 0.893658 0.560421
H11   H     H_    0.105039 0.498523 0.891091 0.180194
O13   O     O_2   0.258043 0.610122 0.869442 -0.475256
F2    F     F_    0.244430 0.289392 0.870985 -0.585539
F3    F     F_    0.913221 0.433345 0.746968 -0.594431
F4    F     F_    0.083855 0.674251 0.678599 -0.585066
F5    F     F_    0.083227 0.572111 0.251336 -0.613532
C32   C     C_2   0.605239 0.132188 0.252016 0.557123
H12   H     H_    0.657792 0.220287 0.256343 0.053946
O14   O     O_2   0.582941 0.088180 0.141521 -0.490274
F6    F     F_    0.554496 0.877099 0.260394 -0.600366

loop_
_geom_bond_atom_site_label_1
_geom_bond_atom_site_label_2
_ccdc_geom_bond_type
O3    Zn1   S    
C4    C26   S    
C23   C24   S    
C18   F2    S    
O4    Zn2   S    
C6    C7    A    
C23   C27   S    
C7    C32   S    
O1    Zn1   S    
C9    C10   A    
C2    H5    S    
C9    C20   S    
C5    C13   S    
C26   F4    S    
C30   H10   S    
C28   O10   D    
C2    C3    S    
C31   H11   S    
C16   C30   S    
C15   C29   S    
C5    C10   A    
C2    C26   S    
C30   O12   D    
C3    F5    S    
C29   H9    S    
C32   H12   S    
C12   O4    A    
C19   H2    S    
O7    Zn1   S    
C14   C17   A    
C11   C28   S    
O8    Zn2   S    
C14   N1    A    
C21   O7    A    
C15   C16   A    
C28   H8    S    
C15   N1    A    
C11   H6    S    
C8    F6    S    
C25   F3    S    
C27   O9    D    
C2    C24   S    
C5    C6    A    
C20   O6    A    
O2    Zn2   S    
C11   C13   S    
C4    C12   S    
C10   C11   S    
C31   O13   D    
C3    C4    S    
C19   H3    S    
C27   H7    S    
O6    Zn2   S    
C4    C22   S    
C24   C25   S    
C1    O1    A    
C17   C18   S    
C18   C19   S    
C17   N2    A    
C21   C24   S    
C12   O3    A    
C20   O5    A    
C7    C8    A    
C22   C23   S    
C13   H1    S    
O5    Zn1   S    
C22   H4    S    
C16   N2    A    
C25   C26   S    
C13   F1    S    
N1    Zn2   S    
C3    C23   S    
C14   C19   S    
C18   C31   S    
N2    Zn1   S    
C21   O8    A    
C1    O2    A    
C29   O11   D    
C8    C9    A    
C32   O14   D    
C22   C25   S    
C1    C6    S    
