data_mof_unit_3114.cif
_audit_creation_date              2012-12-10T16:48:11-0500
_audit_creation_method            fapswitch 2.2
_symmetry_space_group_name_H-M    P1
_symmetry_Int_Tables_number       1
_space_group_crystal_system       triclinic
_cell_length_a                    15.85448
_cell_length_b                    8.699829
_cell_length_c                    7.612055
_cell_angle_alpha                 102.59482
_cell_angle_beta                  96.435583
_cell_angle_gamma                 95.040906
_cell_volume                      1011.36730637

loop_
_atom_site_label
_atom_site_type_symbol
_atom_type_description
_atom_site_fract_x
_atom_site_fract_y
_atom_site_fract_z
_atom_type_partial_charge
C1    C     C_R   0.496611 0.200239 0.453656 0.863607
C2    C     C_R   0.503388 0.799761 0.546344 0.863607
C3    C     C_R   0.340164 0.498835 0.498555 0.807079
C4    C     C_R   0.659836 0.501165 0.501445 0.807080
C5    C     C_2   0.492562 0.031730 0.428596 -0.369677
C6    C     C_2   0.507438 0.968270 0.571404 -0.369677
C7    C     C_3   0.963951 0.351754 0.491271 -0.259227
C8    C     C_3   0.036048 0.648247 0.508726 -0.259232
C9    C     C_3   0.014659 0.401421 0.344455 -0.318759
C10   C     C_3   0.985341 0.598579 0.655543 -0.318758
C11   C     C_1   0.250292 0.498249 0.495891 -0.177598
C12   C     C_1   0.749707 0.501752 0.504109 -0.177601
C13   C     C_3   0.033404 0.450439 0.641260 0.593255
C14   C     C_3   0.966596 0.549561 0.358737 0.593251
C15   C     C_3   0.083127 0.498769 0.497113 0.037948
C16   C     C_3   0.916873 0.501231 0.502885 0.037950
C17   C     C_1   0.174701 0.498200 0.495501 -0.023512
C18   C     C_1   0.825298 0.501800 0.504498 -0.023520
Cu1   Cu    Cu3+1 0.509330 0.517380 0.684380 0.930572
Cu2   Cu    Cu3+1 0.490670 0.482620 0.315620 0.930571
H1    H     H_    0.027765 0.321252 0.218119 0.170301
H2    H     H_    0.972236 0.678747 0.781879 0.170302
H3    H     H_    0.933859 0.230734 0.487510 0.165113
H4    H     H_    0.066141 0.769266 0.512487 0.165114
H5    H     H_    0.476209 0.959521 0.291399 0.165314
H6    H     H_    0.523791 0.040479 0.708601 0.165314
N1    N     N_2   0.476600 0.456420 0.038510 -0.072948
N2    N     N_2   0.523400 0.543580 0.961490 -0.072948
O1    O     O_R   0.506070 0.286130 0.619780 -0.609689
O2    O     O_R   0.493930 0.713870 0.380220 -0.609688
O3    O     O_R   0.490300 0.256770 0.308360 -0.590039
O4    O     O_R   0.509700 0.743230 0.691640 -0.590039
O5    O     O_R   0.386960 0.514660 0.655680 -0.594656
O6    O     O_R   0.613040 0.485340 0.344320 -0.594657
O7    O     O_R   0.371190 0.485310 0.344260 -0.576394
O8    O     O_R   0.628810 0.514690 0.655740 -0.576393
O9    O     O_3   0.931708 0.613697 0.215240 -0.585618
C19   C     C_3   0.884890 0.491927 0.076657 -0.334857
H7    H     H_    0.834833 0.423124 0.128834 0.169542
H8    H     H_    0.927973 0.411794 0.007475 0.192228
H9    H     H_    0.852202 0.546505 0.973073 0.193275
O10   O     O_3   0.068292 0.386302 0.784754 -0.585616
C20   C     C_3   0.115105 0.508071 0.923344 -0.334863
H10   H     H_    0.072015 0.588175 0.992545 0.192247
H11   H     H_    0.165151 0.576906 0.871171 0.169535
H12   H     H_    0.147807 0.453494 0.026910 0.193274
C21   C     C_3   0.426967 0.310604 0.930647 -0.050210
C22   C     C_3   0.342479 0.273461 0.999436 -0.816248
H13   H     H_    0.351848 0.230228 0.125607 0.266798
H14   H     H_    0.306722 0.378771 0.018328 0.256512
H15   H     H_    0.302306 0.176429 0.896710 0.203302
H16   H     H_    0.405406 0.318200 0.793466 0.214202
H17   H     H_    0.465392 0.210063 0.929932 0.150385
C23   C     C_3   0.573033 0.689395 0.069353 -0.050210
C24   C     C_3   0.657521 0.726538 0.000563 -0.816249
H18   H     H_    0.693278 0.621228 0.981669 0.256514
H19   H     H_    0.648152 0.769775 0.874395 0.266797
H20   H     H_    0.697695 0.823568 0.103291 0.203302
H21   H     H_    0.534609 0.789938 0.070068 0.150385
H22   H     H_    0.594593 0.681800 0.206534 0.214202

loop_
_geom_bond_atom_site_label_1
_geom_bond_atom_site_label_2
_ccdc_geom_bond_type
C1    O3    A    
C21   H16   S    
C9    C14   S    
C4    O8    A    
C24   H19   S    
O9    C19   S    
C23   H22   S    
Cu2   N1    S    
C4    C12   S    
Cu1   Cu2   S    
C7    H3    S    
C3    O7    A    
C20   H10   S    
Cu2   O6    S    
C24   H18   S    
C1    O1    A    
C9    C15   S    
N2    C23   S    
C16   C18   S    
Cu2   O2    S    
C10   H2    S    
C14   O9    S    
C19   H8    S    
Cu1   N2    S    
C20   H11   S    
C9    H1    S    
C6    H6    S    
C2    C6    S    
C5    H5    S    
C21   H17   S    
C19   H7    S    
C22   H14   S    
C13   O10   S    
C8    H4    S    
C8    C15   S    
C14   C16   S    
C23   H21   S    
C13   C15   S    
C4    O6    A    
C5    C6    D    
C20   H12   S    
C1    C5    S    
C22   H15   S    
C3    C11   S    
O10   C20   S    
Cu1   O4    S    
C12   C18   T    
Cu1   O1    S    
C7    C9    S    
C7    C13   S    
C2    O2    A    
C19   H9    S    
C2    O4    A    
Cu1   O5    S    
C24   H20   S    
N1    C21   S    
N1    N2    D    
C10   C16   S    
C3    O5    A    
C23   C24   S    
C22   H13   S    
C8    C14   S    
Cu1   O8    S    
C15   C17   S    
Cu2   O7    S    
Cu2   O3    S    
C8    C10   S    
C7    C16   S    
C21   C22   S    
C10   C13   S    
C11   C17   T    
