data_mof_unit_3324.cif
_audit_creation_date              2012-12-11T14:56:36-0500
_audit_creation_method            fapswitch 2.2
_symmetry_space_group_name_H-M    P1
_symmetry_Int_Tables_number       1
_space_group_crystal_system       triclinic
_cell_length_a                    10.631841
_cell_length_b                    10.644013
_cell_length_c                    17.003603
_cell_angle_alpha                 80.439328
_cell_angle_beta                  90.564297
_cell_angle_gamma                 119.506128
_cell_volume                      1645.57993777

loop_
_atom_site_label
_atom_site_type_symbol
_atom_type_description
_atom_site_fract_x
_atom_site_fract_y
_atom_site_fract_z
_atom_type_partial_charge
C1    C     C_R   0.222553 0.853960 0.128629 0.577384
C2    C     C_R   0.829844 0.461162 0.257402 -0.133175
C3    C     C_R   0.815883 0.420805 0.183258 0.193195
C4    C     C_R   0.677016 0.366706 0.150876 0.005188
C5    C     C_1   0.669597 0.848921 0.205315 -0.021271
C6    C     C_1   0.679651 0.839196 0.275097 -0.033220
C7    C     C_1   0.180935 0.825509 0.211324 -0.001259
C8    C     C_1   0.151714 0.819737 0.280036 -0.032546
C9    C     C_1   0.644623 0.324654 0.778281 0.056773
C10   C     C_1   0.652943 0.346064 0.707442 0.020830
C11   C     C_R   0.507299 0.769359 0.769127 0.154187
C12   C     C_R   0.640576 0.282946 0.085798 0.544545
C13   C     C_R   0.513485 0.785245 0.686498 0.230202
C14   C     C_R   0.647352 0.868908 0.644373 -0.072079
C15   C     C_R   0.756280 0.987593 0.674209 -0.164834
C16   C     C_R   0.734767 0.003065 0.751977 0.313094
C17   C     C_R   0.617314 0.886138 0.803009 -0.033793
C18   C     C_R   0.097689 0.920472 0.778321 0.251366
C19   C     C_R   0.028800 0.881003 0.709992 -0.092569
C20   C     C_R   0.016140 0.760939 0.682533 -0.011770
C21   C     C_R   0.023020 0.650020 0.736769 -0.076160
C22   C     C_R   0.077199 0.678416 0.811303 -0.110584
C23   C     C_R   0.641468 0.857961 0.124999 0.548918
C24   C     C_R   0.128666 0.818654 0.830138 0.010448
C25   C     C_R   0.685911 0.810453 0.357575 0.552808
C26   C     C_R   0.727575 0.461786 0.383888 0.555455
C27   C     C_R   0.104164 0.810430 0.359420 0.569614
C28   C     C_R   0.675787 0.808129 0.580900 0.572497
C29   C     C_R   0.679563 0.382760 0.624275 0.540354
C30   C     C_R   0.018841 0.770145 0.595179 0.603670
C31   C     C_R   0.217450 0.861847 0.899393 0.546405
C32   C     C_R   0.637421 0.285366 0.861314 0.563557
C33   C     C_R   0.602356 0.891909 0.887942 0.569645
C34   C     C_R   0.565083 0.372451 0.190296 -0.155999
C35   C     C_R   0.582083 0.411400 0.265252 -0.131216
C36   C     C_R   0.711815 0.445922 0.300769 -0.031544
Cr1   Cr    Cr6+3 0.402240 0.783890 0.019450 1.174291
Cr2   Cr    Cr6+3 0.382360 0.097900 0.991800 1.150635
Cr3   Cr    Cr6+3 0.715380 0.118170 0.988700 1.173490
Cr4   Cr    Cr6+3 0.936650 0.882420 0.465510 1.047988
Cr5   Cr    Cr6+3 0.605770 0.565620 0.493360 1.109552
Cr6   Cr    Cr6+3 0.921340 0.550490 0.496380 1.086403
H1    H     H_    0.460376 0.335602 0.166305 0.169794
H2    H     H_    0.006304 0.956588 0.670498 0.173905
H3    H     H_    0.997213 0.547029 0.719604 0.180973
H4    H     H_    0.086767 0.594444 0.851602 0.201042
H5    H     H_    0.491038 0.405415 0.297119 0.168412
H6    H     H_    0.931555 0.495839 0.284548 0.173014
H7    H     H_    0.856995 0.064841 0.638530 0.176457
O1    O     O_R   0.521780 0.757110 0.108900 -0.491318
O2    O     O_R   0.513330 0.228330 0.898660 -0.438086
O3    O     O_R   0.739230 0.266130 0.888050 -0.480994
O4    O     O_R   0.712580 0.991850 0.918770 -0.412821
O5    O     O_3   0.499990 0.999980 0.999980 -0.352720
O6    O     O_R   0.083770 0.911170 0.376030 -0.492471
O7    O     O_R   0.808770 0.880340 0.383890 -0.501504
O8    O     O_R   0.584340 0.689460 0.394160 -0.497291
O9    O     O_R   0.614320 0.443940 0.423590 -0.489852
O10   O     O_R   0.805020 0.410040 0.421340 -0.500648
O11   O     O_R   0.049240 0.685450 0.403290 -0.503872
O12   O     O_R   0.275160 0.783810 0.101120 -0.431769
O13   O     O_R   0.077520 0.903010 0.551800 -0.466147
O14   O     O_R   0.802980 0.872780 0.546830 -0.549819
O15   O     O_R   0.578090 0.681300 0.569920 -0.428464
O16   O     O_R   0.608530 0.436370 0.586530 -0.462276
O17   O     O_R   0.798770 0.401880 0.597100 -0.519701
O18   O     O_R   0.043450 0.677890 0.566230 -0.414276
O19   O     O_3   0.821250 0.666180 0.485090 -0.351730
O20   O     O_R   0.237900 0.972600 0.090980 -0.510316
O21   O     O_R   0.511190 0.220540 0.061620 -0.510026
O22   O     O_R   0.736920 0.257720 0.063840 -0.426471
O23   O     O_R   0.710450 0.984050 0.081720 -0.471935
O24   O     O_R   0.524090 0.765520 0.933110 -0.432706
O25   O     O_R   0.277300 0.791600 0.938160 -0.476128
O26   O     O_R   0.240210 0.981010 0.915190 -0.438547
S1    S     S_3+6 0.972860 0.427430 0.140820 0.038552
O27   O     O_2   0.004517 0.503632 0.054734 -0.234102
O28   O     O_2   0.103039 0.508223 0.185518 -0.299607
O29   O     O_3   0.945117 0.256233 0.146103 -0.460114
H8    H     H_    0.912491 0.208630 0.202925 0.328389
S2    S     S_3+6 0.411328 0.584131 0.821178 0.078692
O30   O     O_2   0.515574 0.546810 0.864979 -0.244523
O31   O     O_2   0.295122 0.561260 0.880663 -0.271038
O32   O     O_3   0.335522 0.469260 0.756625 -0.412347
H9    H     H_    0.230067 0.426486 0.768832 0.391317
S3    S     S_3+6 0.365023 0.772329 0.634841 0.054706
O33   O     O_2   0.402397 0.816050 0.545809 -0.252149
O34   O     O_2   0.239563 0.618559 0.653370 -0.243175
O35   O     O_3   0.322545 0.889981 0.665204 -0.532775
H10   H     H_    0.410801 0.987669 0.650698 0.341560
F1    F     F_    0.833487 0.124796 0.778777 -0.610486
S4    S     S_3+6 0.163073 0.108622 0.782526 0.076487
O36   O     O_2   0.090441 0.120279 0.854262 -0.218976
O37   O     O_2   0.323744 0.185135 0.787845 -0.215631
O38   O     O_3   0.133159 0.195276 0.698270 -0.520263
H11   H     H_    0.070784 0.232207 0.715065 0.393302

loop_
_geom_bond_atom_site_label_1
_geom_bond_atom_site_label_2
_ccdc_geom_bond_type
Cr1   O25   S    
Cr2   O21   S    
O38   H11   S    
C25   O7    A    
C35   H5    S    
S2    O30   D    
C7    C8    T    
C20   C30   S    
C11   S2    S    
Cr4   O14   S    
C25   O8    A    
C18   C24   A    
S1    O28   D    
Cr5   O9    S    
C18   C19   A    
C27   O11   A    
C5    C6    T    
S3    O34   D    
C6    C25   S    
C2    C36   A    
C15   C16   A    
Cr4   O13   S    
C34   C35   A    
C32   O3    A    
C12   O21   A    
C9    C32   S    
C35   C36   A    
C16   C17   A    
Cr4   O7    S    
Cr2   O5    S    
C13   S3    S    
Cr3   O23   S    
S1    O29   S    
C4    C12   S    
C26   O10   A    
C30   O18   A    
Cr3   O3    S    
Cr2   O20   S    
C21   C22   A    
Cr6   O19   S    
C17   C33   S    
S2    O31   D    
Cr5   O19   S    
C21   H3    S    
Cr2   O26   S    
C33   O4    A    
C4    C34   A    
S1    O27   D    
Cr6   O11   S    
S3    O33   D    
C23   O1    A    
Cr5   O16   S    
Cr2   O2    S    
C2    H6    S    
S4    O38   S    
C1    O20   A    
O29   H8    S    
C32   O2    A    
C31   O26   A    
C5    C23   S    
Cr4   O6    S    
S4    O37   D    
O32   H9    S    
C3    S1    S    
C26   O9    A    
C29   O16   A    
Cr1   O5    S    
C28   O15   A    
C33   O24   A    
C22   H4    S    
C12   O22   A    
C30   O13   A    
Cr6   O18   S    
C22   C24   A    
C3    C4    A    
S2    O32   S    
C19   H2    S    
C9    C10   T    
C26   C36   S    
Cr1   O24   S    
C11   C17   A    
C1    C7    S    
C23   O23   A    
C34   H1    S    
C31   O25   A    
S3    O35   S    
C1    O12   A    
Cr6   O10   S    
Cr1   O12   S    
C18   S4    S    
C19   C20   A    
C2    C3    A    
C24   C31   S    
Cr5   O8    S    
Cr1   O1    S    
C11   C13   A    
C10   C29   S    
Cr3   O4    S    
S4    O36   D    
C27   O6    A    
C15   H7    S    
C29   O17   A    
Cr3   O5    S    
C28   O14   A    
C20   C21   A    
C16   F1    S    
Cr4   O19   S    
Cr6   O17   S    
C8    C27   S    
Cr3   O22   S    
C14   C15   A    
Cr5   O15   S    
C14   C28   S    
O35   H10   S    
C13   C14   A    
