data_mof_unit_2849.cif
_audit_creation_date              2012-12-10T18:21:14-0500
_audit_creation_method            fapswitch 2.2
_symmetry_space_group_name_H-M    P1
_symmetry_Int_Tables_number       1
_space_group_crystal_system       triclinic
_cell_length_a                    14.963605
_cell_length_b                    14.002276
_cell_length_c                    10.614782
_cell_angle_alpha                 90.051657
_cell_angle_beta                  90.180365
_cell_angle_gamma                 90.490661
_cell_volume                      2223.96364992

loop_
_atom_site_label
_atom_site_type_symbol
_atom_type_description
_atom_site_fract_x
_atom_site_fract_y
_atom_site_fract_z
_atom_type_partial_charge
C1    C     C_R   0.326770 0.499521 0.498318 0.859542
C2    C     C_R   0.049027 0.350982 0.624101 -0.234539
C3    C     C_R   0.094221 0.423485 0.560095 0.156291
C4    C     C_R   0.493505 0.500118 0.258117 0.824693
C5    C     C_R   0.046879 0.497237 0.499691 0.013572
C6    C     C_R   0.092883 0.570629 0.434203 -0.005748
C7    C     C_R   0.045123 0.643469 0.372851 0.483845
C8    C     C_R   0.952109 0.640429 0.373435 -0.296526
C9    C     C_R   0.186437 0.423930 0.556855 -0.252913
C10   C     C_R   0.231393 0.497825 0.495738 -0.074982
C11   C     C_R   0.185712 0.569825 0.432808 -0.259341
C12   C     C_3   0.584062 0.475402 0.930478 -0.434161
C13   C     C_R   0.550922 0.798496 0.414281 -0.073662
C14   C     C_R   0.551021 0.202293 0.414407 -0.065347
C15   C     C_R   0.448652 0.797666 0.585192 -0.066132
C16   C     C_R   0.448654 0.201503 0.585194 -0.065171
C17   C     C_R   0.447148 0.898335 0.586978 0.013468
C18   C     C_R   0.447185 0.100795 0.587023 0.016093
C19   C     C_R   0.673228 0.500342 0.506676 0.890056
C20   C     C_R   0.499470 0.949354 0.499400 0.086220
C21   C     C_R   0.499508 0.050604 0.499448 0.084223
C22   C     C_R   0.551853 0.899175 0.411881 0.014265
C23   C     C_R   0.814598 0.568348 0.443555 -0.263425
C24   C     C_R   0.551947 0.101616 0.412000 0.013352
C25   C     C_R   0.394946 0.948958 0.673874 -0.212185
C26   C     C_R   0.394959 0.049326 0.673889 -0.209579
C27   C     C_R   0.603815 0.050981 0.324725 -0.208537
C28   C     C_R   0.603746 0.950626 0.324642 -0.210975
C29   C     C_R   0.495576 0.500170 0.742292 0.853036
C30   C     C_3   0.458812 0.602068 0.071073 0.012906
C31   C     C_3   0.425002 0.418762 0.069994 0.012249
C32   C     C_3   0.464287 0.601717 0.926642 -0.411763
C33   C     C_3   0.420271 0.427182 0.925065 -0.423620
C34   C     C_R   0.769035 0.501168 0.516561 -0.119720
C35   C     C_3   0.583673 0.481478 0.074180 -0.487360
C36   C     C_3   0.487314 0.500979 0.121777 0.057778
C37   C     C_3   0.490977 0.500974 0.878614 0.118917
C38   C     C_3   0.116686 0.788651 0.385966 0.064670
C39   C     C_3   0.047631 0.868710 0.388031 -0.350132
C40   C     C_3   0.081320 0.954254 0.464313 -0.952076
C41   C     C_3   0.366432 0.638209 0.117702 -0.384155
C42   C     C_3   0.363364 0.747200 0.123347 -0.881249
C43   C     C_3   0.330559 0.410736 0.130060 -0.413355
C44   C     C_3   0.289861 0.311156 0.111960 -0.874157
C45   C     C_R   0.814966 0.435335 0.593937 0.110431
C46   C     C_3   0.767237 0.380203 0.698930 -0.411201
C47   C     C_3   0.800334 0.411555 0.829463 -0.903869
C48   C     C_R   0.908033 0.427991 0.578328 0.130533
C49   C     C_R   0.953765 0.498029 0.506079 0.013093
C50   C     C_R   0.906728 0.569582 0.441399 0.039982
C51   C     C_R   0.956793 0.353038 0.633191 -0.224459
H1    H     H_    0.510319 0.654353 0.104753 0.172232
H2    H     H_    0.408819 0.241507 0.651536 0.125076
H3    H     H_    0.354228 0.910960 0.741911 0.139244
H4    H     H_    0.354233 0.086667 0.741918 0.137692
H5    H     H_    0.644486 0.088966 0.256631 0.139105
H6    H     H_    0.644368 0.913281 0.256496 0.137784
H7    H     H_    0.399949 0.623125 0.882351 0.169024
H8    H     H_    0.352828 0.449870 0.892909 0.162982
H9    H     H_    0.515074 0.655812 0.897010 0.172621
H10   H     H_    0.432265 0.355413 0.883492 0.168585
H11   H     H_    0.630158 0.539475 0.105412 0.175566
H12   H     H_    0.459498 0.350362 0.091736 0.178365
H13   H     H_    0.609853 0.413457 0.113610 0.181894
H14   H     H_    0.635531 0.525334 0.892414 0.178581
H15   H     H_    0.601713 0.401631 0.901109 0.188363
H16   H     H_    0.777859 0.619843 0.387693 0.156152
H17   H     H_    0.924653 0.295152 0.683313 0.158912
H18   H     H_    0.180469 0.817833 0.348172 0.167357
H19   H     H_    0.131392 0.764497 0.484111 0.126878
H20   H     H_    0.033298 0.892043 0.290021 0.232812
H21   H     H_    0.984523 0.841873 0.430588 0.213606
H22   H     H_    0.094981 0.932782 0.563197 0.263487
H23   H     H_    0.085141 0.293314 0.668774 0.144356
H24   H     H_    0.029752 0.010809 0.464543 0.265111
H25   H     H_    0.143456 0.983909 0.422070 0.266791
H26   H     H_    0.413075 0.774818 0.192594 0.262451
H27   H     H_    0.377673 0.778212 0.029194 0.254096
H28   H     H_    0.295838 0.770139 0.153421 0.260339
H29   H     H_    0.311851 0.613868 0.054147 0.207790
H30   H     H_    0.350765 0.610646 0.213107 0.213871
H31   H     H_    0.283682 0.293911 0.010143 0.253136
H32   H     H_    0.331970 0.256623 0.158791 0.259923
H33   H     H_    0.222230 0.308594 0.154686 0.258958
H34   H     H_    0.223419 0.368328 0.604888 0.145623
H35   H     H_    0.283794 0.462638 0.088133 0.210497
H36   H     H_    0.333431 0.425047 0.232722 0.215876
H37   H     H_    0.872071 0.396047 0.843949 0.270694
H38   H     H_    0.790233 0.489458 0.841975 0.261959
H39   H     H_    0.762325 0.372740 0.903327 0.247650
H40   H     H_    0.694378 0.392155 0.699715 0.227820
H41   H     H_    0.775826 0.302148 0.686214 0.200969
H42   H     H_    0.222978 0.624728 0.383164 0.178676
H43   H     H_    0.915427 0.694623 0.322496 0.158158
H44   H     H_    0.590670 0.758505 0.347831 0.128247
H45   H     H_    0.590860 0.242903 0.348054 0.133118
H46   H     H_    0.408890 0.757032 0.651624 0.130081
N1    N     N_R   0.500070 0.750030 0.500050 -0.098876
N2    N     N_R   0.500070 0.249970 0.500050 -0.101324
O1    O     O_R   0.367860 0.580280 0.500020 -0.628325
O2    O     O_R   0.367860 0.419720 0.500020 -0.621683
O3    O     O_R   0.500000 0.580270 0.314790 -0.629445
O4    O     O_R   0.500000 0.419730 0.314790 -0.624250
O5    O     O_R   0.632160 0.580270 0.499960 -0.612642
O6    O     O_R   0.632160 0.419730 0.499960 -0.626407
O7    O     O_R   0.500030 0.580270 0.685200 -0.628561
O8    O     O_R   0.500030 0.419730 0.685200 -0.638147
O9    O     O_3   0.088314 0.714108 0.304404 -0.651795
Zn1   Zn    Zn3+2 0.500020 0.607200 0.499990 0.931660
Zn2   Zn    Zn3+2 0.500020 0.392800 0.499990 0.928411

loop_
_geom_bond_atom_site_label_1
_geom_bond_atom_site_label_2
_ccdc_geom_bond_type
O6    Zn2   S    
C4    C36   S    
C1    O2    A    
C18   C21   A    
C41   C42   S    
C35   C36   S    
C18   C26   A    
C24   C27   A    
C32   H7    S    
C44   H32   S    
C26   H4    S    
C41   H29   S    
C38   H19   S    
C7    C8    A    
C28   H6    S    
C31   C43   S    
C13   H44   S    
O4    Zn2   S    
C5    C6    A    
C44   H31   S    
O5    Zn1   S    
C46   H41   S    
C14   C24   A    
C4    O4    A    
C13   N1    A    
C17   C20   A    
C40   H22   S    
C23   H16   S    
C12   C37   S    
C16   H2    S    
C9    H34   S    
C48   C51   A    
C4    O3    A    
C39   H21   S    
C31   C33   S    
C30   C41   S    
C35   H13   S    
C9    C10   A    
C2    H23   S    
C11   H42   S    
C38   H18   S    
O1    Zn1   S    
C33   H8    S    
N1    Zn1   S    
C22   C28   A    
C47   H38   S    
C5    C49   A    
C15   H46   S    
C1    O1    A    
C14   H45   S    
C31   H12   S    
C14   N2    A    
C8    H43   S    
C25   H3    S    
C10   C11   A    
C6    C11   A    
C27   H5    S    
C23   C50   A    
C46   H40   S    
C44   H33   S    
O2    Zn2   S    
C45   C46   S    
N2    Zn2   S    
C12   H15   S    
C33   C37   S    
C40   H25   S    
C43   C44   S    
C3    C9    A    
C19   O5    A    
C23   C34   A    
C41   H30   S    
C34   C45   A    
C32   C37   S    
C12   C35   S    
C19   O6    A    
C16   C18   A    
C48   C49   A    
C20   C22   A    
C42   H27   S    
C47   H39   S    
C29   O7    A    
C32   H9    S    
C15   N1    A    
C8    C50   A    
C39   C40   S    
C45   C48   A    
C15   C17   A    
C30   H1    S    
C46   C47   S    
C31   C36   S    
C43   H35   S    
C1    C10   S    
C3    C5    A    
C19   C34   S    
C16   N2    A    
C6    C7    A    
C12   H14   S    
C40   H24   S    
C30   C36   S    
C17   C25   A    
C47   H37   S    
C2    C3    A    
C25   C26   A    
C43   H36   S    
C30   C32   S    
C38   C39   S    
O8    Zn2   S    
C13   C22   A    
C35   H11   S    
C51   H17   S    
C38   O9    S    
C2    C51   A    
C42   H28   S    
C20   C21   A    
C42   H26   S    
C33   H10   S    
C49   C50   A    
C21   C24   A    
C29   C37   S    
C27   C28   A    
C39   H20   S    
C7    O9    S    
C29   O8    A    
O3    Zn1   S    
O7    Zn1   S    
