data_mof_unit_3154.cif
_audit_creation_date              2012-12-11T14:13:23-0500
_audit_creation_method            fapswitch 2.2
_symmetry_space_group_name_H-M    P1
_symmetry_Int_Tables_number       1
_space_group_crystal_system       triclinic
_cell_length_a                    17.246576
_cell_length_b                    17.246579
_cell_length_c                    17.309246
_cell_angle_alpha                 90.000016
_cell_angle_beta                  89.999934
_cell_angle_gamma                 90.119918
_cell_volume                      5148.52762819

loop_
_atom_site_label
_atom_site_type_symbol
_atom_type_description
_atom_site_fract_x
_atom_site_fract_y
_atom_site_fract_z
_atom_type_partial_charge
C1    C     C_R   0.582681 0.325042 0.139178 -0.148281
C2    C     C_R   0.168126 0.076994 0.644356 -0.151440
C3    C     C_R   0.893308 0.196909 0.599898 -0.162583
C4    C     C_R   0.831874 0.923006 0.644356 -0.151440
C5    C     C_R   0.076994 0.168127 0.355645 -0.151441
C6    C     C_R   0.196909 0.893309 0.400102 -0.162582
C7    C     C_R   0.923006 0.831873 0.355644 -0.151440
C8    C     C_R   0.803091 0.106691 0.400102 -0.162584
C9    C     C_R   0.603738 0.694776 0.108113 -0.121045
C10   C     C_R   0.325912 0.582518 0.139961 -0.119815
C11   C     C_R   0.396262 0.305225 0.108114 -0.121044
C12   C     C_R   0.694443 0.603240 0.109343 -0.158848
C13   C     C_R   0.674089 0.417481 0.139960 -0.119817
C14   C     C_R   0.582517 0.325913 0.860038 -0.119815
C15   C     C_R   0.305225 0.396262 0.891887 -0.121039
C16   C     C_R   0.417478 0.674092 0.860043 -0.119820
C17   C     C_R   0.694775 0.603738 0.891887 -0.121046
C18   C     C_R   0.076713 0.168726 0.643812 -0.117092
C19   C     C_R   0.802902 0.105429 0.600177 -0.128227
C20   C     C_R   0.923287 0.831274 0.643812 -0.117092
C21   C     C_R   0.197098 0.894570 0.600175 -0.128223
C22   C     C_R   0.105430 0.802903 0.399823 -0.128226
C23   C     C_R   0.417320 0.674957 0.139178 -0.148281
C24   C     C_R   0.831274 0.923287 0.356187 -0.117092
C25   C     C_R   0.894570 0.197098 0.399824 -0.128226
C26   C     C_R   0.168726 0.076713 0.356187 -0.117092
C27   C     C_R   0.643904 0.355179 0.180885 0.131804
C28   C     C_R   0.679148 0.678831 0.129607 0.137570
C29   C     C_R   0.356098 0.644819 0.180886 0.131805
C30   C     C_R   0.320853 0.321170 0.129610 0.137570
C31   C     C_R   0.678831 0.679148 0.870392 0.137570
C32   C     C_R   0.644818 0.356100 0.819112 0.131802
C33   C     C_R   0.321169 0.320852 0.870392 0.137570
C34   C     C_R   0.305558 0.396761 0.109344 -0.158849
C35   C     C_R   0.355174 0.643909 0.819120 0.131808
C36   C     C_R   0.184042 0.817003 0.613711 0.143109
C37   C     C_R   0.134501 0.135038 0.688155 0.133704
C38   C     C_R   0.815959 0.182996 0.613714 0.143109
C39   C     C_R   0.865499 0.864962 0.688155 0.133704
C40   C     C_R   0.135038 0.134501 0.311845 0.133705
C41   C     C_R   0.182996 0.815959 0.386287 0.143108
C42   C     C_R   0.864962 0.865499 0.311845 0.133704
C43   C     C_R   0.817003 0.184041 0.386288 0.143109
C44   C     C_2   0.809615 0.728265 0.844891 -0.114003
C45   C     C_R   0.603239 0.694442 0.890657 -0.158848
C46   C     C_2   0.357358 0.725941 0.704188 -0.112818
C47   C     C_2   0.190385 0.271735 0.844890 -0.114004
C48   C     C_2   0.642636 0.274058 0.704187 -0.112810
C49   C     C_2   0.725942 0.357361 0.295813 -0.112812
C50   C     C_2   0.271733 0.190386 0.155109 -0.114003
C51   C     C_2   0.274059 0.642638 0.295813 -0.112815
C52   C     C_2   0.728265 0.809615 0.155109 -0.114004
C53   C     C_2   0.226078 0.138312 0.204435 -0.112713
C54   C     C_2   0.776141 0.313418 0.348223 -0.116413
C55   C     C_2   0.773922 0.861689 0.204435 -0.112711
C56   C     C_R   0.674956 0.417321 0.860820 -0.148282
C57   C     C_2   0.223860 0.686582 0.348223 -0.116409
C58   C     C_2   0.313418 0.776139 0.651775 -0.116413
C59   C     C_2   0.861688 0.773922 0.795564 -0.112712
C60   C     C_2   0.686582 0.223857 0.651780 -0.116412
C61   C     C_2   0.138311 0.226078 0.795564 -0.112710
C62   C     C_2   0.732393 0.736240 0.839617 -0.194941
C63   C     C_2   0.320765 0.674257 0.749177 -0.187327
C64   C     C_2   0.267606 0.263761 0.839616 -0.194942
C65   C     C_2   0.679221 0.325760 0.749163 -0.187305
C66   C     C_2   0.674246 0.320774 0.250833 -0.187311
C67   C     C_R   0.396760 0.305557 0.890657 -0.158851
C68   C     C_2   0.263762 0.267608 0.160388 -0.194943
C69   C     C_2   0.325757 0.679223 0.250835 -0.187315
C70   C     C_2   0.736240 0.732394 0.160383 -0.194940
C71   C     C_2   0.158674 0.160885 0.235475 -0.189925
C72   C     C_2   0.757491 0.241700 0.371520 -0.189295
C73   C     C_2   0.841326 0.839116 0.235475 -0.189923
C74   C     C_2   0.242509 0.758301 0.371518 -0.189293
C75   C     C_2   0.241700 0.757491 0.628478 -0.189299
C76   C     C_2   0.839115 0.841326 0.764525 -0.189923
C77   C     C_2   0.758299 0.242507 0.628481 -0.189294
C78   C     C_R   0.325038 0.582684 0.860826 -0.148280
C79   C     C_2   0.160884 0.158674 0.764525 -0.189923
C80   C     C_R   0.106691 0.803091 0.599897 -0.162585
H1    H     H_    0.547619 0.275233 0.153844 0.096281
H2    H     H_    0.214624 0.038993 0.661863 0.099091
H3    H     H_    0.919949 0.253433 0.593799 0.089102
H4    H     H_    0.785376 0.961007 0.661863 0.099090
H5    H     H_    0.038993 0.214624 0.338138 0.099091
H6    H     H_    0.253433 0.919950 0.406201 0.089102
H7    H     H_    0.961007 0.785376 0.338137 0.099091
H8    H     H_    0.746567 0.080050 0.406202 0.089103
H9    H     H_    0.706083 0.782986 0.807083 0.128586
H10   H     H_    0.260570 0.658640 0.740290 0.126749
H11   H     H_    0.293917 0.217014 0.807082 0.128586
H12   H     H_    0.750952 0.576219 0.107835 0.089950
H13   H     H_    0.739410 0.341395 0.740263 0.126738
H14   H     H_    0.658615 0.260584 0.259729 0.126741
H15   H     H_    0.217020 0.293918 0.192928 0.128587
H16   H     H_    0.341390 0.739411 0.259734 0.126742
H17   H     H_    0.782987 0.706083 0.192916 0.128585
H18   H     H_    0.126440 0.208993 0.211061 0.128741
H19   H     H_    0.698123 0.220954 0.369348 0.127516
H20   H     H_    0.873560 0.791008 0.211060 0.128739
H21   H     H_    0.301877 0.779048 0.369345 0.127513
H22   H     H_    0.220953 0.698122 0.630654 0.127519
H23   H     H_    0.452383 0.724765 0.153846 0.096282
H24   H     H_    0.791008 0.873560 0.788940 0.128739
H25   H     H_    0.779044 0.301877 0.630650 0.127514
H26   H     H_    0.208992 0.126440 0.788940 0.128739
H27   H     H_    0.576251 0.750990 0.106313 0.080238
H28   H     H_    0.276125 0.547517 0.154641 0.089017
H29   H     H_    0.423749 0.249011 0.106315 0.080239
H30   H     H_    0.723876 0.452482 0.154640 0.089017
H31   H     H_    0.547516 0.276126 0.845358 0.089016
H32   H     H_    0.249011 0.423750 0.893685 0.080237
H33   H     H_    0.452477 0.723881 0.845363 0.089019
H34   H     H_    0.249049 0.423781 0.107837 0.089950
H35   H     H_    0.750990 0.576251 0.893687 0.080238
H36   H     H_    0.038157 0.215116 0.660095 0.091962
H37   H     H_    0.747144 0.077522 0.593393 0.081118
H38   H     H_    0.961843 0.784884 0.660095 0.091961
H39   H     H_    0.252857 0.922477 0.593391 0.081117
H40   H     H_    0.077523 0.747144 0.406607 0.081117
H41   H     H_    0.784884 0.961843 0.339905 0.091961
H42   H     H_    0.922477 0.252856 0.406608 0.081117
H43   H     H_    0.215116 0.038157 0.339905 0.091961
H44   H     H_    0.834596 0.679833 0.876122 0.116326
H45   H     H_    0.576219 0.750951 0.892164 0.089950
H46   H     H_    0.417201 0.741718 0.715747 0.117636
H47   H     H_    0.165404 0.320168 0.876121 0.116327
H48   H     H_    0.582798 0.258265 0.715758 0.117624
H49   H     H_    0.741730 0.417201 0.284245 0.117628
H50   H     H_    0.320163 0.165405 0.123871 0.116327
H51   H     H_    0.258268 0.582800 0.284244 0.117629
H52   H     H_    0.679832 0.834596 0.123879 0.116326
H53   H     H_    0.255729 0.087055 0.225327 0.115431
H54   H     H_    0.834623 0.335561 0.355118 0.112986
H55   H     H_    0.744271 0.912945 0.225328 0.115430
H56   H     H_    0.724764 0.452384 0.846153 0.096282
H57   H     H_    0.165379 0.664438 0.355119 0.112985
H58   H     H_    0.335564 0.834620 0.644877 0.112988
H59   H     H_    0.912945 0.744271 0.774672 0.115430
H60   H     H_    0.664440 0.165375 0.644889 0.112985
H61   H     H_    0.087055 0.255730 0.774671 0.115430
H62   H     H_    0.423780 0.249048 0.892165 0.089950
H63   H     H_    0.275228 0.547624 0.846161 0.096281
H64   H     H_    0.080050 0.746567 0.593797 0.089103
N1    N     N_R   0.574080 0.369570 0.076720 -0.042355
N2    N     N_R   0.130430 0.074080 0.576720 -0.042672
N3    N     N_R   0.925920 0.130430 0.576720 -0.037621
N4    N     N_R   0.869570 0.925920 0.576720 -0.042672
N5    N     N_R   0.074080 0.130430 0.423280 -0.042672
N6    N     N_R   0.130430 0.925920 0.423280 -0.037621
N7    N     N_R   0.925920 0.869570 0.423280 -0.042672
N8    N     N_R   0.869570 0.074080 0.423280 -0.037621
N9    N     N_R   0.574050 0.630410 0.076720 -0.040431
N10   N     N_R   0.369590 0.574050 0.076720 -0.044505
N11   N     N_R   0.425950 0.369590 0.076720 -0.040431
N12   N     N_R   0.630430 0.574080 0.076720 -0.038173
N13   N     N_R   0.630410 0.425950 0.076720 -0.044505
N14   N     N_R   0.574050 0.369590 0.923280 -0.044505
N15   N     N_R   0.369590 0.425950 0.923280 -0.040432
N16   N     N_R   0.425950 0.630410 0.923280 -0.044504
N17   N     N_R   0.630410 0.574050 0.923280 -0.040431
N18   N     N_R   0.074050 0.130410 0.576720 -0.045515
N19   N     N_R   0.869590 0.074050 0.576720 -0.039439
N20   N     N_R   0.925950 0.869590 0.576720 -0.045515
N21   N     N_R   0.130410 0.925950 0.576720 -0.039439
N22   N     N_R   0.074050 0.869590 0.423280 -0.039439
N23   N     N_R   0.425920 0.630430 0.076720 -0.042355
N24   N     N_R   0.869590 0.925950 0.423280 -0.045515
N25   N     N_R   0.925950 0.130410 0.423280 -0.039439
N26   N     N_R   0.130410 0.074050 0.423280 -0.045515
N27   N     N_R   0.369570 0.425920 0.076720 -0.038173
N28   N     N_R   0.574080 0.630430 0.923280 -0.038173
N29   N     N_R   0.630430 0.425920 0.923280 -0.042355
N30   N     N_R   0.425920 0.369570 0.923280 -0.038173
N31   N     N_R   0.369570 0.574080 0.923280 -0.042355
N32   N     N_R   0.074080 0.869570 0.576720 -0.037621
Ni1   Ni    Ni4+2 0.500000 0.370760 0.000000 0.209810
Ni2   Ni    Ni4+2 0.629240 0.500000 0.000000 0.209810
Ni3   Ni    Ni4+2 0.500000 0.629240 0.000000 0.209810
Ni4   Ni    Ni4+2 0.370760 0.500000 0.000000 0.209810
Ni5   Ni    Ni4+2 0.000000 0.870760 0.500000 0.208746
Ni6   Ni    Ni4+2 0.129240 0.000000 0.500000 0.208746
Ni7   Ni    Ni4+2 0.000000 0.129240 0.500000 0.208746
Ni8   Ni    Ni4+2 0.870760 0.000000 0.500000 0.208747

loop_
_geom_bond_atom_site_label_1
_geom_bond_atom_site_label_2
_ccdc_geom_bond_type
C76   H24   S    
C73   H20   S    
N23   Ni3   S    
N9    Ni3   S    
C3    N3    A    
C43   C72   S    
C40   C71   S    
N10   Ni4   S    
C11   H29   S    
C24   C42   A    
C10   H28   S    
C2    C37   A    
C8    C43   A    
N15   Ni4   S    
C69   H16   S    
C16   H33   S    
C25   C43   A    
C20   H38   S    
C5    N5    A    
N6    Ni6   S    
C21   C36   A    
N21   N32   A    
C22   H40   S    
C37   C79   S    
C33   C67   A    
C12   C28   A    
N21   Ni6   S    
C23   C29   A    
C24   N24   A    
N14   Ni1   S    
C16   C35   A    
C55   H55   S    
C22   C41   A    
C16   N16   A    
C67   N30   A    
C1    H1    S    
C49   C54   S    
N6    N22   A    
C62   H9    S    
C21   N21   A    
C7    C42   A    
C44   C59   S    
C2    N2    A    
N25   Ni7   S    
N20   Ni5   S    
C50   H50   S    
C41   C74   S    
N17   N28   A    
N12   Ni2   S    
C7    H7    S    
C3    C38   A    
C45   H45   S    
C80   H64   S    
C6    C41   A    
C75   H22   S    
N7    Ni5   S    
C51   C57   S    
C48   C65   D    
N8    Ni8   S    
C25   H42   S    
C70   H17   S    
C11   N11   A    
C66   H14   S    
C5    H5    S    
C58   H58   S    
C65   H13   S    
C9    N9    A    
N26   Ni6   S    
N15   N30   A    
C31   C62   S    
C10   N10   A    
N32   Ni5   S    
N22   Ni5   S    
C12   N12   A    
C13   N13   A    
C56   H56   S    
C54   H54   S    
C46   H46   S    
C58   C75   D    
C48   C60   S    
C29   C69   S    
C14   H31   S    
C71   H18   S    
C23   H23   S    
C60   C77   D    
C50   C53   S    
C49   C66   D    
N2    Ni6   S    
N5    N26   A    
N4    N20   A    
C53   H53   S    
C80   N32   A    
C36   C80   A    
C18   H36   S    
C47   C64   D    
C20   C39   A    
C30   C34   A    
C54   C72   D    
N24   Ni8   S    
C49   H49   S    
C44   H44   S    
C79   H26   S    
C8    H8    S    
C4    N4    A    
C52   H52   S    
C57   C74   D    
N16   Ni3   S    
C15   N15   A    
C13   H30   S    
C36   C75   S    
C48   H48   S    
N2    N18   A    
N14   N29   A    
C4    H4    S    
C4    C39   A    
C59   H59   S    
N4    Ni8   S    
C55   C73   D    
C57   H57   S    
C19   N19   A    
C39   C76   S    
N9    N12   A    
N30   Ni1   S    
C26   N26   A    
C68   H15   S    
C17   N17   A    
C60   H60   S    
C74   H21   S    
C7    N7    A    
N28   Ni3   S    
C61   H61   S    
C14   N14   A    
C3    H3    S    
C78   N31   A    
C17   C31   A    
N16   N31   A    
C23   N23   A    
N10   N23   A    
C2    H2    S    
C9    H27   S    
C1    N1    A    
C31   C45   A    
C53   C71   D    
C45   N28   A    
C17   H35   S    
N5    Ni7   S    
N3    Ni7   S    
C42   C73   S    
C51   H51   S    
N7    N24   A    
C8    N8    A    
N19   Ni8   S    
C15   H32   S    
C12   H12   S    
C28   C70   S    
C18   C37   A    
C47   C61   S    
C52   C55   S    
C47   H47   S    
N31   Ni4   S    
C38   C77   S    
C34   H34   S    
N1    N13   A    
C56   N29   A    
C35   C78   A    
C6    N6    A    
C6    H6    S    
C46   C63   D    
C44   C62   D    
C77   H25   S    
N18   Ni7   S    
C21   H39   S    
C27   C66   S    
N3    N19   A    
C78   H63   S    
C11   C30   A    
N8    N25   A    
C18   N18   A    
C10   C29   A    
C26   C40   A    
N29   Ni2   S    
C61   C79   D    
C33   C64   S    
C25   N25   A    
C63   H10   S    
C24   H41   S    
C15   C33   A    
N13   Ni2   S    
N27   Ni4   S    
C30   C68   S    
C52   C70   D    
C22   N22   A    
N11   N27   A    
C19   C38   A    
C14   C32   A    
C19   H37   S    
C26   H43   S    
C5    C40   A    
N1    Ni1   S    
C1    C27   A    
C13   C27   A    
C35   C63   S    
C51   C69   D    
C64   H11   S    
N17   Ni2   S    
C67   H62   S    
C50   C68   D    
C59   C76   D    
C32   C56   A    
C46   C58   S    
C34   N27   A    
N11   Ni1   S    
C9    C28   A    
C32   C65   S    
C72   H19   S    
C20   N20   A    
