data_mof_unit_3399.cif
_audit_creation_date              2012-12-10T16:44:15-0500
_audit_creation_method            fapswitch 2.2
_symmetry_space_group_name_H-M    P1
_symmetry_Int_Tables_number       1
_space_group_crystal_system       triclinic
_cell_length_a                    7.476322
_cell_length_b                    8.689279
_cell_length_c                    13.375728
_cell_angle_alpha                 94.74342
_cell_angle_beta                  77.865702
_cell_angle_gamma                 103.083357
_cell_volume                      826.909789622

loop_
_atom_site_label
_atom_site_type_symbol
_atom_type_description
_atom_site_fract_x
_atom_site_fract_y
_atom_site_fract_z
_atom_type_partial_charge
C1    C     C_R   0.545709 0.800075 0.502426 0.856145
C2    C     C_R   0.413571 0.477046 0.973866 0.078721
C3    C     C_R   0.444455 0.540640 0.875851 0.086548
C4    C     C_R   0.546263 0.536841 0.037757 0.076392
C5    C     C_R   0.697408 0.665850 0.005543 0.165003
C6    C     C_R   0.708517 0.739496 0.915102 -0.240030
C7    C     C_R   0.582932 0.678269 0.851491 -0.184148
C8    C     C_R   0.532261 0.474964 0.133517 -0.243292
C9    C     C_R   0.812297 0.662551 0.161799 -0.190581
C10   C     C_R   0.333509 0.467109 0.804616 -0.093804
C11   C     C_2   0.570878 0.968215 0.504768 -0.384464
C12   C     C_R   0.398871 0.491158 0.694142 0.767563
C13   C     C_2   0.434683 0.032307 0.488392 -0.367367
C14   C     C_R   0.456043 0.200047 0.495029 0.872441
C15   C     C_R   0.600419 0.511473 0.306217 0.778962
C16   C     C_R   0.831958 0.724095 0.066227 -0.190192
C17   C     C_R   0.657987 0.542320 0.197160 -0.041388
C18   C     C_R   0.173268 0.349752 0.836724 -0.168516
C19   C     C_R   0.130635 0.297842 0.936156 -0.148872
C20   C     C_R   0.251218 0.357049 0.003440 -0.179352
Cu1   Cu    Cu3+1 0.321300 0.483160 0.488710 0.991793
Cu2   Cu    Cu3+1 0.678700 0.516840 0.511290 0.964475
H1    H     H_    0.909378 0.716654 0.210876 0.148438
H2    H     H_    0.306067 0.961215 0.469642 0.168072
H3    H     H_    0.999749 0.399342 0.410593 0.179831
H4    H     H_    0.813732 0.845801 0.893991 0.139737
H5    H     H_    0.948007 0.821815 0.041560 0.131835
H6    H     H_    0.419642 0.378921 0.163344 0.133252
H7    H     H_    0.085319 0.292974 0.783516 0.155232
H8    H     H_    0.211570 0.307858 0.078197 0.124729
H9    H     H_    0.007214 0.206226 0.960027 0.136595
H10   H     H_    0.590265 0.741711 0.784194 0.126502
H11   H     H_    0.701348 0.039517 0.521724 0.177196
N1    N     N_2   0.947230 0.542220 0.528320 0.066926
N2    N     N_2   0.052770 0.457780 0.471680 -0.147883
O1    O     O_R   0.383920 0.714220 0.492660 -0.547661
O2    O     O_R   0.685730 0.742660 0.511730 -0.632982
O3    O     O_R   0.275440 0.478800 0.636790 -0.514635
O4    O     O_R   0.577250 0.507240 0.655860 -0.573447
O5    O     O_R   0.314270 0.257340 0.488270 -0.595041
O6    O     O_R   0.616080 0.285780 0.507340 -0.584973
O7    O     O_R   0.422750 0.492760 0.344140 -0.588978
O8    O     O_R   0.724560 0.521200 0.363210 -0.609330
O9    O     O_3   0.007584 0.601561 0.614311 -0.434594
C21   C     C_3   0.984633 0.758232 0.629702 0.251817
H12   H     H_    0.836823 0.760212 0.661336 0.146595
H13   H     H_    0.029693 0.823456 0.557430 0.119773
C22   C     C_3   0.101839 0.842993 0.706251 -0.886065
H14   H     H_    0.253017 0.854576 0.673519 0.250923
H15   H     H_    0.073026 0.962862 0.726080 0.197398
H16   H     H_    0.068531 0.774598 0.776740 0.254701

loop_
_geom_bond_atom_site_label_1
_geom_bond_atom_site_label_2
_ccdc_geom_bond_type
C2    C4    A    
C6    C7    A    
Cu1   N2    S    
C13   C14   S    
C19   C20   A    
C15   O7    A    
C8    C17   A    
C1    C11   S    
C1    O2    A    
C4    C8    A    
C19   H9    S    
C12   O4    A    
C22   H15   S    
C2    C3    A    
C15   O8    A    
C18   H7    S    
C20   H8    S    
C21   H12   S    
C11   C13   D    
C6    H4    S    
Cu1   O5    S    
C10   C12   S    
H3    N2    S    
C14   O6    A    
Cu2   N1    S    
Cu2   O4    S    
C16   H5    S    
C22   H14   S    
C9    C16   A    
C10   C18   A    
C18   C19   A    
C3    C7    A    
C21   H13   S    
C12   O3    A    
C5    C6    A    
C8    H6    S    
C3    C10   A    
Cu2   O6    S    
C14   O5    A    
Cu1   O7    S    
C11   H11   S    
N1    O9    S    
O9    C21   S    
C13   H2    S    
C15   C17   S    
N1    N2    D    
C21   C22   S    
C9    C17   A    
Cu1   O1    S    
C9    H1    S    
C5    C16   A    
C7    H10   S    
Cu1   Cu2   S    
Cu2   O2    S    
C2    C20   A    
C22   H16   S    
Cu1   O3    S    
Cu2   O8    S    
C1    O1    A    
C4    C5    A    
