data_mof_unit_397.cif
_audit_creation_date              2012-12-10T16:57:10-0500
_audit_creation_method            fapswitch 2.2
_symmetry_space_group_name_H-M    P1
_symmetry_Int_Tables_number       1
_space_group_crystal_system       triclinic
_cell_length_a                    7.816326
_cell_length_b                    8.570268
_cell_length_c                    16.578192
_cell_angle_alpha                 91.836846
_cell_angle_beta                  80.789487
_cell_angle_gamma                 93.602478
_cell_volume                      1093.78291643

loop_
_atom_site_label
_atom_site_type_symbol
_atom_type_description
_atom_site_fract_x
_atom_site_fract_y
_atom_site_fract_z
_atom_type_partial_charge
C1    C     C_R   0.545922 0.794541 0.497924 0.965762
C2    C     C_R   0.369022 0.422816 0.229754 -0.209882
C3    C     C_R   0.635377 0.604935 0.852408 -0.137470
C4    C     C_R   0.364835 0.396177 0.147441 -0.137396
C5    C     C_R   0.480695 0.610594 0.906818 0.060153
C6    C     C_R   0.519562 0.390703 0.093049 0.060088
C7    C     C_R   0.321786 0.603502 0.878224 0.191365
C8    C     C_R   0.678432 0.397594 0.121674 0.191426
C9    C     C_R   0.315247 0.550539 0.797799 0.126674
C10   C     C_R   0.684887 0.450138 0.202170 0.126652
C11   C     C_2   0.482383 0.573368 0.991370 -0.150992
C12   C     C_R   0.454078 0.205459 0.502077 0.965807
C13   C     C_2   0.517937 0.427998 0.008503 -0.150995
C14   C     C_2   0.570049 0.958070 0.496740 -0.359953
C15   C     C_2   0.429951 0.041930 0.503261 -0.359980
C16   C     C_R   0.478015 0.506620 0.654880 0.903471
C17   C     C_R   0.521999 0.493446 0.345118 0.903461
C18   C     C_R   0.472727 0.540463 0.742475 -0.140711
C19   C     C_R   0.527366 0.459952 0.257489 -0.140750
C20   C     C_R   0.631110 0.577819 0.770136 -0.209955
H1    H     H_    0.752736 0.578745 0.728622 0.200984
H2    H     H_    0.977758 0.619466 0.561036 0.195873
H3    H     H_    0.247372 0.421709 0.271254 0.201011
H4    H     H_    0.556108 0.342072 0.960356 0.195942
H5    H     H_    0.444188 0.659289 0.039516 0.195913
H6    H     H_    0.241596 0.386851 0.125331 0.214310
H7    H     H_    0.758648 0.614404 0.874488 0.214315
H8    H     H_    0.702438 0.008913 0.490512 0.185367
H9    H     H_    0.297562 0.991087 0.509489 0.185367
H10   H     H_    0.022242 0.380534 0.438964 0.195896
I1    I     I_    0.927289 0.546854 0.229879 -0.331685
I2    I     I_    0.072779 0.453701 0.770232 -0.331600
I3    I     I_    0.100754 0.686460 0.955940 -0.286230
I4    I     I_    0.899538 0.314907 0.043904 -0.286209
N1    N     N_2   0.953500 0.457650 0.478520 -0.159008
N2    N     N_2   0.046500 0.542350 0.521480 -0.159013
O1    O     O_R   0.388470 0.738640 0.505270 -0.610170
O2    O     O_R   0.611530 0.261360 0.494730 -0.610158
O3    O     O_R   0.679650 0.711510 0.491500 -0.622243
O4    O     O_R   0.320350 0.288490 0.508500 -0.622240
O5    O     O_R   0.337210 0.515200 0.623500 -0.583263
O6    O     O_R   0.662790 0.484800 0.376500 -0.583254
O7    O     O_R   0.628380 0.488060 0.609730 -0.625932
O8    O     O_R   0.371620 0.511940 0.390270 -0.625922
Zn1   Zn    Zn3+2 0.305580 0.518120 0.509190 0.977587
Zn2   Zn    Zn3+2 0.694420 0.481880 0.490810 0.977586

loop_
_geom_bond_atom_site_label_1
_geom_bond_atom_site_label_2
_ccdc_geom_bond_type
C12   O4    A    
C2    C4    A    
C5    C11   S    
C7    I3    S    
C4    H6    S    
N1    N2    D    
C12   C15   S    
C1    O1    A    
C10   C19   A    
C3    H7    S    
C17   O8    A    
N2    Zn1   S    
C8    I4    S    
C20   H1    S    
C6    C13   S    
C11   C13   D    
C16   O7    A    
H10   N1    S    
O3    Zn2   S    
C10   I1    S    
C4    C6    A    
C17   C19   S    
C15   H9    S    
C18   C20   A    
C12   O2    A    
O4    Zn1   S    
O7    Zn2   S    
O2    Zn2   S    
C1    O3    A    
O1    Zn1   S    
C11   H5    S    
C7    C9    A    
C9    C18   A    
C3    C20   A    
H2    N2    S    
O8    Zn1   S    
C16   C18   S    
O6    Zn2   S    
C2    H3    S    
C5    C7    A    
O5    Zn1   S    
C17   O6    A    
C6    C8    A    
C1    C14   S    
C9    I2    S    
C14   H8    S    
C2    C19   A    
C14   C15   D    
N1    Zn2   S    
C16   O5    A    
C8    C10   A    
C13   H4    S    
C3    C5    A    
