data_mof_unit_85.cif
_audit_creation_date              2012-12-11T15:53:42-0500
_audit_creation_method            fapswitch 2.2
_symmetry_space_group_name_H-M    P1
_symmetry_Int_Tables_number       1
_space_group_crystal_system       triclinic
_cell_length_a                    10.657266
_cell_length_b                    10.666596
_cell_length_c                    16.929203
_cell_angle_alpha                 80.651834
_cell_angle_beta                  99.266166
_cell_angle_gamma                 118.836415
_cell_volume                      1655.80918949

loop_
_atom_site_label
_atom_site_type_symbol
_atom_type_description
_atom_site_fract_x
_atom_site_fract_y
_atom_site_fract_z
_atom_type_partial_charge
C1    C     C_R   0.385001 0.285554 0.631874 0.541934
C2    C     C_1   0.334479 0.188659 0.781933 0.019152
C3    C     C_1   0.318053 0.683306 0.280510 -0.058895
C4    C     C_R   0.415140 0.619105 0.601781 0.550613
C5    C     C_1   0.296587 0.707120 0.209774 -0.056682
C6    C     C_R   0.792376 0.647324 0.148013 0.027286
C7    C     C_R   0.759361 0.515108 0.193989 -0.025910
C8    C     C_R   0.721280 0.491390 0.270761 -0.000838
C9    C     C_R   0.713724 0.716579 0.252729 -0.120788
C10   C     C_R   0.755131 0.742403 0.174618 0.348519
C11   C     C_3   0.845675 0.435196 0.216493 -0.258101
C12   C     C_R   0.517535 0.719135 0.733424 -0.147559
C13   C     C_3   0.805748 0.411712 0.301089 -0.249690
C14   C     C_R   0.712183 0.597567 0.304059 -0.053044
C15   C     C_R   0.304290 0.129112 0.169648 0.011284
C16   C     C_R   0.781325 0.621397 0.626069 0.547391
C17   C     C_R   0.187027 0.118666 0.201770 0.040027
C18   C     C_R   0.191122 0.126885 0.281467 0.027940
C19   C     C_R   0.420060 0.125090 0.304691 -0.155615
C20   C     C_R   0.415804 0.118352 0.222583 -0.162078
C21   C     C_3   0.102845 0.198805 0.175749 -0.254595
C22   C     C_3   0.107473 0.210628 0.263931 -0.263072
C23   C     C_R   0.494801 0.736387 0.809156 -0.135679
C24   C     C_R   0.315075 0.146151 0.332441 0.019951
C25   C     C_R   0.947694 0.725301 0.851506 0.581666
C26   C     C_R   0.316910 0.705222 0.898787 0.575963
C27   C     C_R   0.287029 0.119440 0.858690 0.550732
C28   C     C_R   0.349016 0.221970 0.401813 0.552991
C29   C     C_R   0.882121 0.688533 0.082352 0.558024
C30   C     C_R   0.284415 0.739076 0.125531 0.551200
C31   C     C_R   0.283445 0.103707 0.086831 0.533077
C32   C     C_R   0.362117 0.657437 0.361903 0.550894
C33   C     C_R   0.700047 0.582462 0.389737 0.576524
C34   C     C_3   0.104438 0.451990 0.782003 0.738857
C35   C     C_R   0.358768 0.650656 0.838946 -0.009647
C36   C     C_R   0.263806 0.526256 0.801466 0.021517
C37   C     C_R   0.286961 0.508722 0.726743 -0.062986
C38   C     C_3   0.129799 0.432843 0.700061 0.335474
C39   C     C_R   0.405226 0.615130 0.687325 -0.048541
C40   C     C_1   0.849805 0.670104 0.702479 0.022736
C41   C     C_1   0.896783 0.704731 0.769224 0.044348
C42   C     C_1   0.365758 0.235732 0.714537 0.014306
Cr1   Cr    Cr6+3 0.608440 0.389080 0.519680 1.045297
Cr2   Cr    Cr6+3 0.288640 0.400090 0.490760 1.046113
Cr3   Cr    Cr6+3 0.602940 0.710800 0.489510 1.023676
Cr4   Cr    Cr6+3 0.052530 0.947560 0.964210 1.122311
Cr5   Cr    Cr6+3 0.059970 0.626800 0.992920 1.078166
Cr6   Cr    Cr6+3 0.373320 0.938440 0.995370 1.063014
F1    F     F_    0.042955 0.540900 0.777321 -0.655412
F2    F     F_    0.036685 0.324523 0.830135 -0.544633
F3    F     F_    0.083476 0.290389 0.689998 -0.586290
F4    F     F_    0.772950 0.866121 0.129393 -0.630735
H1    H     H_    0.900405 0.469992 0.343991 0.166301
H2    H     H_    0.164520 0.303929 0.140822 0.150489
H3    H     H_    0.577785 0.827375 0.839357 0.176087
H4    H     H_    0.094797 0.491918 0.648706 0.127721
H5    H     H_    0.695853 0.795794 0.274921 0.164717
H6    H     H_    0.963152 0.504389 0.212343 0.153260
H7    H     H_    0.500954 0.109498 0.200630 0.145934
H8    H     H_    0.992956 0.129898 0.148228 0.216021
H9    H     H_    0.170431 0.324167 0.278433 0.165219
H10   H     H_    0.999742 0.150045 0.287097 0.151072
H11   H     H_    0.617315 0.795494 0.708224 0.161685
H12   H     H_    0.797375 0.334077 0.186890 0.151946
H13   H     H_    0.737684 0.296927 0.320865 0.135041
H14   H     H_    0.511121 0.127709 0.344627 0.135696
O1    O     O_R   0.754020 0.497590 0.609930 -0.476592
O2    O     O_R   0.406180 0.826930 0.920660 -0.506074
O3    O     O_R   0.358620 0.062870 0.901950 -0.503487
O4    O     O_R   0.481420 0.271390 0.600630 -0.485983
O5    O     O_R   0.163910 0.085460 0.050210 -0.490403
O6    O     O_R   0.935200 0.815170 0.045770 -0.438246
O7    O     O_R   0.916120 0.596690 0.069430 -0.542127
O8    O     O_R   0.192310 0.631200 0.086170 -0.510289
O9    O     O_R   0.406770 0.819480 0.096420 -0.466253
O10   O     O_R   0.359170 0.055960 0.064880 -0.524856
O11   O     O_3   0.161940 0.837600 0.984160 -0.322486
O12   O     O_R   0.295080 0.533620 0.397890 -0.505036
O13   O     O_R   0.263810 0.254550 0.589590 -0.445065
O14   O     O_R   0.300820 0.531200 0.560890 -0.494393
O15   O     O_R   0.491480 0.744020 0.564270 -0.494716
O16   O     O_R   0.726290 0.693800 0.583010 -0.521278
O17   O     O_R   0.747830 0.500190 0.434090 -0.507527
O18   O     O_R   0.475680 0.273800 0.437630 -0.514288
O19   O     O_R   0.257620 0.257160 0.413750 -0.517710
O20   O     O_R   0.485280 0.746620 0.388440 -0.515743
O21   O     O_R   0.720550 0.696220 0.420010 -0.499179
O22   O     O_3   0.500010 0.499990 0.499980 -0.325933
O23   O     O_R   0.163320 0.092900 0.874450 -0.440052
O24   O     O_R   0.934650 0.822080 0.882840 -0.500686
O25   O     O_R   0.915520 0.604140 0.893670 -0.444901
O26   O     O_R   0.191760 0.638110 0.923230 -0.448080

loop_
_geom_bond_atom_site_label_1
_geom_bond_atom_site_label_2
_ccdc_geom_bond_type
C8    C13   S    
C28   O18   A    
Cr1   O17   S    
Cr5   O26   S    
Cr6   O10   S    
C35   C36   A    
Cr6   O3    S    
C10   F4    S    
C14   C33   S    
C7    C8    A    
Cr4   O23   S    
C13   H13   S    
C7    C11   S    
C12   C23   A    
C25   O24   A    
C18   C24   A    
Cr1   O22   S    
C36   C37   A    
Cr3   O21   S    
C2    C42   T    
C4    O14   A    
C21   H2    S    
C30   O8    A    
C29   O7    A    
C26   O26   A    
C19   H14   S    
C4    O15   A    
Cr3   O16   S    
C27   O23   A    
C2    C27   S    
C11   H6    S    
C9    C10   A    
Cr4   O6    S    
C27   O3    A    
C29   O6    A    
C31   O5    A    
C34   C38   S    
C21   C22   S    
Cr1   O18   S    
Cr6   O9    S    
C13   H1    S    
C15   C20   A    
C25   O25   A    
C34   F2    S    
Cr2   O14   S    
Cr3   O22   S    
Cr5   O7    S    
C21   H8    S    
C11   H12   S    
C25   C41   S    
C12   H11   S    
C38   F3    S    
C17   C21   S    
Cr6   O11   S    
C9    C14   A    
C37   C38   S    
C22   H10   S    
C1    C42   S    
C4    C39   S    
C32   O20   A    
C16   O16   A    
C17   C18   A    
C16   O1    A    
Cr6   O2    S    
C20   H7    S    
C15   C31   S    
C33   O17   A    
Cr4   O5    S    
C16   C40   S    
C40   C41   T    
Cr1   O4    S    
C23   C35   A    
C1    O13   A    
Cr5   O11   S    
Cr2   O19   S    
C5    C30   S    
C15   C17   A    
C34   F1    S    
C8    C14   A    
C18   C22   S    
Cr5   O25   S    
Cr2   O13   S    
Cr3   O15   S    
C24   C28   S    
Cr5   O8    S    
C3    C5    T    
C6    C10   A    
Cr4   O11   S    
C23   H3    S    
C6    C7    A    
Cr4   O24   S    
C1    O4    A    
C26   O2    A    
C19   C20   A    
Cr2   O12   S    
C19   C24   A    
C33   O21   A    
C37   C39   A    
C22   H9    S    
C30   O9    A    
C11   C13   S    
C31   O10   A    
C12   C39   A    
C34   C36   S    
Cr3   O20   S    
C9    H5    S    
C3    C32   S    
C32   O12   A    
C26   C35   S    
C6    C29   S    
C38   H4    S    
Cr1   O1    S    
C28   O19   A    
Cr2   O22   S    
