data_mof_unit_2321.cif
_audit_creation_date              2012-12-10T17:19:52-0500
_audit_creation_method            fapswitch 2.2
_symmetry_space_group_name_H-M    P1
_symmetry_Int_Tables_number       1
_space_group_crystal_system       triclinic
_cell_length_a                    9.639684
_cell_length_b                    10.921191
_cell_length_c                    15.579889
_cell_angle_alpha                 85.675822
_cell_angle_beta                  73.462658
_cell_angle_gamma                 90.558952
_cell_volume                      1567.0413217

loop_
_atom_site_label
_atom_site_type_symbol
_atom_type_description
_atom_site_fract_x
_atom_site_fract_y
_atom_site_fract_z
_atom_type_partial_charge
C1    C     C_R   0.998090 0.261985 0.506275 0.793791
C2    C     C_R   0.675685 0.475803 0.910611 0.115877
C3    C     C_R   0.776953 0.504560 0.957202 0.152244
C4    C     C_R   0.527547 0.451247 0.959075 -0.016330
C5    C     C_R   0.480086 0.469729 0.051950 0.060403
C6    C     C_R   0.585198 0.495976 0.096298 -0.200288
C7    C     C_R   0.730646 0.512478 0.049629 -0.242874
C8    C     C_R   0.426704 0.405249 0.918158 -0.232731
C9    C     C_R   0.281588 0.383292 0.964836 0.360144
C10   C     C_R   0.229662 0.415913 0.054057 0.055955
C11   C     C_R   0.329374 0.459751 0.097702 0.047323
C12   C     C_R   0.917595 0.499660 0.671855 0.803268
C13   C     C_R   0.080448 0.408303 0.100200 -0.219794
C14   C     C_R   0.030629 0.438966 0.188611 -0.191578
C15   C     C_R   0.274778 0.494923 0.185597 -0.225324
C16   C     C_R   0.270160 0.116138 0.491209 -0.168272
C17   C     C_R   0.399388 0.066430 0.442692 0.289675
C18   C     C_R   0.392521 0.964307 0.395471 -0.196776
C19   C     C_R   0.259364 0.904534 0.406379 -0.191428
C20   C     C_R   0.132432 0.945120 0.464532 0.095509
C21   C     C_R   0.133984 0.064370 0.491810 0.051252
C22   C     C_R   0.000799 0.126957 0.513058 -0.099628
C23   C     C_R   0.002186 0.738326 0.495074 0.770668
C24   C     C_R   0.870192 0.059362 0.529034 -0.218490
C25   C     C_R   0.870986 0.932895 0.523085 -0.200241
C26   C     C_R   0.002347 0.873882 0.491241 -0.104794
C27   C     C_R   0.707301 0.650834 0.369905 -0.118800
C28   C     C_R   0.670157 0.713188 0.299144 -0.219866
C29   C     C_R   0.528682 0.707884 0.296187 -0.253210
C30   C     C_R   0.423930 0.644047 0.365742 -0.137629
C31   C     C_R   0.458093 0.571247 0.434473 0.192054
C32   C     C_R   0.606292 0.573026 0.435465 0.150719
C33   C     C_R   0.542214 0.429021 0.563234 0.368213
C34   C     C_R   0.082301 0.497616 0.328414 0.774553
C35   C     C_R   0.394046 0.432793 0.562962 -0.087457
C36   C     C_R   0.871697 0.498864 0.770191 -0.070939
C37   C     C_R   0.128237 0.480364 0.232111 -0.040407
C38   C     C_R   0.923806 0.525863 0.910656 -0.177768
C39   C     C_R   0.971251 0.521456 0.817837 -0.143143
C40   C     C_R   0.725454 0.476936 0.816539 -0.258477
Cu1   Cu    Cu3+1 0.140660 0.499990 0.500010 0.927520
Cu2   Cu    Cu3+1 0.859340 0.500010 0.499990 0.922972
H1    H     H_    0.807001 0.533580 0.086176 0.146652
H2    H     H_    0.000386 0.378658 0.069126 0.143539
H3    H     H_    0.767213 0.103976 0.547656 0.174642
H4    H     H_    0.279684 0.191459 0.530220 0.167882
H5    H     H_    0.490066 0.932293 0.350576 0.154845
H6    H     H_    0.251102 0.834232 0.363849 0.119652
H7    H     H_    0.768511 0.881747 0.542085 0.170857
H8    H     H_    0.815386 0.668222 0.371179 0.191155
H9    H     H_    0.750473 0.769259 0.248171 0.150476
H10   H     H_    0.344053 0.535679 0.219560 0.144354
H11   H     H_    0.497928 0.760125 0.242970 0.152533
H12   H     H_    0.316602 0.657556 0.365452 0.186170
H13   H     H_    0.310268 0.379809 0.613192 0.155997
H14   H     H_    0.916092 0.427944 0.223370 0.156451
H15   H     H_    0.001829 0.547262 0.945943 0.155417
H16   H     H_    0.085033 0.538749 0.783253 0.171335
H17   H     H_    0.651516 0.464867 0.777319 0.177162
H18   H     H_    0.559627 0.500655 0.167899 0.154647
H19   H     H_    0.458845 0.378070 0.850505 0.179843
N1    N     N_R   0.648320 0.501210 0.499140 -0.246033
N2    N     N_R   0.352470 0.501290 0.499110 -0.231805
O1    O     O_R   0.118810 0.319640 0.500010 -0.588542
O2    O     O_R   0.881240 0.319660 0.500000 -0.600072
O3    O     O_R   0.055570 0.499980 0.629840 -0.581469
O4    O     O_R   0.818000 0.500010 0.629830 -0.584203
O5    O     O_R   0.118760 0.680340 0.500000 -0.575304
O6    O     O_R   0.881190 0.680360 0.499990 -0.596843
O7    O     O_R   0.182000 0.499990 0.370170 -0.600922
O8    O     O_R   0.944430 0.500020 0.370160 -0.601977
N3    N     N_2   0.535262 0.121951 0.438997 -0.449502
H20   H     H_    0.619726 0.062291 0.426409 0.251944
C41   C     C_3   0.570686 0.235286 0.381924 -0.677780
H21   H     H_    0.672014 0.277315 0.388702 0.243646
H22   H     H_    0.482930 0.301565 0.401427 0.242058
H23   H     H_    0.587130 0.216852 0.310583 0.220172
N4    N     N_2   0.579239 0.352736 0.632039 -0.425514
H24   H     H_    0.684134 0.327312 0.618285 0.304712
C42   C     C_3   0.480548 0.254335 0.682365 -0.787612
H25   H     H_    0.532421 0.199958 0.727285 0.236885
H26   H     H_    0.453438 0.191957 0.635911 0.246253
H27   H     H_    0.381044 0.292188 0.725946 0.262251
O9    O     O_3   0.194709 0.331434 0.919625 -0.750811
H28   H     H_    0.121285 0.276111 0.962831 0.320965

loop_
_geom_bond_atom_site_label_1
_geom_bond_atom_site_label_2
_ccdc_geom_bond_type
C8    C9    A    
C14   H14   S    
C16   C21   A    
C34   C37   S    
Cu1   Cu2   S    
C23   O6    A    
C19   C20   A    
C4    C8    A    
C18   H5    S    
C30   H12   S    
C41   H22   S    
C24   H3    S    
C28   C29   A    
C5    C11   A    
C3    C7    A    
C38   C39   A    
C42   H25   S    
C28   H9    S    
N4    C42   S    
C33   N4    S    
C18   C19   A    
C23   C26   S    
C15   C37   A    
C11   C15   A    
C3    C38   A    
C33   N1    A    
C41   H23   S    
Cu2   O2    S    
C1    O2    A    
C7    H1    S    
C12   C36   S    
C9    C10   A    
Cu2   N1    S    
C27   H8    S    
C8    H19   S    
C1    C22   S    
C40   H17   S    
C21   C22   A    
C42   H27   S    
Cu1   O5    S    
C12   O4    A    
C41   H21   S    
C35   H13   S    
C31   N2    A    
C36   C40   A    
O9    H28   S    
N3    C41   S    
C16   H4    S    
N4    H24   S    
C16   C17   A    
C25   C26   A    
C39   H16   S    
C12   O3    A    
Cu2   O6    S    
C23   O5    A    
C2    C4    A    
C29   C30   A    
C6    H18   S    
C38   H15   S    
C31   C32   A    
C30   C31   A    
C17   C18   A    
C15   H10   S    
C24   C25   A    
Cu1   O3    S    
C42   H26   S    
Cu2   O4    S    
C22   C24   A    
Cu1   N2    S    
C1    O1    A    
C34   O7    A    
C27   C32   A    
C19   H6    S    
C36   C39   A    
N3    H20   S    
C20   C26   A    
C10   C13   A    
C6    C7    A    
C2    C3    A    
C32   N1    A    
C14   C37   A    
C5    C6    A    
C29   H11   S    
Cu2   O8    S    
C33   C35   A    
C25   H7    S    
C10   C11   A    
C9    O9    S    
C2    C40   A    
C4    C5    A    
C20   C21   A    
C17   N3    S    
C27   C28   A    
C35   N2    A    
Cu1   O1    S    
C13   C14   A    
C34   O8    A    
C13   H2    S    
Cu1   O7    S    
