data_mof_unit_713.cif
_audit_creation_date              2012-12-11T16:33:26-0500
_audit_creation_method            fapswitch 2.2
_symmetry_space_group_name_H-M    P1
_symmetry_Int_Tables_number       1
_space_group_crystal_system       triclinic
_cell_length_a                    6.960196
_cell_length_b                    18.167472
_cell_length_c                    20.267399
_cell_angle_alpha                 68.430652
_cell_angle_beta                  90.04147
_cell_angle_gamma                 90.351008
_cell_volume                      2383.28360916

loop_
_atom_site_label
_atom_site_type_symbol
_atom_type_description
_atom_site_fract_x
_atom_site_fract_y
_atom_site_fract_z
_atom_type_partial_charge
O1    O     O_R   0.488960 0.443750 0.941980 -0.535849
O2    O     O_R   0.823890 0.406510 0.087590 -0.535150
O3    O     O_R   0.999680 0.556250 0.058020 -0.531035
C1    C     C_R   0.654849 0.383363 0.114729 0.786631
O4    O     O_R   0.818360 0.434410 0.944340 -0.540095
O5    O     O_R   0.994110 0.584350 0.913750 -0.538520
C2    C     C_R   0.650130 0.420039 0.924188 0.708867
O6    O     O_R   0.494530 0.415650 0.086250 -0.532153
O7    O     O_3   0.662590 0.549160 0.990130 -0.362862
V1    V     V_3+5 0.935320 0.490880 0.001830 1.453203
O8    O     O_R   0.324180 0.593490 0.912410 -0.539935
C3    C     C_R   0.155405 0.617040 0.885507 0.687936
O9    O     O_R   0.329720 0.565590 0.055660 -0.534692
C4    C     C_R   0.161339 0.579822 0.076022 0.722824
V2    V     V_3+5 0.435990 0.509120 0.998170 1.452255
O10   O     O_3   0.158850 0.450840 0.009870 -0.369385
C5    C     C_3   0.116951 0.701344 0.316567 -0.139226
C6    C     C_3   0.285329 0.702774 0.266003 -0.134669
H1    H     H_    0.411070 0.662661 0.279941 0.104387
H2    H     H_    0.103586 0.660408 0.372676 0.108551
H3    H     H_    0.428356 0.830009 0.234699 0.105940
C7    C     C_1   0.153486 0.625885 0.121312 -0.208157
C8    C     C_1   0.112472 0.876350 0.376509 -0.201527
C9    C     C_3   0.971415 0.708071 0.256657 -0.138121
C10   C     C_3   0.139692 0.710114 0.206708 0.168897
C11   C     C_3   0.980895 0.799605 0.231616 -0.133663
C12   C     C_3   0.126538 0.792281 0.290918 0.166956
C13   C     C_3   0.149278 0.801039 0.181048 -0.135162
C14   C     C_3   0.294820 0.794309 0.240963 -0.135557
C15   C     C_1   0.147177 0.663966 0.159630 -0.066590
C16   C     C_1   0.118972 0.838412 0.338049 -0.066209
H4    H     H_    0.162641 0.841924 0.124916 0.118604
H5    H     H_    0.855114 0.839689 0.217658 0.107097
H6    H     H_    0.837944 0.672326 0.262907 0.103034
C17   C     C_R   0.195477 0.777489 0.877495 -0.180130
C18   C     C_R   0.207009 0.854003 0.877877 0.228315
C19   C     C_R   0.184419 0.918111 0.814745 -0.141593
C20   C     C_R   0.151506 0.907564 0.750576 0.116518
C21   C     C_R   0.144485 0.829441 0.748381 0.046650
C22   C     C_R   0.163110 0.763714 0.814039 0.001195
C23   C     C_R   0.117618 0.814909 0.683904 -0.168919
C24   C     C_R   0.101397 0.735023 0.686347 0.049027
C25   C     C_R   0.111635 0.670890 0.753296 -0.021488
C26   C     C_R   0.145440 0.685136 0.816385 -0.125118
C27   C     C_R   0.075705 0.715679 0.624345 0.155252
C28   C     C_R   0.052935 0.636876 0.630166 -0.191408
C29   C     C_R   0.057861 0.575228 0.695815 0.228483
C30   C     C_R   0.089767 0.592142 0.756382 -0.156460
H7    H     H_    0.211017 0.728804 0.927752 0.098846
H8    H     H_    0.190870 0.977436 0.815446 0.171049
H9    H     H_    0.031842 0.623936 0.582541 0.113599
H10   H     H_    0.096828 0.542092 0.806089 0.128772
C31   C     C_R   0.601585 0.097549 0.255866 -0.142009
C32   C     C_R   0.597485 0.082877 0.193110 -0.124748
C33   C     C_R   0.609140 0.145243 0.128200 -0.097667
C34   C     C_R   0.624764 0.222651 0.125671 -0.134290
C35   C     C_R   0.629201 0.239537 0.188670 0.038218
C36   C     C_R   0.617599 0.175822 0.255196 0.078680
C37   C     C_R   0.644508 0.318454 0.185484 -0.156880
C38   C     C_R   0.648474 0.335027 0.249254 0.042265
C39   C     C_R   0.638983 0.270604 0.317195 -0.075316
C40   C     C_R   0.622344 0.190337 0.319464 -0.143499
C41   C     C_R   0.661755 0.414731 0.247414 0.149984
C42   C     C_R   0.669048 0.429662 0.309829 -0.274748
C43   C     C_R   0.663250 0.368763 0.375360 0.278026
C44   C     C_R   0.646812 0.290232 0.379944 0.174255
H11   H     H_    0.592021 0.046487 0.304744 0.104688
H12   H     H_    0.585239 0.022715 0.194928 0.111488
H13   H     H_    0.605999 0.133653 0.079485 0.119560
H14   H     H_    0.633244 0.268950 0.073625 0.084463
H15   H     H_    0.680226 0.490377 0.306809 0.123534
O11   O     O_R   0.770540 0.084530 0.414050 -0.541342
O12   O     O_R   0.445710 0.065660 0.555720 -0.538474
O13   O     O_R   0.270420 0.915650 0.586190 -0.531609
C45   C     C_R   0.613237 0.076886 0.578595 0.713493
O14   O     O_R   0.441140 0.093540 0.412470 -0.542144
O15   O     O_R   0.265820 0.943740 0.441930 -0.536502
C46   C     C_R   0.610906 0.119816 0.387343 0.680831
O16   O     O_R   0.775150 0.056440 0.558310 -0.531203
O17   O     O_3   0.602370 0.950960 0.510050 -0.371143
V3    V     V_3+5 0.329450 0.009140 0.498150 1.453642
O18   O     O_R   0.935790 0.934280 0.444060 -0.537472
C47   C     C_R   0.104166 0.921949 0.422253 0.755191
O19   O     O_R   0.940370 0.906390 0.587310 -0.530146
C48   C     C_R   0.108956 0.882898 0.614657 0.881826
V4    V     V_3+5 0.828810 0.990710 0.501460 1.448204
O20   O     O_3   0.105780 0.049100 0.489960 -0.367194
C49   C     C_3   0.768256 0.303218 0.727509 -0.294895
C50   C     C_3   0.584468 0.291567 0.689590 0.150947
H16   H     H_    0.875474 0.350944 0.704025 0.154904
C51   C     C_1   0.617719 0.121002 0.625232 -0.138895
C52   C     C_1   0.645045 0.373329 0.879708 -0.177778
C53   C     C_3   0.803732 0.212336 0.751592 0.308811
C54   C     C_3   0.620473 0.202316 0.712677 0.025767
C55   C     C_3   0.682411 0.198380 0.818631 0.169471
C56   C     C_3   0.645745 0.287760 0.795778 0.047706
C57   C     C_3   0.498609 0.186250 0.780966 -0.205120
C58   C     C_3   0.465245 0.276691 0.756706 0.240452
C59   C     C_1   0.617101 0.157575 0.664646 0.094685
C60   C     C_1   0.646354 0.334496 0.842164 0.028277
H17   H     H_    0.398155 0.136395 0.806519 0.189466
N1    N     N_3   0.119884 0.977358 0.688987 -0.659039
H18   H     H_    0.999357 0.006349 0.698171 0.255752
H19   H     H_    0.238634 0.014970 0.682243 0.247331
N2    N     N_3   0.074978 0.774585 0.554397 -0.687639
H20   H     H_    0.944686 0.770291 0.530269 0.226027
H21   H     H_    0.186019 0.761954 0.525526 0.217321
N3    N     N_3   0.672469 0.385940 0.439151 -0.628191
H22   H     H_    0.670283 0.447006 0.427427 0.209148
H23   H     H_    0.805066 0.365813 0.463059 0.236704
N4    N     N_3   0.667746 0.482566 0.182594 -0.644891
H24   H     H_    0.551222 0.518858 0.182065 0.227061
H25   H     H_    0.793927 0.514343 0.181996 0.228237
N5    N     N_3   0.638165 0.232933 0.450355 -0.651730
H26   H     H_    0.757144 0.195974 0.459347 0.232315
H27   H     H_    0.506205 0.203492 0.458178 0.239089
N6    N     N_3   0.525284 0.342633 0.618727 -0.626618
H28   H     H_    0.513048 0.399896 0.618815 0.221300
H29   H     H_    0.638293 0.343995 0.584437 0.256817
N7    N     N_3   0.281603 0.314084 0.757953 -0.602895
H30   H     H_    0.203769 0.313702 0.714054 0.274657
H31   H     H_    0.309550 0.373548 0.749036 0.238931
N8    N     N_3   0.740956 0.147620 0.889725 -0.618166
H32   H     H_    0.749083 0.089919 0.890427 0.246294
H33   H     H_    0.630057 0.147939 0.924349 0.223684
Br1   Br    Br    0.034375 0.156125 0.747084 -0.638553
N9    N     N_3   0.033578 0.494474 0.702066 -0.684358
H34   H     H_    0.015758 0.491155 0.651995 0.218916
H35   H     H_    0.905878 0.473617 0.730016 0.228570
N10   N     N_3   0.240629 0.867749 0.942330 -0.664318
H36   H     H_    0.116732 0.893453 0.953337 0.230265
H37   H     H_    0.259516 0.814160 0.984926 0.223004

loop_
_geom_bond_atom_site_label_1
_geom_bond_atom_site_label_2
_ccdc_geom_bond_type
C36   C40   A    
C33   C34   A    
C49   C56   S    
C53   C54   S    
C12   C14   S    
C23   C24   A    
C32   C33   A    
O2    C1    A    
C55   C56   S    
C1    O6    A    
C57   C58   S    
N8    H32   S    
C21   C23   A    
C31   C32   A    
C34   C35   A    
C10   C13   S    
N2    H21   S    
C11   C12   S    
C8    C47   S    
C38   C41   A    
C13   C14   S    
O14   C46   A    
N6    H29   S    
O5    C3    A    
C20   C21   A    
N8    H33   S    
C32   H12   S    
O15   C47   A    
V2    O10   S    
C5    H2    S    
N3    H22   S    
C6    H1    S    
C42   H15   S    
C50   C54   S    
C53   Br1   S    
O17   V4    S    
C28   C29   A    
O8    V2    S    
C39   C44   A    
N4    H24   S    
N7    H31   S    
C56   C58   S    
C17   H7    S    
O11   C46   A    
C29   N9    S    
O1    V2    S    
C7    C15   T    
C25   C30   A    
C43   N3    S    
C45   C51   S    
C37   C38   A    
C53   C55   S    
O9    C4    A    
O12   C45   A    
N1    H18   S    
C6    C10   S    
O12   V3    S    
C27   N2    S    
N5    H26   S    
C22   C26   A    
C5    C9    S    
C12   C16   S    
C5    C12   S    
C13   H4    S    
O19   C48   A    
C21   C22   A    
O4    C2    A    
V4    O20   S    
C54   C57   S    
O18   V4    S    
H3    C14   S    
C28   H9    S    
O18   C47   A    
C9    H6    S    
C38   C39   A    
C24   C27   A    
C8    C16   T    
N10   H37   S    
C25   C26   A    
N9    H35   S    
C19   C20   A    
C18   N10   S    
C11   H5    S    
N5    H27   S    
C29   C30   A    
O15   V3    S    
C31   C36   A    
C5    C6    S    
N4    H25   S    
C6    C14   S    
V3    O20   S    
C9    C10   S    
N1    H19   S    
C33   H13   S    
O3    C4    A    
C49   H16   S    
C50   N6    S    
O6    V2    S    
C34   H14   S    
O9    V2    S    
C24   C25   A    
O13   V3    S    
N9    H34   S    
O2    V1    S    
N7    H30   S    
C52   C60   T    
O7    V1    S    
C55   N8    S    
C10   C15   S    
C49   C53   S    
C18   C19   A    
C44   N5    S    
O1    C2    A    
C40   C46   S    
C9    C11   S    
O17   V3    S    
O14   V3    S    
O5    V1    S    
O11   V4    S    
O8    C3    A    
C55   C57   S    
C58   N7    S    
C23   C48   S    
N2    H20   S    
C11   C13   S    
C50   C58   S    
C42   C43   A    
C4    C7    S    
N10   H36   S    
O7    V2    S    
O4    V1    S    
C3    C26   S    
O3    V1    S    
V1    O10   S    
N6    H28   S    
C19   H8    S    
C35   C36   A    
C54   C59   S    
C2    C52   S    
C56   C60   S    
C1    C37   S    
N3    H23   S    
C17   C22   A    
O13   C48   A    
C41   N4    S    
C39   C40   A    
C31   H11   S    
C35   C37   A    
C41   C42   A    
C27   C28   A    
C30   H10   S    
C49   C50   S    
C20   N1    S    
C43   C44   A    
O19   V4    S    
C17   C18   A    
C51   C59   T    
C45   O16   A    
O16   V4    S    
C57   H17   S    
