data_mof_unit_2685.cif
_audit_creation_date              2012-12-10T19:01:20-0500
_audit_creation_method            fapswitch 2.2
_symmetry_space_group_name_H-M    P1
_symmetry_Int_Tables_number       1
_space_group_crystal_system       triclinic
_cell_length_a                    9.546883
_cell_length_b                    10.830514
_cell_length_c                    15.581656
_cell_angle_alpha                 89.465809
_cell_angle_beta                  74.161509
_cell_angle_gamma                 90.270983
_cell_volume                      1549.82905246

loop_
_atom_site_label
_atom_site_type_symbol
_atom_type_description
_atom_site_fract_x
_atom_site_fract_y
_atom_site_fract_z
_atom_type_partial_charge
C1    C     C_R   0.998496 0.262450 0.502826 0.820729
C2    C     C_R   0.671008 0.513336 0.905340 0.094561
C3    C     C_R   0.770584 0.554825 0.951999 0.165018
C4    C     C_R   0.520329 0.499474 0.951199 0.068513
C5    C     C_R   0.473983 0.518542 0.044982 0.067083
C6    C     C_R   0.577350 0.560198 0.088485 -0.213394
C7    C     C_R   0.722211 0.578447 0.042711 -0.233755
C8    C     C_R   0.413909 0.470805 0.906247 -0.203722
C9    C     C_R   0.267770 0.458258 0.951915 -0.233834
C10   C     C_R   0.221876 0.471833 0.044016 0.164885
C11   C     C_R   0.324755 0.499151 0.091786 0.093117
C12   C     C_R   0.918008 0.500961 0.671792 0.799969
C13   C     C_R   0.073738 0.457515 0.089110 -0.208726
C14   C     C_R   0.026161 0.469848 0.181430 -0.193731
C15   C     C_R   0.274912 0.503461 0.185241 -0.248750
C16   C     C_R   0.119698 0.064442 0.510695 0.128173
C17   C     C_R   0.993038 0.129830 0.515236 -0.200080
C18   C     C_R   0.859613 0.065820 0.539187 -0.200401
C19   C     C_R   0.856434 0.936576 0.543012 0.158765
C20   C     C_R   0.990123 0.870759 0.519343 -0.161130
C21   C     C_R   0.118456 0.937656 0.512470 0.045451
C22   C     C_3   0.266083 0.931502 0.447932 -0.492468
C23   C     C_R   0.997347 0.737696 0.505240 0.831279
C24   C     C_3   0.266106 0.071821 0.445065 0.238139
C25   C     C_R   0.608334 0.524754 0.423407 0.268803
C26   C     C_R   0.541332 0.462295 0.573006 -0.012689
C27   C     C_R   0.392697 0.462537 0.573066 -0.003087
C28   C     C_R   0.460846 0.525452 0.423551 0.288259
C29   C     C_3   0.481666 0.642795 0.370814 -0.515914
C30   C     C_3   0.641241 0.639989 0.368710 -0.488501
C31   C     C_R   0.081953 0.497960 0.328026 0.791605
C32   C     C_R   0.872138 0.511108 0.769082 -0.041014
C33   C     C_R   0.127092 0.491723 0.230098 -0.048888
C34   C     C_R   0.917908 0.574126 0.907130 -0.211927
C35   C     C_R   0.968456 0.552684 0.816079 -0.191070
C36   C     C_R   0.726176 0.488261 0.814081 -0.228051
Cu1   Cu    Cu3+1 0.140670 0.499980 0.500000 0.976233
Cu2   Cu    Cu3+1 0.859330 0.500020 0.500000 0.975492
H1    H     H_    0.796927 0.611821 0.078794 0.146589
H2    H     H_    0.994730 0.435953 0.053004 0.144711
H3    H     H_    0.757918 0.115580 0.552367 0.211711
H4    H     H_    0.346904 0.893380 0.480368 0.247728
H5    H     H_    0.264394 0.888938 0.383546 0.162101
H6    H     H_    0.263797 0.111828 0.379472 0.105418
H7    H     H_    0.569124 0.432649 0.632612 0.130185
H8    H     H_    0.310737 0.433515 0.632615 0.138345
H9    H     H_    0.462955 0.632352 0.304413 0.182846
H10   H     H_    0.349926 0.511679 0.225037 0.145818
H11   H     H_    0.422202 0.719609 0.410082 0.221696
H12   H     H_    0.714333 0.622880 0.301054 0.187030
H13   H     H_    0.674953 0.717944 0.404528 0.244822
H14   H     H_    0.911330 0.458713 0.214780 0.154443
H15   H     H_    0.190161 0.436886 0.914671 0.149888
H16   H     H_    0.993522 0.608283 0.942227 0.144232
H17   H     H_    0.081687 0.571541 0.782188 0.156441
H18   H     H_    0.658138 0.450551 0.775911 0.138729
H19   H     H_    0.549382 0.584149 0.157690 0.135996
H20   H     H_    0.438583 0.460754 0.835042 0.138574
N1    N     N_R   0.648210 0.500930 0.499430 -0.184419
N2    N     N_R   0.352300 0.500890 0.499430 -0.187223
O1    O     O_R   0.118810 0.319640 0.500000 -0.545557
O2    O     O_R   0.881230 0.319680 0.499990 -0.576018
O3    O     O_R   0.055580 0.499970 0.629840 -0.596587
O4    O     O_R   0.818000 0.500010 0.629830 -0.588610
O5    O     O_R   0.118770 0.680320 0.500010 -0.577808
O6    O     O_R   0.881190 0.680360 0.500000 -0.557510
O7    O     O_R   0.182000 0.499990 0.370170 -0.586881
O8    O     O_R   0.944420 0.500030 0.370160 -0.586020
I1    I     I_    0.644300 0.855716 0.585559 -0.341736
Cl1   Cl    Cl    0.398618 0.139366 0.492458 -0.603872

loop_
_geom_bond_atom_site_label_1
_geom_bond_atom_site_label_2
_ccdc_geom_bond_type
C22   H4    S    
Cu1   O1    S    
C30   H13   S    
C31   C33   S    
C34   H16   S    
C16   C21   A    
C36   H18   S    
C9    C10   A    
C1    C17   S    
C19   C20   A    
C26   H7    S    
C20   C23   S    
C4    C8    A    
C1    O2    A    
C23   O5    A    
C14   C33   A    
C17   C18   A    
C30   H12   S    
C24   Cl1   S    
C16   C24   S    
C29   H11   S    
C21   C22   S    
C12   C32   S    
C25   C28   A    
C31   O7    A    
Cu2   O6    S    
C6    H19   S    
C26   C27   A    
C29   C30   S    
C15   H10   S    
C29   H9    S    
C12   O4    A    
C2    C4    A    
Cu1   O7    S    
C27   H8    S    
C28   C29   S    
Cu1   O3    S    
Cu1   Cu2   S    
Cu2   O8    S    
C5    C11   A    
C6    C7    A    
C3    C7    A    
C27   N2    A    
C28   N2    A    
C5    C6    A    
C24   H6    S    
C22   C24   S    
C19   I1    S    
Cu1   N2    S    
C9    H15   S    
C10   C11   A    
C35   H17   S    
Cu2   N1    S    
C32   C35   A    
C32   C36   A    
C31   O8    A    
C23   O6    A    
C8    C9    A    
C34   C35   A    
C26   N1    A    
C18   H3    S    
C2    C36   A    
C25   C30   S    
C12   O3    A    
Cu2   O4    S    
C7    H1    S    
C18   C19   A    
C13   H2    S    
C2    C3    A    
C25   N1    A    
C3    C34   A    
C8    H20   S    
C20   C21   A    
C13   C14   A    
C11   C15   A    
C15   C33   A    
C14   H14   S    
C22   H5    S    
C16   C17   A    
Cu1   O5    S    
C4    C5    A    
Cu2   O2    S    
C10   C13   A    
C1    O1    A    
