data_mof_unit_4104.cif
_audit_creation_date              2012-10-26T19:52:21-0400
_audit_creation_method            fapswitch 2.2
_symmetry_space_group_name_H-M    P1
_symmetry_Int_Tables_number       1
_space_group_crystal_system       triclinic
_cell_length_a                    9.625213
_cell_length_b                    10.873346
_cell_length_c                    13.35539
_cell_angle_alpha                 91.695003
_cell_angle_beta                  72.157668
_cell_angle_gamma                 90.016515
_cell_volume                      1329.88599965

loop_
_atom_site_label
_atom_site_type_symbol
_atom_type_description
_atom_site_fract_x
_atom_site_fract_y
_atom_site_fract_z
_atom_type_partial_charge
C1    C     C_R   0.500121 0.737407 0.501648 0.547520
C2    C     C_R   0.379435 0.469802 0.814896 -0.008260
C3    C     C_R   0.385246 0.939579 0.569705 0.009310
C4    C     C_R   0.422573 0.490226 0.699993 0.536678
C5    C     C_R   0.503913 0.870880 0.507152 0.013555
C6    C     C_R   0.632695 0.933392 0.454857 -0.155691
C7    C     C_R   0.632605 0.062083 0.452642 -0.163401
C8    C     C_R   0.503380 0.129032 0.501534 0.009609
C9    C     C_R   0.383494 0.066112 0.563783 0.022487
C10   C     C_3   0.228698 0.066781 0.564426 -0.274048
C11   C     C_3   0.227841 0.930065 0.579931 -0.288472
C12   C     C_R   0.435519 0.433295 0.978804 0.040265
C13   C     C_R   0.956761 0.429063 0.428477 0.146041
C14   C     C_R   0.895863 0.578101 0.562770 0.013373
C15   C     C_R   0.041318 0.575828 0.567300 0.116025
C16   C     C_R   0.501010 0.262468 0.498547 0.542733
C17   C     C_R   0.104237 0.429447 0.428062 0.142113
C18   C     C_3   0.109350 0.292979 0.421691 -0.285549
C19   C     C_3   0.953930 0.292984 0.418682 -0.282104
C20   C     C_R   0.578742 0.495618 0.299472 0.545339
C21   C     C_R   0.795274 0.387030 0.024294 -0.142451
C22   C     C_R   0.623570 0.471518 0.184900 -0.004646
C23   C     C_R   0.479603 0.429140 0.867170 0.015633
C24   C     C_R   0.235921 0.497446 0.875250 -0.161674
C25   C     C_R   0.187349 0.477349 0.982417 -0.127212
C26   C     C_R   0.283703 0.435906 0.033951 0.021192
C27   C     C_3   0.065062 0.660659 0.651586 -0.262594
C28   C     C_3   0.968141 0.627024 0.761438 -0.459717
C29   C     C_3   0.218782 0.369187 0.135874 -0.284206
C30   C     C_3   0.146528 0.249801 0.115157 -0.440690
C31   C     C_R   0.545055 0.432651 0.029645 0.025703
C32   C     C_R   0.688117 0.392944 0.973218 0.052174
C33   C     C_R   0.721874 0.360713 0.866495 -0.152572
C34   C     C_R   0.620241 0.380916 0.813432 -0.128274
C35   C     C_R   0.518400 0.480188 0.132615 -0.143074
C36   C     C_R   0.762689 0.424696 0.130076 -0.145509
Cu1   Cu    Cu3+1 0.359330 0.500020 0.500010 0.921187
Cu2   Cu    Cu3+1 0.640670 0.499980 0.499990 0.917698
H1    H     H_    0.845032 0.415559 0.169387 0.121342
H2    H     H_    0.942011 0.261470 0.342030 0.117569
H3    H     H_    0.829166 0.325019 0.822831 0.102024
H4    H     H_    0.877655 0.250330 0.488793 0.153992
H5    H     H_    0.903580 0.352450 0.982317 0.101019
H6    H     H_    0.414412 0.523778 0.173144 0.128223
H7    H     H_    0.159133 0.529281 0.838501 0.128652
H8    H     H_    0.072652 0.488976 0.024734 0.117676
H9    H     H_    0.652767 0.353504 0.731215 0.157731
H10   H     H_    0.730612 0.882988 0.411148 0.130168
H11   H     H_    0.974353 0.526708 0.772693 0.157186
H12   H     H_    0.730622 0.108284 0.408023 0.117541
H13   H     H_    0.002522 0.679692 0.822174 0.133280
H14   H     H_    0.852226 0.651721 0.773291 0.146105
H15   H     H_    0.178627 0.666879 0.651158 0.214271
H16   H     H_    0.030304 0.753569 0.637015 0.099882
H17   H     H_    0.047473 0.269439 0.092420 0.142704
H18   H     H_    0.224071 0.193896 0.051197 0.164031
H19   H     H_    0.114797 0.194326 0.186844 0.127322
H20   H     H_    0.302153 0.341026 0.172251 0.152097
H21   H     H_    0.137641 0.429498 0.193481 0.138581
H22   H     H_    0.155101 0.119919 0.632455 0.133839
H23   H     H_    0.220199 0.085067 0.485322 0.135087
H24   H     H_    0.164182 0.906881 0.661472 0.127170
H25   H     H_    0.205824 0.875102 0.514957 0.152467
H26   H     H_    0.815050 0.640354 0.613340 0.130662
H27   H     H_    0.190280 0.255377 0.348871 0.124300
H28   H     H_    0.116529 0.258748 0.496879 0.149476
N1    N     N_R   0.852320 0.499070 0.499340 -0.249270
N2    N     N_R   0.148230 0.499110 0.499340 -0.226854
O1    O     O_R   0.381190 0.680360 0.500000 -0.516089
O2    O     O_R   0.618780 0.680320 0.499990 -0.505273
O3    O     O_R   0.323230 0.500000 0.650990 -0.512158
O4    O     O_R   0.560820 0.499960 0.650980 -0.512340
O5    O     O_R   0.381220 0.319680 0.500010 -0.500822
O6    O     O_R   0.618810 0.319640 0.500000 -0.515149
O7    O     O_R   0.439180 0.500040 0.349020 -0.500329
O8    O     O_R   0.676770 0.500000 0.349010 -0.494605

loop_
_geom_bond_atom_site_label_1
_geom_bond_atom_site_label_2
_ccdc_geom_bond_type
C24   C25   A    
Cu2   O2    S    
Cu1   O1    S    
C10   H22   S    
C11   H24   S    
C27   H16   S    
C7    C8    A    
C21   C36   A    
Cu2   O8    S    
C18   H27   S    
C22   C35   A    
C12   C23   A    
Cu1   Cu2   S    
C6    H10   S    
C1    C5    S    
C24   H7    S    
C11   H25   S    
Cu2   O6    S    
C5    C6    A    
C28   H13   S    
C30   H19   S    
C20   O8    A    
C18   C19   S    
C21   H5    S    
C29   H21   S    
C8    C9    A    
C14   N1    A    
C9    C10   S    
C19   H4    S    
Cu1   O7    S    
C8    C16   S    
C33   C34   A    
C21   C32   A    
Cu2   O4    S    
C13   C19   S    
C16   O5    A    
Cu1   N2    S    
C19   H2    S    
C25   C26   A    
C30   H18   S    
C1    O1    A    
C20   O7    A    
C12   C26   A    
C2    C4    S    
C29   C30   S    
C3    C9    A    
C28   H11   S    
C15   C27   S    
C31   C32   A    
C23   C34   A    
C14   H26   S    
C2    C23   A    
C17   C18   S    
C29   H20   S    
C35   H6    S    
C20   C22   S    
Cu1   O3    S    
C12   C31   A    
C2    C24   A    
C31   C35   A    
C10   H23   S    
C4    O4    A    
C13   N1    A    
Cu1   O5    S    
C17   N2    A    
C36   H1    S    
C7    H12   S    
C3    C5    A    
C27   H15   S    
C6    C7    A    
C16   O6    A    
C18   H28   S    
C22   C36   A    
C30   H17   S    
C1    O2    A    
C13   C17   A    
C33   H3    S    
C32   C33   A    
C28   H14   S    
C15   N2    A    
C3    C11   S    
C10   C11   S    
Cu2   N1    S    
C26   C29   S    
C27   C28   S    
C14   C15   A    
C34   H9    S    
C25   H8    S    
C4    O3    A    
