data_mof_unit_773.cif
_audit_creation_date              2012-10-26T21:12:32-0400
_audit_creation_method            fapswitch 2.2
_symmetry_space_group_name_H-M    P1
_symmetry_Int_Tables_number       1
_space_group_crystal_system       triclinic
_cell_length_a                    23.505232
_cell_length_b                    10.846158
_cell_length_c                    9.599879
_cell_angle_alpha                 90.901341
_cell_angle_beta                  90.149703
_cell_angle_gamma                 92.486053
_cell_volume                      2444.78784645

loop_
_atom_site_label
_atom_site_type_symbol
_atom_type_description
_atom_site_fract_x
_atom_site_fract_y
_atom_site_fract_z
_atom_type_partial_charge
C1    C     C_R   0.504133 0.263082 0.499590 0.541558
C2    C     C_R   0.122309 0.596100 0.446402 0.401828
C3    C     C_R   0.242745 0.590060 0.575216 -0.061408
C4    C     C_R   0.391260 0.497229 0.499882 0.544869
C5    C     C_R   0.301897 0.587731 0.572970 -0.154748
C6    C     C_R   0.328959 0.493816 0.500197 0.018520
C7    C     C_R   0.295994 0.398831 0.431005 -0.029980
C8    C     C_R   0.236430 0.403033 0.433821 -0.046156
C9    C     C_R   0.209764 0.498174 0.505088 0.222740
C10   C     C_R   0.761110 0.508290 0.628579 -0.058414
C11   C     C_R   0.701792 0.507268 0.627780 -0.153156
C12   C     C_R   0.966456 0.307856 0.628750 -0.122815
C13   C     C_R   0.671671 0.501829 0.500958 0.001103
C14   C     C_R   0.702008 0.497778 0.375101 -0.153675
C15   C     C_R   0.761331 0.497920 0.376209 -0.059776
C16   C     C_R   0.496788 0.737566 0.502107 0.537979
C17   C     C_R   0.791167 0.503212 0.502906 0.239484
C18   C     C_R   0.544632 0.125820 0.744564 -0.112671
C19   C     C_R   0.539978 0.073093 0.876405 0.035943
C20   C     C_R   0.509718 0.959144 0.889121 0.117932
C21   C     C_R   0.492175 0.893302 0.768524 -0.099451
C22   C     C_R   0.502250 0.941587 0.634540 -0.003628
C23   C     C_R   0.025806 0.307753 0.630277 -0.123311
C24   C     C_R   0.519409 0.066750 0.625992 0.003908
C25   C     C_R   0.508695 0.129197 0.500568 -0.003094
C26   C     C_R   0.493342 0.061700 0.379982 -0.162219
C27   C     C_R   0.488872 0.934306 0.382784 -0.154722
C28   C     C_R   0.609008 0.500633 0.500189 0.536960
C29   C     C_R   0.493941 0.872368 0.508401 -0.007571
C30   C     C_R   0.576197 0.663328 0.146882 -0.084028
C31   C     C_R   0.613396 0.742804 0.076016 -0.148328
C32   C     C_R   0.613294 0.742652 0.932511 -0.152601
C33   C     C_R   0.575937 0.663139 0.858975 -0.093831
C34   C     C_R   0.058284 0.404420 0.569554 0.030139
C35   C     C_R   0.537347 0.580234 0.926717 0.139318
C36   C     C_R   0.537384 0.580253 0.076295 0.146025
C37   C     C_R   0.465022 0.422717 0.072286 -0.023042
C38   C     C_R   0.464842 0.422951 0.924455 -0.013971
C39   C     C_R   0.882994 0.599203 0.445575 0.400253
C40   C     C_R   0.878699 0.406736 0.563818 0.399821
C41   C     C_R   0.938336 0.404925 0.567057 0.029792
C42   C     C_R   0.970481 0.502598 0.506511 -0.028329
C43   C     C_R   0.942722 0.600584 0.444866 0.029538
C44   C     C_3   0.563795 0.144571 0.001758 -0.246443
C45   C     C_R   0.030534 0.502160 0.507393 -0.028216
C46   C     C_3   0.629039 0.153391 0.000268 -0.299137
C47   C     C_3   0.652165 0.228838 0.125238 -0.435852
C48   C     C_3   0.322053 0.287989 0.362173 -0.255017
C49   C     C_3   0.315349 0.290293 0.203326 -0.292626
C50   C     C_3   0.339853 0.176183 0.134856 -0.454051
C51   C     C_R   0.062685 0.599322 0.445860 0.029997
C52   C     C_R   0.034562 0.696636 0.384655 -0.122867
C53   C     C_R   0.975212 0.697393 0.384428 -0.123074
C54   C     C_R   0.117997 0.405913 0.569170 0.399796
Cu1   Cu    Cu3+1 0.500000 0.499990 0.640660 0.903661
Cu2   Cu    Cu3+1 0.500000 0.500010 0.359340 0.909621
H1    H     H_    0.942731 0.231711 0.676120 0.169356
H2    H     H_    0.046104 0.231500 0.678715 0.168470
H3    H     H_    0.579889 0.671658 0.256758 0.186933
H4    H     H_    0.642367 0.805452 0.133207 0.128771
H5    H     H_    0.642058 0.805386 0.877432 0.125638
H6    H     H_    0.578875 0.671750 0.749333 0.188111
H7    H     H_    0.436121 0.359362 0.868089 0.125516
H8    H     H_    0.058286 0.772509 0.336755 0.168482
H9    H     H_    0.954915 0.773851 0.336404 0.168880
H10   H     H_    0.222453 0.663235 0.631745 0.141861
H11   H     H_    0.326754 0.660151 0.627164 0.118432
H12   H     H_    0.679621 0.510998 0.726422 0.128846
H13   H     H_    0.210441 0.331090 0.382014 0.134775
H14   H     H_    0.783803 0.513091 0.726961 0.135026
H15   H     H_    0.636300 0.323802 0.122934 0.159966
H16   H     H_    0.638650 0.184559 0.224081 0.165961
H17   H     H_    0.699415 0.234796 0.121750 0.154258
H18   H     H_    0.645736 0.059105 0.003667 0.175288
H19   H     H_    0.644536 0.198303 0.903423 0.163362
H20   H     H_    0.547014 0.238736 0.001883 0.141415
H21   H     H_    0.550051 0.101027 0.100392 0.176538
H22   H     H_    0.463070 0.963234 0.062988 0.207434
H23   H     H_    0.679996 0.494283 0.275832 0.124231
H24   H     H_    0.479956 0.820196 0.015771 0.231988
H25   H     H_    0.385142 0.167684 0.164995 0.136971
H26   H     H_    0.315199 0.091726 0.166975 0.168833
H27   H     H_    0.337242 0.183439 0.019788 0.149425
H28   H     H_    0.269581 0.292823 0.174657 0.171792
H29   H     H_    0.337503 0.374659 0.162391 0.174746
H30   H     H_    0.367829 0.282519 0.388915 0.160669
H31   H     H_    0.300513 0.202666 0.402875 0.151175
H32   H     H_    0.784173 0.493588 0.278563 0.134115
H33   H     H_    0.484162 0.107369 0.283591 0.121897
H34   H     H_    0.567691 0.213855 0.736170 0.146526
H35   H     H_    0.467039 0.808888 0.782463 0.147452
H36   H     H_    0.479684 0.883661 0.287181 0.161602
H37   H     H_    0.436972 0.358581 0.126332 0.115891
N1    N     N_R   0.852278 0.503048 0.504053 -0.397658
N2    N     N_R   0.148707 0.500379 0.507420 -0.397407
N3    N     N_R   0.500540 0.501210 0.147910 -0.243866
N4    N     N_R   0.500560 0.501290 0.852040 -0.248562
N5    N     N_3   0.496108 0.911365 0.023919 -0.648029
O1    O     O_R   0.500000 0.319640 0.618810 -0.508083
O2    O     O_R   0.582120 0.500020 0.618760 -0.525089
O3    O     O_R   0.582120 0.500050 0.381190 -0.522697
O4    O     O_2   0.855816 0.693671 0.389394 -0.499197
O5    O     O_2   0.847324 0.312462 0.618777 -0.500636
O6    O     O_2   0.145203 0.314124 0.630754 -0.502822
O7    O     O_2   0.153649 0.687111 0.385075 -0.500485
O8    O     O_R   0.500000 0.319660 0.381240 -0.509812
O9    O     O_R   0.417880 0.499950 0.618810 -0.496740
O10   O     O_R   0.417880 0.499980 0.381240 -0.492485
O11   O     O_R   0.500000 0.680340 0.618760 -0.533189
O12   O     O_R   0.500000 0.680360 0.381190 -0.516448

loop_
_geom_bond_atom_site_label_1
_geom_bond_atom_site_label_2
_ccdc_geom_bond_type
C23   H2    S    
Cu1   Cu2   S    
C22   C29   A    
C27   C29   A    
C41   C42   A    
C19   C20   A    
C5    H11   S    
C1    O1    A    
C16   O12   A    
C7    C8    A    
C11   H12   S    
C26   H33   S    
C4    O10   A    
C12   C23   A    
C8    H13   S    
C12   C41   A    
C18   C24   A    
C49   H28   S    
C54   O6    S    
C44   H21   S    
Cu2   O3    S    
C30   C31   A    
C50   H27   S    
C45   C51   A    
C10   C17   A    
C15   C17   A    
C18   C19   A    
C44   H20   S    
Cu2   O10   S    
C28   O3    A    
C43   C53   A    
C35   C36   A    
C33   H6    S    
Cu1   O2    S    
H22   N5    S    
C13   C28   S    
C53   H9    S    
C9    N2    S    
C1    O8    A    
C28   O2    A    
C21   C22   A    
Cu1   O11   S    
C1    C25   S    
C38   N4    A    
Cu2   O12   S    
C46   H19   S    
C44   C46   S    
C16   O11   A    
C4    O9    A    
C51   C52   A    
C18   H34   S    
C49   H29   S    
C24   C25   A    
C47   H17   S    
C4    C6    S    
C52   H8    S    
C8    C9    A    
C39   C43   A    
C25   C26   A    
C37   N3    A    
Cu1   O9    S    
C42   C45   A    
C31   H4    S    
C39   N1    A    
C37   C38   A    
C3    C9    A    
C36   N3    A    
C31   C32   A    
C23   C34   A    
Cu2   O8    S    
C30   H3    S    
Cu1   N4    S    
C26   C27   A    
C48   H31   S    
C37   H37   S    
C27   H36   S    
C34   C45   A    
C14   H23   S    
C47   H15   S    
C54   N2    A    
C12   H1    S    
C10   H14   S    
C48   C49   S    
C34   C54   A    
C48   H30   S    
C3    H10   S    
C42   C43   A    
C46   H18   S    
C19   C44   S    
C50   H26   S    
C39   O4    S    
C38   H7    S    
C21   H35   S    
Cu2   N3    S    
C46   C47   S    
C40   C41   A    
H24   N5    S    
C40   N1    A    
C3    C5    A    
C2    N2    A    
C32   H5    S    
C6    C7    A    
C2    O7    S    
C2    C51   A    
C30   C36   A    
C7    C48   S    
C16   C29   S    
C35   N4    A    
C32   C33   A    
C40   O5    S    
C11   C13   A    
C5    C6    A    
C33   C35   A    
C22   C24   A    
C47   H16   S    
C10   C11   A    
C20   N5    S    
C20   C21   A    
C49   C50   S    
Cu1   O1    S    
C14   C15   A    
C17   N1    S    
C13   C14   A    
C50   H25   S    
C52   C53   A    
C15   H32   S    
