data_mof_unit_4691.cif
_audit_creation_date              2012-12-10T17:41:01-0500
_audit_creation_method            fapswitch 2.2
_symmetry_space_group_name_H-M    P1
_symmetry_Int_Tables_number       1
_space_group_crystal_system       triclinic
_cell_length_a                    14.561969
_cell_length_b                    15.876136
_cell_length_c                    9.944313
_cell_angle_alpha                 90.000106
_cell_angle_beta                  87.888572
_cell_angle_gamma                 89.999935
_cell_volume                      2297.4429737

loop_
_atom_site_label
_atom_site_type_symbol
_atom_type_description
_atom_site_fract_x
_atom_site_fract_y
_atom_site_fract_z
_atom_type_partial_charge
Br1   Br    Br    0.264011 0.000000 0.709490 -0.556823
Br2   Br    Br    0.764011 0.500000 0.709490 -0.556823
Br3   Br    Br    0.695881 1.000000 0.830241 -0.336894
Br4   Br    Br    0.195881 0.500000 0.830241 -0.336894
Br5   Br    Br    0.703539 0.821771 0.198438 -0.238301
Br6   Br    Br    0.703540 0.178228 0.198438 -0.238300
Br7   Br    Br    0.203539 0.321771 0.198438 -0.238301
Br8   Br    Br    0.203540 0.678228 0.198438 -0.238300
C1    C     C_R   0.385179 0.875680 0.502266 0.941283
C2    C     C_R   0.725412 0.217941 0.376844 0.312412
C3    C     C_R   0.225412 0.282058 0.376843 0.312412
C4    C     C_R   0.225412 0.717941 0.376844 0.312412
C5    C     C_R   0.673011 0.801770 0.494919 -0.138737
C6    C     C_R   0.673012 0.198230 0.494919 -0.138738
C7    C     C_R   0.173011 0.301770 0.494919 -0.138737
C8    C     C_R   0.173012 0.698230 0.494919 -0.138738
C9    C     C_R   0.335641 1.000000 0.158710 -0.043105
C10   C     C_R   0.835641 0.500000 0.158710 -0.043105
C11   C     C_R   0.250581 0.999999 0.105880 -0.086295
C12   C     C_R   0.385179 0.124320 0.502267 0.941282
C13   C     C_R   0.750581 0.499999 0.105880 -0.086295
C14   C     C_R   0.242989 0.999999 0.970104 -0.050316
C15   C     C_R   0.742989 0.499999 0.970104 -0.050316
C16   C     C_R   0.320578 1.000000 0.881790 0.278726
C17   C     C_R   0.820578 0.500000 0.881790 0.278726
C18   C     C_R   0.414379 1.000000 0.933474 0.054195
C19   C     C_R   0.914379 0.500000 0.933474 0.054195
C20   C     C_R   0.417346 1.000000 0.078975 0.028828
C21   C     C_R   0.917346 0.500000 0.078975 0.028828
C22   C     C_R   0.578692 1.000000 0.067371 0.719186
C23   C     C_R   0.885179 0.375680 0.502266 0.941283
C24   C     C_R   0.078692 0.500000 0.067371 0.719186
C25   C     C_R   0.614564 0.124423 0.498258 0.947747
C26   C     C_R   0.614563 0.875577 0.498257 0.947748
C27   C     C_R   0.114563 0.624423 0.498258 0.947747
C28   C     C_R   0.114563 0.375577 0.498257 0.947748
C29   C     C_R   0.579107 0.000000 0.925031 0.218295
C30   C     C_R   0.079107 0.500000 0.925031 0.218295
C31   C     C_R   0.305705 0.203805 0.759656 -0.253236
C32   C     C_R   0.305705 0.796195 0.759655 -0.253236
C33   C     C_R   0.805705 0.703805 0.759656 -0.253236
C34   C     C_R   0.885179 0.624320 0.502267 0.941282
C35   C     C_R   0.805705 0.296196 0.759655 -0.253236
C36   C     C_R   0.245632 0.210036 0.871434 0.512408
C37   C     C_R   0.245634 0.789963 0.871434 0.512407
C38   C     C_R   0.745632 0.710036 0.871434 0.512408
C39   C     C_R   0.745634 0.289963 0.871434 0.512407
C40   C     C_R   0.654205 0.731544 0.854375 0.544476
C41   C     C_R   0.654206 0.268456 0.854376 0.544475
C42   C     C_R   0.154205 0.231544 0.854375 0.544476
C43   C     C_R   0.154206 0.768456 0.854376 0.544475
C44   C     C_R   0.626070 0.756453 0.727896 0.500142
C45   C     C_R   0.297617 0.227391 0.384456 -0.219889
C46   C     C_R   0.626070 0.243547 0.727898 0.500144
C47   C     C_R   0.126070 0.256453 0.727896 0.500142
C48   C     C_R   0.126070 0.743547 0.727898 0.500144
C49   C     C_R   0.690034 0.759647 0.616939 -0.156681
C50   C     C_R   0.690034 0.240353 0.616939 -0.156682
C51   C     C_R   0.190034 0.259647 0.616939 -0.156681
C52   C     C_R   0.190034 0.740352 0.616939 -0.156682
C53   C     C_R   0.274818 0.219509 0.628578 -0.031423
C54   C     C_R   0.274819 0.780491 0.628578 -0.031422
C55   C     C_R   0.774818 0.719509 0.628578 -0.031423
C56   C     C_R   0.297617 0.772609 0.384456 -0.219889
C57   C     C_R   0.774819 0.280491 0.628578 -0.031422
C58   C     C_R   0.322526 0.194914 0.507901 -0.058118
C59   C     C_R   0.322526 0.805087 0.507901 -0.058117
C60   C     C_R   0.822526 0.694914 0.507901 -0.058118
C61   C     C_R   0.822526 0.305086 0.507901 -0.058117
C62   C     C_R   0.797617 0.727391 0.384456 -0.219889
C63   C     C_R   0.797617 0.272609 0.384456 -0.219889
C64   C     C_R   0.725412 0.782058 0.376843 0.312412
F1    F     F_    0.275416 0.190135 0.994942 -0.611228
F2    F     F_    0.535429 0.228750 0.711911 -0.641535
F3    F     F_    0.035429 0.271249 0.711908 -0.641536
F4    F     F_    0.035429 0.728750 0.711911 -0.641535
F5    F     F_    0.659366 1.000000 0.130543 -0.563786
F6    F     F_    0.159365 0.499999 0.130543 -0.563786
F7    F     F_    0.275418 0.809864 0.994942 -0.611227
F8    F     F_    0.775416 0.690135 0.994942 -0.611228
F9    F     F_    0.775418 0.309864 0.994942 -0.611227
F10   F     F_    0.592892 0.729272 0.960320 -0.567067
F11   F     F_    0.592894 0.270727 0.960322 -0.567067
F12   F     F_    0.092892 0.229272 0.960320 -0.567067
F13   F     F_    0.092894 0.770727 0.960322 -0.567067
F14   F     F_    0.535429 0.771249 0.711908 -0.641536
H1    H     H_    0.334377 0.210019 0.291777 0.231786
H2    H     H_    0.875618 0.313128 0.778692 0.281252
H3    H     H_    0.333281 1.000000 0.264628 0.203960
H4    H     H_    0.833281 0.500000 0.264628 0.203960
H5    H     H_    0.189455 0.999999 0.171437 0.176650
H6    H     H_    0.689455 0.499999 0.171437 0.176650
H7    H     H_    0.334376 0.789981 0.291776 0.231787
H8    H     H_    0.834377 0.710019 0.291777 0.231786
H9    H     H_    0.834376 0.289982 0.291776 0.231787
H10   H     H_    0.173118 0.999999 0.935449 0.194830
H11   H     H_    0.673118 0.499999 0.935449 0.194830
H12   H     H_    0.375617 0.186873 0.778693 0.281251
H13   H     H_    0.375617 0.813127 0.778692 0.281252
H14   H     H_    0.875617 0.686873 0.778693 0.281251
N1    N     N_R   0.498810 0.000000 0.142780 -0.189865
N2    N     N_R   0.998810 0.500000 0.142780 -0.189865
N3    N     N_R   0.498740 0.000000 0.857170 -0.161271
N4    N     N_R   0.998740 0.500000 0.857170 -0.161271
O1    O     O_R   0.408390 0.908380 0.614690 -0.578452
O2    O     O_R   0.591620 0.908390 0.614640 -0.563200
O3    O     O_R   0.091620 0.591610 0.614640 -0.563199
O4    O     O_R   0.091620 0.408390 0.614640 -0.563200
O5    O     O_R   0.591610 0.091610 0.385310 -0.561917
O6    O     O_R   0.591610 0.908390 0.385310 -0.561917
O7    O     O_R   0.091610 0.591610 0.385310 -0.561917
O8    O     O_R   0.091610 0.408390 0.385310 -0.561917
O9    O     O_R   0.408390 0.091620 0.614690 -0.578451
O10   O     O_R   0.908390 0.408380 0.614690 -0.578452
O11   O     O_R   0.908390 0.591620 0.614690 -0.578451
O12   O     O_R   0.408370 0.908380 0.385360 -0.666306
O13   O     O_R   0.408370 0.091620 0.385360 -0.666306
O14   O     O_R   0.908370 0.408380 0.385360 -0.666306
O15   O     O_R   0.908370 0.591620 0.385360 -0.666306
O16   O     O_R   0.591620 0.091610 0.614640 -0.563199
Zn1   Zn    Zn3+2 0.500010 0.000000 0.653130 1.074108
Zn2   Zn    Zn3+2 0.000010 0.500000 0.653130 1.074108
Zn3   Zn    Zn3+2 0.499980 0.000000 0.346870 1.068739
Zn4   Zn    Zn3+2 0.999980 0.500000 0.346870 1.068739

loop_
_geom_bond_atom_site_label_1
_geom_bond_atom_site_label_2
_ccdc_geom_bond_type
C48   F4    S    
O12   Zn3   S    
C47   C51   A    
C19   C21   A    
C10   C13   A    
C43   F13   S    
C6    C25   S    
C42   F12   S    
C39   C41   A    
O15   Zn4   S    
Br7   C3    S    
N1    Zn3   S    
C54   C59   A    
C35   H2    S    
C12   C58   S    
C62   H8    S    
C16   C18   A    
C56   H7    S    
O8    Zn4   S    
Br5   C64   S    
C8    C27   S    
C12   O9    A    
C4    C56   A    
C63   H9    S    
C34   O15   A    
N4    Zn2   S    
C37   C43   A    
C1    O1    A    
C41   C46   A    
C19   N4    A    
C32   C54   A    
C22   N1    A    
C52   C54   A    
C43   C48   A    
C8    C52   A    
C61   C63   A    
C30   N4    A    
C46   F2    S    
C22   F5    S    
C3    C7    A    
C20   N1    A    
O6    Zn3   S    
C4    C8    A    
C28   O8    A    
C33   C38   A    
C24   C30   A    
C23   O10   A    
C3    C45   A    
C35   C57   A    
C47   F3    S    
C2    C63   A    
C15   C17   A    
O11   Zn2   S    
C34   C60   S    
C1    O12   A    
C14   H10   S    
C32   H13   S    
N2    Zn4   S    
C53   C58   A    
C12   O13   A    
C49   C55   A    
C32   C37   A    
C6    C50   A    
C38   C40   A    
C51   C53   A    
C26   O2    A    
C56   C59   A    
C11   C14   A    
C9    H3    S    
C45   H1    S    
C2    C6    A    
C29   N3    A    
O5    Zn3   S    
C31   H12   S    
C48   C52   A    
C22   C29   A    
C10   H4    S    
C1    C59   S    
C23   O14   A    
C18   N3    A    
C50   C57   A    
C40   C44   A    
Br8   C4    S    
C33   H14   S    
O1    Zn1   S    
C37   F7    S    
C10   C21   A    
O14   Zn4   S    
C45   C58   A    
Br1   C16   S    
C15   H11   S    
Br4   C30   S    
C13   C15   A    
C26   O6    A    
C24   N2    A    
C25   O5    A    
C33   C55   A    
N3    Zn1   S    
C7    C28   S    
C31   C53   A    
C27   O7    A    
O16   Zn1   S    
C46   C50   A    
C36   C42   A    
C55   C60   A    
O7    Zn4   S    
C9    C20   A    
C7    C51   A    
C11   H5    S    
O4    Zn2   S    
Br6   C2    S    
C31   C36   A    
C5    C64   A    
C17   C19   A    
O9    Zn1   S    
C18   C20   A    
C42   C47   A    
C41   F11   S    
C44   F14   S    
O13   Zn3   S    
C5    C26   S    
C38   F8    S    
C57   C61   A    
O2    Zn1   S    
C9    C11   A    
C40   F10   S    
C21   N2    A    
Br2   C17   S    
C14   C16   A    
C39   F9    S    
C36   F1    S    
C27   O3    A    
C44   C49   A    
C24   F6    S    
O10   Zn2   S    
C34   O11   A    
C23   C61   S    
C5    C49   A    
C28   O4    A    
Br3   C29   S    
C25   O16   A    
C60   C62   A    
C62   C64   A    
O3    Zn2   S    
C35   C39   A    
C13   H6    S    
