data_mof_unit_3735.cif
_audit_creation_date              2012-12-10T17:08:43-0500
_audit_creation_method            fapswitch 2.2
_symmetry_space_group_name_H-M    P1
_symmetry_Int_Tables_number       1
_space_group_crystal_system       triclinic
_cell_length_a                    27.806881
_cell_length_b                    10.834454
_cell_length_c                    9.762146
_cell_angle_alpha                 110.068549
_cell_angle_beta                  97.900446
_cell_angle_gamma                 90.326999
_cell_volume                      2731.84881995

loop_
_atom_site_label
_atom_site_type_symbol
_atom_type_description
_atom_site_fract_x
_atom_site_fract_y
_atom_site_fract_z
_atom_type_partial_charge
C1    C     C_R   0.494488 0.253113 0.442740 0.876061
C2    C     C_R   0.501202 0.746918 0.557621 0.854332
C3    C     C_R   0.103011 0.501724 0.531016 -0.052857
C4    C     C_R   0.896830 0.496031 0.465724 -0.053601
C5    C     C_R   0.126889 0.381977 0.489977 -0.083751
C6    C     C_R   0.872952 0.615778 0.506519 -0.082997
C7    C     C_R   0.099210 0.261828 0.454020 -0.023753
C8    C     C_R   0.900629 0.735875 0.542051 -0.023302
C9    C     C_R   0.130719 0.623209 0.584694 -0.083079
C10   C     C_R   0.869131 0.374575 0.412589 -0.081841
C11   C     C_R   0.354992 0.514352 0.510990 -0.088164
C12   C     C_R   0.644963 0.484580 0.488679 -0.114715
C13   C     C_R   0.972025 0.377463 0.438074 0.034800
C14   C     C_R   0.027803 0.620248 0.558394 0.034988
C15   C     C_R   0.976143 0.618937 0.534580 0.039103
C16   C     C_R   0.023690 0.378768 0.461714 0.039199
C17   C     C_R   0.948450 0.497514 0.479240 0.081366
C18   C     C_R   0.051385 0.500207 0.517243 0.081512
C19   C     C_R   0.943138 0.259610 0.366015 -0.222162
C20   C     C_R   0.056666 0.738105 0.630675 -0.221898
C21   C     C_R   0.892476 0.256675 0.350112 -0.014450
C22   C     C_R   0.107330 0.741067 0.647026 -0.015544
C23   C     C_R   0.407633 0.505603 0.503384 0.928721
C24   C     C_R   0.592353 0.494141 0.496558 0.831152
C25   C     C_R   0.048556 0.261952 0.438903 -0.228778
C26   C     C_R   0.951283 0.735732 0.557124 -0.229071
C27   C     C_2   0.487529 0.112153 0.417637 -0.232588
C28   C     C_2   0.496942 0.887893 0.583572 -0.227991
C29   C     C_2   0.464114 0.070044 0.508696 -0.093604
C30   C     C_2   0.463390 0.930400 0.496575 -0.103014
C31   C     C_2   0.504030 0.511038 0.080851 -0.022037
C32   C     C_2   0.495568 0.490300 0.919606 -0.017169
C33   C     C_R   0.177367 0.387502 0.484132 0.571711
C34   C     C_R   0.822486 0.610313 0.512602 0.570914
C35   C     C_R   0.180521 0.622120 0.570524 0.572127
C36   C     C_R   0.819390 0.375724 0.427484 0.571916
C37   C     C_R   0.286651 0.572073 0.647904 -0.125953
C38   C     C_R   0.713117 0.424079 0.351343 -0.129247
C39   C     C_R   0.336800 0.579283 0.645261 -0.075911
C40   C     C_R   0.662994 0.417197 0.354743 -0.068500
C41   C     C_R   0.321994 0.452156 0.381878 -0.167250
C42   C     C_R   0.678090 0.548330 0.617007 -0.201161
C43   C     C_R   0.272103 0.450582 0.385527 -0.073680
C44   C     C_R   0.727954 0.549331 0.612781 -0.070170
C45   C     C_R   0.254220 0.508798 0.518895 0.308372
C46   C     C_R   0.745689 0.489126 0.479506 0.309355
Cu1   Cu    Cu3+1 0.508480 0.521810 0.644910 1.011374
Cu2   Cu    Cu3+1 0.491520 0.478190 0.355090 1.020437
H1    H     H_    0.334806 0.402865 0.277831 0.178008
H2    H     H_    0.665391 0.599334 0.720817 0.177718
H3    H     H_    0.467148 0.419339 0.848245 0.172427
H4    H     H_    0.532123 0.583065 0.152625 0.161383
H5    H     H_    0.548011 0.621518 0.932771 0.211097
H6    H     H_    0.452313 0.377569 0.066918 0.224090
H7    H     H_    0.247294 0.402866 0.284664 0.165317
H8    H     H_    0.752852 0.598298 0.713090 0.165304
H9    H     H_    0.727287 0.375242 0.249350 0.187263
H10   H     H_    0.272354 0.619269 0.750057 0.186137
H11   H     H_    0.959239 0.168506 0.312509 0.178186
H12   H     H_    0.040530 0.829190 0.684073 0.177875
H13   H     H_    0.029307 0.168792 0.416661 0.169285
H14   H     H_    0.970543 0.828834 0.579117 0.169393
N1    N     N_R   0.202746 0.505931 0.524003 -0.464025
N2    N     N_R   0.797137 0.491920 0.473670 -0.463674
N3    N     N_2   0.478780 0.445430 0.137360 -0.277892
N4    N     N_2   0.521220 0.554570 0.862640 -0.281892
O1    O     O_R   0.504520 0.332330 0.577400 -0.572673
O2    O     O_R   0.495480 0.667670 0.422600 -0.579144
O3    O     O_R   0.490210 0.295500 0.332650 -0.546642
O4    O     O_R   0.509790 0.704500 0.667350 -0.550013
O5    O     O_R   0.437420 0.518430 0.622370 -0.569915
O6    O     O_R   0.562580 0.481570 0.377630 -0.570200
O7    O     O_R   0.423110 0.481600 0.377610 -0.557238
O8    O     O_R   0.576890 0.518400 0.622390 -0.572994
O9    O     O_2   0.200904 0.276031 0.434287 -0.496395
O10   O     O_2   0.798936 0.721849 0.561762 -0.501141
O11   O     O_2   0.793843 0.262359 0.404330 -0.501478
O12   O     O_2   0.206184 0.735557 0.594777 -0.495951
C47   C     C_1   0.531740 0.979298 0.698152 0.296186
N5    N     N_1   0.559502 0.052402 0.789680 -0.228535
C48   C     C_1   0.509358 0.020534 0.299358 0.329853
N6    N     N_1   0.526750 0.947280 0.204852 -0.262453
C49   C     C_2   0.121165 0.134425 0.440828 0.961898
O13   O     O_2   0.105692 0.034973 0.337225 -0.569142
O14   O     O_R   0.157906 0.126956 0.550474 -0.696092
H15   H     H_    0.169724 0.034813 0.529307 0.368672
C50   C     C_2   0.878680 0.863244 0.555028 0.961736
O15   O     O_2   0.894162 0.962781 0.658504 -0.569666
O16   O     O_R   0.841936 0.870580 0.445323 -0.697949
H16   H     H_    0.830108 0.962704 0.466377 0.367368
C51   C     C_2   0.631456 0.332359 0.219177 0.888793
O17   O     O_2   0.638689 0.332520 0.098445 -0.573370
O18   O     O_R   0.594844 0.247957 0.228819 -0.740571
H17   H     H_    0.576009 0.194776 0.128926 0.353447
C52   C     C_2   0.368202 0.661613 0.782360 0.889605
O19   O     O_2   0.361299 0.656412 0.901372 -0.598806
O20   O     O_R   0.404333 0.749168 0.776317 -0.710186
H18   H     H_    0.423116 0.800191 0.877070 0.352675
C53   C     C_2   0.866001 0.130254 0.254797 0.929086
O21   O     O_2   0.830426 0.129456 0.165499 -0.528613
O22   O     O_R   0.883739 0.011374 0.260644 -0.755908
H19   H     H_    0.863389 0.931938 0.188167 0.358215
C54   C     C_2   0.133738 0.867520 0.742507 0.930567
O23   O     O_2   0.169094 0.868426 0.832587 -0.526257
O24   O     O_R   0.116172 0.986321 0.735852 -0.755650
H20   H     H_    0.136462 0.065806 0.808466 0.358866
C55   C     C_2   0.421801 0.845584 0.394318 0.914114
O25   O     O_2   0.402718 0.758030 0.424163 -0.574852
O26   O     O_R   0.402623 0.871800 0.267667 -0.734875
H21   H     H_    0.373812 0.809748 0.208498 0.370572
C56   C     C_2   0.434069 0.155894 0.614387 0.885416
O27   O     O_2   0.431393 0.138867 0.730724 -0.583883
O28   O     O_R   0.406620 0.250464 0.577360 -0.771069
H22   H     H_    0.386751 0.299826 0.656723 0.329394

loop_
_geom_bond_atom_site_label_1
_geom_bond_atom_site_label_2
_ccdc_geom_bond_type
C7    C49   S    
C50   O15   D    
O22   H19   S    
C30   C55   S    
C27   C29   D    
C8    C26   A    
C14   C18   A    
C52   O19   D    
C31   H4    S    
O20   H18   S    
C32   H3    S    
H6    N3    S    
O14   H15   S    
O18   H17   S    
C49   O13   D    
C19   C21   A    
C23   O7    A    
C2    O2    A    
C36   O11   S    
C21   C53   S    
C9    C22   A    
C3    C18   A    
C31   N3    D    
Cu1   O1    S    
C28   C47   S    
C12   C42   A    
C33   O9    S    
C31   C32   S    
C5    C33   A    
C55   O25   D    
Cu2   N3    S    
C20   H12   S    
Cu2   O3    S    
Cu1   N4    S    
C37   H10   S    
C1    C27   S    
C41   C43   A    
C42   C44   A    
Cu2   O6    S    
C41   H1    S    
C44   C46   A    
C48   N6    T    
C10   C21   A    
C13   C19   A    
C14   C20   A    
C27   C48   S    
C54   O24   S    
C51   O17   D    
C5    C7    A    
C15   C26   A    
C6    C8    A    
C19   H11   S    
C45   N1    S    
C1    O3    A    
C22   C54   S    
C6    C34   A    
C46   N2    S    
C12   C40   A    
Cu1   O4    S    
C29   C30   S    
C3    C9    A    
C23   O5    A    
C51   O18   S    
C38   H9    S    
C44   H8    S    
Cu1   Cu2   S    
C33   N1    A    
Cu1   O5    S    
C34   N2    A    
C56   O28   S    
C25   H13   S    
Cu2   O2    S    
C11   C39   A    
H5    N4    S    
C43   C45   A    
C39   C52   S    
C42   H2    S    
C4    C17   A    
C43   H7    S    
C53   O22   S    
C20   C22   A    
C50   O16   S    
C4    C6    A    
C4    C10   A    
C24   O6    A    
C32   N4    D    
O28   H22   S    
C16   C25   A    
C15   C17   A    
C56   O27   D    
C49   O14   S    
Cu2   O7    S    
C29   C56   S    
Cu1   O8    S    
C3    C5    A    
C35   N1    A    
C52   O20   S    
O24   H20   S    
C12   C24   S    
C35   O12   S    
C7    C25   A    
C53   O21   D    
C13   C17   A    
C8    C50   S    
C28   C30   D    
C26   H14   S    
C37   C39   A    
C36   N2    A    
O26   H21   S    
C38   C40   A    
C24   O8    A    
C55   O26   S    
C11   C23   S    
C1    O1    A    
C10   C36   A    
C11   C41   A    
C40   C51   S    
C38   C46   A    
C47   N5    T    
C16   C18   A    
C13   C16   A    
C54   O23   D    
C9    C35   A    
C14   C15   A    
C2    C28   S    
O16   H16   S    
C2    O4    A    
C37   C45   A    
C34   O10   S    
