data_mof_unit_3543.cif
_audit_creation_date              2012-12-11T14:44:29-0500
_audit_creation_method            fapswitch 2.2
_symmetry_space_group_name_H-M    P1
_symmetry_Int_Tables_number       1
_space_group_crystal_system       triclinic
_cell_length_a                    19.967459
_cell_length_b                    7.212467
_cell_length_c                    19.758562
_cell_angle_alpha                 91.360051
_cell_angle_beta                  98.355893
_cell_angle_gamma                 91.607825
_cell_volume                      2813.09408415

loop_
_atom_site_label
_atom_site_type_symbol
_atom_type_description
_atom_site_fract_x
_atom_site_fract_y
_atom_site_fract_z
_atom_type_partial_charge
O1    O     O_R   0.673210 0.377390 0.686390 -0.544829
O2    O     O_R   0.326790 0.622610 0.313610 -0.544829
O3    O     O_R   0.826790 0.877390 0.813610 -0.539237
O4    O     O_R   0.173210 0.122610 0.186390 -0.539237
O5    O     O_R   0.810750 0.706450 0.681250 -0.532140
O6    O     O_R   0.189250 0.293550 0.318750 -0.532140
O7    O     O_R   0.689250 0.206450 0.818750 -0.531577
O8    O     O_R   0.310750 0.793550 0.181250 -0.531577
C1    C     C_R   0.832558 0.539331 0.666914 0.694352
C2    C     C_R   0.167442 0.460669 0.333086 0.694352
C3    C     C_R   0.667339 0.038514 0.833048 0.696982
C4    C     C_R   0.332660 0.961486 0.166952 0.696982
O9    O     O_R   0.672750 0.707060 0.678240 -0.535572
O10   O     O_R   0.327250 0.292940 0.321760 -0.535572
O11   O     O_R   0.827250 0.207060 0.821760 -0.543240
O12   O     O_R   0.172750 0.792940 0.178240 -0.543240
O13   O     O_R   0.687800 0.877990 0.810580 -0.532598
O14   O     O_R   0.312200 0.122010 0.189420 -0.532598
O15   O     O_R   0.812200 0.377990 0.689420 -0.531822
O16   O     O_R   0.187800 0.622010 0.310580 -0.531822
C5    C     C_R   0.648297 0.534086 0.661521 0.720056
C6    C     C_R   0.351703 0.465914 0.338479 0.720056
C7    C     C_R   0.851509 0.042560 0.839368 0.717453
C8    C     C_R   0.148490 0.957440 0.160632 0.717453
O17   O     O_3   0.755100 0.544060 0.793420 -0.377114
O18   O     O_3   0.244900 0.455940 0.206580 -0.377114
O19   O     O_3   0.744900 0.044060 0.706580 -0.375182
O20   O     O_3   0.255100 0.955940 0.293420 -0.375182
V1    V     V_3+5 0.749050 0.818670 0.741950 1.446507
V2    V     V_3+5 0.250950 0.181330 0.258050 1.446507
V3    V     V_3+5 0.750950 0.318670 0.758050 1.442937
V4    V     V_3+5 0.249050 0.681330 0.241950 1.442937
C9    C     C_R   0.088548 0.950428 0.105332 -0.146019
C10   C     C_R   0.911451 0.049572 0.894668 -0.146019
C11   C     C_R   0.412350 0.495369 0.391782 -0.139855
C12   C     C_R   0.587650 0.504631 0.608218 -0.139854
C13   C     C_R   0.007598 0.228480 0.958125 0.408103
C14   C     C_R   0.992402 0.771520 0.041874 0.408103
C15   C     C_R   0.493959 0.297046 0.556415 0.383868
C16   C     C_R   0.506041 0.702954 0.443585 0.383868
C17   C     C_R   0.952226 0.212439 0.905865 -0.137155
C18   C     C_R   0.047774 0.787561 0.094135 -0.137155
C19   C     C_R   0.548177 0.339979 0.607871 -0.141080
C20   C     C_R   0.451823 0.660021 0.392129 -0.141079
C21   C     C_R   0.926625 0.900766 0.938247 -0.221078
C22   C     C_R   0.073374 0.099234 0.061753 -0.221079
C23   C     C_R   0.571732 0.628607 0.555239 -0.208819
C24   C     C_R   0.428268 0.371393 0.444760 -0.208818
C25   C     C_R   0.979287 0.917195 0.994992 0.011199
C26   C     C_R   0.020713 0.082805 0.005008 0.011199
C27   C     C_R   0.519856 0.583859 0.499728 0.017217
C28   C     C_R   0.480144 0.416141 0.500272 0.017217
H1    H     H_    0.103853 0.225659 0.072196 0.142361
H2    H     H_    0.896147 0.774341 0.927803 0.142362
H3    H     H_    0.398636 0.243132 0.442673 0.144005
H4    H     H_    0.601364 0.756868 0.557327 0.144005
H5    H     H_    0.057594 0.671868 0.127787 0.148474
H6    H     H_    0.942406 0.328132 0.872213 0.148475
H7    H     H_    0.441344 0.756613 0.351011 0.142737
H8    H     H_    0.558655 0.243387 0.648989 0.142737
C29   C     C_R   0.566689 0.168345 0.882470 0.358695
C30   C     C_R   0.433311 0.831654 0.117530 0.358696
C31   C     C_R   0.933253 0.676922 0.616901 0.356114
C32   C     C_R   0.066747 0.323078 0.383098 0.356115
C33   C     C_R   0.615538 0.029148 0.880193 -0.205725
C34   C     C_R   0.384462 0.970852 0.119807 -0.205725
C35   C     C_R   0.884191 0.531151 0.619516 -0.207074
C36   C     C_R   0.115809 0.468848 0.380484 -0.207074
C37   C     C_R   0.615392 0.878858 0.923850 -0.185528
C38   C     C_R   0.384608 0.121142 0.076150 -0.185528
C39   C     C_R   0.884126 0.374473 0.576132 -0.185733
C40   C     C_R   0.115874 0.625527 0.423868 -0.185733
C41   C     C_R   0.569469 0.866246 0.970825 0.093843
C42   C     C_R   0.430530 0.133754 0.029175 0.093843
C43   C     C_R   0.930123 0.361187 0.529279 0.093358
C44   C     C_R   0.069876 0.638813 0.470721 0.093358
C45   C     C_R   0.522866 0.007160 0.975779 -0.072354
C46   C     C_R   0.477134 0.992840 0.024220 -0.072354
C47   C     C_R   0.977057 0.507697 0.524124 -0.072111
C48   C     C_R   0.022943 0.492303 0.475876 -0.072111
C49   C     C_R   0.521737 0.161365 0.932129 0.023526
C50   C     C_R   0.478263 0.838635 0.067871 0.023526
C51   C     C_R   0.978364 0.668616 0.567388 0.023390
C52   C     C_R   0.021635 0.331384 0.432611 0.023390
C53   C     C_R   0.570276 0.713731 0.013258 -0.243413
C54   C     C_R   0.429724 0.286269 0.986742 -0.243413
C55   C     C_R   0.929109 0.202207 0.487216 -0.240566
C56   C     C_R   0.070891 0.797793 0.512784 -0.240566
C57   C     C_R   0.525341 0.697499 0.061577 0.388744
C58   C     C_R   0.474659 0.302501 0.938423 0.388744
C59   C     C_R   0.974177 0.184835 0.439090 0.388502
C60   C     C_R   0.025823 0.815165 0.560910 0.388502
H9    H     H_    0.652032 0.771366 0.921847 0.151383
H10   H     H_    0.347968 0.228633 0.078153 0.151383
H11   H     H_    0.847310 0.262096 0.578315 0.153083
H12   H     H_    0.152690 0.737904 0.421685 0.153083
H13   H     H_    0.606112 0.605573 0.008605 0.125515
H14   H     H_    0.393888 0.394427 0.991395 0.125515
H15   H     H_    0.893005 0.089859 0.492016 0.125188
H16   H     H_    0.106995 0.910141 0.507984 0.125188
O21   O     O_3   0.046993 0.389530 0.961260 -0.630074
H17   H     H_    0.094709 0.359124 0.976446 0.278311
O22   O     O_3   0.953007 0.610470 0.038740 -0.630074
H18   H     H_    0.905291 0.640876 0.023554 0.278311
O23   O     O_3   0.456814 0.135954 0.562915 -0.634537
H19   H     H_    0.408669 0.157523 0.545947 0.282458
O24   O     O_3   0.543186 0.864047 0.437084 -0.634537
H20   H     H_    0.591330 0.842478 0.454053 0.282458
O25   O     O_3   0.560655 0.308198 0.835620 -0.597182
H21   H     H_    0.569594 0.256634 0.791003 0.284757
O26   O     O_3   0.439345 0.691802 0.164380 -0.597182
H22   H     H_    0.430406 0.743366 0.208997 0.284757
O27   O     O_3   0.939376 0.824821 0.663308 -0.597739
H23   H     H_    0.930405 0.778788 0.708070 0.289356
O28   O     O_3   0.060624 0.175179 0.336691 -0.597739
H24   H     H_    0.069594 0.221212 0.291930 0.289356
O29   O     O_3   0.526650 0.543845 0.102242 -0.599912
H25   H     H_    0.561294 0.457956 0.090204 0.289039
O30   O     O_3   0.473350 0.456155 0.897758 -0.599912
H26   H     H_    0.438706 0.542044 0.909796 0.289039
O31   O     O_3   0.972602 0.024964 0.398772 -0.600621
H27   H     H_    0.937708 0.936183 0.410902 0.288370
O32   O     O_3   0.027398 0.975036 0.601228 -0.600621
H28   H     H_    0.062292 0.063817 0.589098 0.288370

loop_
_geom_bond_atom_site_label_1
_geom_bond_atom_site_label_2
_ccdc_geom_bond_type
O17   V3    S    
C24   H3    S    
C47   C51   A    
O1    C5    A    
O21   H17   S    
C55   C59   A    
O19   V1    S    
O13   V1    S    
O3    C7    A    
O26   H22   S    
C40   C44   A    
O15   V3    S    
O32   H28   S    
C14   C25   A    
C45   C46   A    
O7    C3    A    
C6    C11   S    
C50   C57   A    
C9    C18   A    
C32   C36   A    
O9    V1    S    
C38   H10   S    
C17   H6    S    
C14   C18   A    
C37   H9    S    
O4    C8    A    
C39   H11   S    
C20   H7    S    
O28   H24   S    
O1    V3    S    
C12   C23   A    
O2    V4    S    
O3    V1    S    
C38   C42   A    
C32   C52   A    
C1    O15   A    
C30   O26   S    
C56   C60   A    
C2    O16   A    
O2    C6    A    
O24   H20   S    
C37   C41   A    
O14   V2    S    
C52   C59   A    
C45   C49   A    
C44   C56   A    
C16   C20   A    
C55   H15   S    
C48   C52   A    
O11   C7    A    
C15   C28   A    
C30   C50   A    
C29   O25   S    
O12   C8    A    
C32   O28   S    
C9    C22   A    
C10   C17   A    
O10   V2    S    
C11   C24   A    
C18   H5    S    
O5    V1    S    
C31   C35   A    
C39   C43   A    
O7    V3    S    
C30   C34   A    
C27   C28   A    
O8    V4    S    
C54   C58   A    
C60   O32   S    
C5    C12   S    
C53   C57   A    
O18   V4    S    
C15   C19   A    
C4    C34   S    
C31   C51   A    
C36   C40   A    
C31   O27   S    
C1    C35   S    
O5    C1    A    
C14   O22   S    
C51   C60   A    
C46   C50   A    
C21   C25   A    
O8    C4    A    
C7    C10   S    
O9    C5    A    
C10   C21   A    
C42   C54   A    
C11   C20   A    
C41   C53   A    
O31   H27   S    
C56   H16   S    
C19   H8    S    
C16   O24   S    
C49   C58   A    
C43   C55   A    
O6    V2    S    
C57   O29   S    
C21   H2    S    
C59   O31   S    
O27   H23   S    
O16   V4    S    
C15   O23   S    
C3    O13   A    
C44   C48   A    
O6    C2    A    
C23   C27   A    
O30   H26   S    
O11   V3    S    
C2    C36   S    
O12   V4    S    
C16   C27   A    
O23   H19   S    
C22   C26   A    
C8    C9    S    
C58   O30   S    
O10   C6    A    
O20   V2    S    
C29   C49   A    
O25   H21   S    
C13   O21   S    
C13   C26   A    
C34   C38   A    
C33   C37   A    
C22   H1    S    
C35   C39   A    
C13   C17   A    
C54   H14   S    
C53   H13   S    
C47   C48   A    
C40   H12   S    
C29   C33   A    
C24   C28   A    
C25   C26   A    
C42   C46   A    
C4    O14   A    
O22   H18   S    
C41   C45   A    
C12   C19   A    
O29   H25   S    
C43   C47   A    
O4    V2    S    
C3    C33   S    
C23   H4    S    
