data_mof_unit_4269.cif
_audit_creation_date              2012-12-10T18:29:40-0500
_audit_creation_method            fapswitch 2.2
_symmetry_space_group_name_H-M    P1
_symmetry_Int_Tables_number       1
_space_group_crystal_system       triclinic
_cell_length_a                    11.539264
_cell_length_b                    14.96396
_cell_length_c                    15.223497
_cell_angle_alpha                 81.571036
_cell_angle_beta                  90.233818
_cell_angle_gamma                 103.754291
_cell_volume                      2524.43318995

loop_
_atom_site_label
_atom_site_type_symbol
_atom_type_description
_atom_site_fract_x
_atom_site_fract_y
_atom_site_fract_z
_atom_type_partial_charge
C1    C     C_R   0.481425 0.441402 0.662760 0.912482
C2    C     C_R   0.522079 0.558436 0.337117 0.932850
C3    C     C_R   0.438860 0.337989 0.940356 -0.237661
C4    C     C_R   0.683599 0.608512 0.079559 -0.221175
C5    C     C_R   0.593979 0.474614 0.968037 -0.124624
C6    C     C_R   0.550890 0.459925 0.056000 -0.149418
C7    C     C_R   0.478454 0.371161 0.090683 0.388698
C8    C     C_R   0.703107 0.541712 0.944678 0.401963
C9    C     C_R   0.417969 0.312428 0.033004 0.432279
C10   C     C_R   0.747752 0.609855 0.000016 0.432897
C11   C     C_R   0.693050 0.845257 0.627861 0.402608
C12   C     C_R   0.335165 0.163713 0.350605 0.448783
C13   C     C_R   0.654271 0.753117 0.611255 0.423845
C14   C     C_R   0.355086 0.249724 0.381731 0.459802
C15   C     C_R   0.513368 0.796705 0.509073 0.577778
C16   C     C_R   0.489150 0.204063 0.488655 0.589039
C17   C     C_R   0.564076 0.892891 0.511266 -0.223100
C18   C     C_R   0.486437 0.121778 0.451356 -0.218041
C19   C     C_R   0.654926 0.916292 0.572896 -0.338416
C20   C     C_R   0.407242 0.102160 0.381204 -0.367303
C21   C     C_R   0.523415 0.966059 0.459188 -0.173666
C22   C     C_R   0.555023 0.056758 0.483099 -0.172277
C23   C     C_R   0.717871 0.500615 0.500230 0.895794
C24   C     C_R   0.282120 0.499319 0.499993 0.876595
C25   C     C_R   0.658071 0.079694 0.533152 0.589513
C26   C     C_R   0.459712 0.954789 0.380713 0.582440
C27   C     C_R   0.706619 0.010293 0.578019 0.589777
C28   C     C_R   0.404463 0.022735 0.341428 0.605090
C29   C     C_1   0.838793 0.501543 0.500773 -0.152218
C30   C     C_1   0.161166 0.498230 0.500138 -0.204142
C31   C     C_1   0.940834 0.500722 0.500831 0.014855
C32   C     C_1   0.059121 0.498999 0.500499 -0.006945
C33   C     C_R   0.467427 0.403226 0.757117 -0.268970
C34   C     C_R   0.563134 0.591803 0.244272 -0.280039
C35   C     C_R   0.371630 0.285344 0.879118 0.450076
C36   C     C_R   0.717642 0.678893 0.134789 0.522989
C37   C     C_R   0.381230 0.321113 0.788230 0.390514
C38   C     C_R   0.662943 0.666680 0.219861 0.375608
C39   C     C_R   0.539410 0.451393 0.816495 -0.222906
C40   C     C_R   0.518536 0.532747 0.183487 -0.215763
C41   C     C_R   0.527970 0.419885 0.907949 -0.003904
C42   C     C_R   0.584688 0.532864 0.106935 -0.017777
H1    H     H_    0.435007 0.481827 0.200266 0.236565
H2    H     H_    0.598831 0.517357 0.790479 0.251658
N1    N     N_R   0.566020 0.731700 0.552730 -0.212197
N2    N     N_R   0.433980 0.268300 0.447270 -0.223891
O1    O     O_R   0.466720 0.383110 0.605620 -0.544505
O2    O     O_R   0.533280 0.616890 0.394380 -0.559442
O3    O     O_R   0.509090 0.531900 0.639510 -0.588644
O4    O     O_R   0.490910 0.468100 0.360490 -0.563568
O5    O     O_R   0.644370 0.425610 0.483050 -0.568536
O6    O     O_R   0.355630 0.574390 0.516950 -0.582301
O7    O     O_R   0.686740 0.574390 0.516930 -0.593393
O8    O     O_R   0.313260 0.425610 0.483070 -0.595841
Zn1   Zn    Zn3+2 0.471710 0.400660 0.477370 1.041515
Zn2   Zn    Zn3+2 0.528290 0.599340 0.522630 1.020392
O9    O     O_3   0.340005 0.229532 0.068291 -0.523421
C43   C     C_3   0.230672 0.248458 0.091039 -0.062878
H3    H     H_    0.192977 0.285298 0.033046 0.102804
H4    H     H_    0.240564 0.289497 0.147049 0.178771
H5    H     H_    0.165330 0.181422 0.112899 0.194711
O10   O     O_3   0.860246 0.670104 0.983962 -0.560211
C44   C     C_3   0.874423 0.719333 0.896482 -0.168021
H6    H     H_    0.788691 0.721803 0.863590 0.148559
H7    H     H_    0.929554 0.688620 0.855495 0.191571
H8    H     H_    0.923719 0.792184 0.898947 0.170872
F1    F     F_    0.720360 0.169159 0.531447 -0.600445
F2    F     F_    0.461660 0.883809 0.335258 -0.637386
O11   O     O_3   0.718200 0.719268 0.282587 -0.595862
C45   C     C_3   0.668444 0.796597 0.283477 -0.126381
H9    H     H_    0.675099 0.815464 0.351422 0.188165
H10   H     H_    0.572386 0.783147 0.266388 0.199481
H11   H     H_    0.721173 0.857324 0.238144 0.158330
O12   O     O_3   0.304881 0.275300 0.730172 -0.613232
C46   C     C_3   0.202309 0.311338 0.723347 -0.232858
H12   H     H_    0.152700 0.297943 0.788346 0.176725
H13   H     H_    0.142012 0.275648 0.675604 0.202693
H14   H     H_    0.225093 0.387118 0.697315 0.116697
O13   O     O_3   0.286961 0.203910 0.907800 -0.573567
C47   C     C_3   0.337391 0.128136 0.900518 -0.163860
H15   H     H_    0.420666 0.132180 0.938600 0.156146
H16   H     H_    0.355032 0.123331 0.829843 0.136882
H17   H     H_    0.272547 0.063030 0.929118 0.193298
O14   O     O_3   0.809284 0.756778 0.109539 -0.523611
C48   C     C_3   0.761891 0.823510 0.055094 -0.273077
H18   H     H_    0.834506 0.886866 0.035732 0.196607
H19   H     H_    0.690378 0.843861 0.090485 0.128637
H20   H     H_    0.725806 0.798026 0.993140 0.137589
O15   O     O_3   0.470403 0.338285 0.180833 -0.570025
C49   C     C_3   0.576063 0.310329 0.205161 -0.173535
H21   H     H_    0.656159 0.369585 0.193012 0.140500
H22   H     H_    0.586852 0.252622 0.169776 0.157779
H23   H     H_    0.570553 0.284198 0.277339 0.173140
O16   O     O_3   0.771998 0.536345 0.872296 -0.621685
C50   C     C_3   0.835806 0.467550 0.897008 -0.304507
H24   H     H_    0.774567 0.397285 0.913344 0.169362
H25   H     H_    0.894233 0.483870 0.953783 0.174881
H26   H     H_    0.894202 0.465852 0.839883 0.184847
F3    F     F_    0.805529 0.035967 0.625795 -0.600958
F4    F     F_    0.349877 0.010685 0.263311 -0.586860
O17   O     O_3   0.543083 0.220759 0.567630 -0.511407
C51   C     C_3   0.467895 0.166182 0.638300 -0.208261
H27   H     H_    0.469448 0.091662 0.643446 0.109664
H28   H     H_    0.374215 0.173245 0.631800 0.178058
H29   H     H_    0.501546 0.190229 0.701232 0.189226
O18   O     O_3   0.408730 0.766008 0.466689 -0.510832
C52   C     C_3   0.312094 0.766156 0.523148 -0.234334
H30   H     H_    0.310339 0.838062 0.532879 0.122833
H31   H     H_    0.314008 0.722239 0.588641 0.135071
H32   H     H_    0.227769 0.736258 0.491547 0.194542
O19   O     O_3   0.307000 0.320387 0.339520 -0.539436
C53   C     C_3   0.183870 0.302095 0.360821 -0.228465
H33   H     H_    0.158098 0.369483 0.355371 0.182654
H34   H     H_    0.159516 0.265440 0.429860 0.139466
H35   H     H_    0.131133 0.263062 0.311605 0.167392
O20   O     O_3   0.695190 0.681637 0.659804 -0.575334
C54   C     C_3   0.819061 0.694689 0.643737 -0.185386
H36   H     H_    0.871309 0.741056 0.687803 0.180789
H37   H     H_    0.846930 0.721561 0.572857 0.140332
H38   H     H_    0.841813 0.626302 0.660215 0.176627
O21   O     O_3   0.767887 0.864980 0.697256 -0.548740
C55   C     C_3   0.697031 0.867046 0.771925 -0.248458
H39   H     H_    0.635253 0.797916 0.793839 0.131040
H40   H     H_    0.645590 0.921551 0.758714 0.164688
H41   H     H_    0.756646 0.884547 0.827412 0.173335
O22   O     O_3   0.252146 0.144279 0.285989 -0.524717
C56   C     C_3   0.148409 0.080918 0.326145 -0.246188
H42   H     H_    0.077028 0.074661 0.276806 0.181543
H43   H     H_    0.114722 0.104960 0.384712 0.110228
H44   H     H_    0.163751 0.010446 0.346626 0.201652

loop_
_geom_bond_atom_site_label_1
_geom_bond_atom_site_label_2
_ccdc_geom_bond_type
C24   O6    A    
C30   C32   T    
C21   C26   A    
C4    C36   A    
O22   C56   S    
C50   H24   S    
C25   F1    S    
C37   O12   S    
C44   H7    S    
O9    C43   S    
C50   H26   S    
C1    C33   S    
C39   C41   A    
C11   O21   S    
C48   H18   S    
C27   F3    S    
C33   C39   A    
C34   C40   A    
C23   C29   S    
C15   O18   S    
C35   C37   A    
C54   H37   S    
C5    C6    A    
O7    Zn2   S    
C12   O22   S    
O18   C52   S    
C24   O8    A    
C7    O15   S    
O20   C54   S    
C51   H29   S    
O2    Zn2   S    
C2    O4    A    
C23   O5    A    
C40   H1    S    
O19   C53   S    
N1    Zn2   S    
C22   C25   A    
C1    O3    A    
N2    Zn1   S    
C52   H30   S    
C45   H9    S    
C19   C27   A    
O5    Zn1   S    
C28   F4    S    
C43   H5    S    
C40   C42   A    
C44   H8    S    
C34   C38   A    
C21   C22   A    
C52   H31   S    
C10   O10   S    
C47   H17   S    
C18   C20   A    
C53   H34   S    
C53   H33   S    
C23   O7    A    
C48   H19   S    
C14   O19   S    
O12   C46   S    
C51   H27   S    
O17   C51   S    
C8    O16   S    
O14   C48   S    
C47   H16   S    
C54   H38   S    
C16   N2    A    
C1    O1    A    
C20   C28   A    
C2    O2    A    
C43   H3    S    
C33   C37   A    
C44   H6    S    
C14   N2    A    
C46   H12   S    
C56   H43   S    
O10   C44   S    
C3    C9    A    
C49   H22   S    
C31   C32   S    
C3    C35   A    
C11   C19   A    
C12   C20   A    
C45   H11   S    
O16   C50   S    
C51   H28   S    
C46   H13   S    
O21   C55   S    
C6    C7    A    
C16   C18   A    
C12   C14   A    
C52   H32   S    
C15   N1    A    
C4    C10   A    
C56   H42   S    
C55   H40   S    
C49   H23   S    
O1    Zn1   S    
C48   H20   S    
C15   C17   A    
C5    C41   A    
O8    Zn1   S    
C3    C41   A    
C18   C22   A    
C47   H15   S    
C5    C8    A    
C50   H25   S    
C39   H2    S    
C25   C27   A    
O3    Zn2   S    
C26   C28   A    
O4    Zn1   S    
C26   F2    S    
C55   H41   S    
C36   C38   A    
O15   C49   S    
C56   H44   S    
C29   C31   T    
C54   H36   S    
C13   N1    A    
C11   C13   A    
C2    C34   S    
C49   H21   S    
C4    C42   A    
C36   O14   S    
C35   O13   S    
C17   C19   A    
C9    O9    S    
O11   C45   S    
C46   H14   S    
C24   C30   S    
C38   O11   S    
C13   O20   S    
O13   C47   S    
C7    C9    A    
C16   O17   S    
C8    C10   A    
C6    C42   A    
C45   H10   S    
C55   H39   S    
C43   H4    S    
C53   H35   S    
O6    Zn2   S    
C17   C21   A    
