data_mof_unit_1984.cif
_audit_creation_date              2012-10-26T18:27:55-0400
_audit_creation_method            fapswitch 2.2
_symmetry_space_group_name_H-M    P1
_symmetry_Int_Tables_number       1
_space_group_crystal_system       triclinic
_cell_length_a                    15.875091
_cell_length_b                    10.970944
_cell_length_c                    9.80609
_cell_angle_alpha                 111.337523
_cell_angle_beta                  96.728216
_cell_angle_gamma                 91.543049
_cell_volume                      1575.37706018

loop_
_atom_site_label
_atom_site_type_symbol
_atom_type_description
_atom_site_fract_x
_atom_site_fract_y
_atom_site_fract_z
_atom_type_partial_charge
C1    C     C_R   0.495841 0.253676 0.440138 0.560964
C2    C     C_2   0.529973 0.071687 0.511495 -0.165425
C3    C     C_2   0.511181 0.888901 0.596801 0.001181
C4    C     C_R   0.340563 0.500503 0.502804 0.550768
C5    C     C_2   0.522533 0.933051 0.488335 -0.153183
C6    C     C_2   0.509673 0.515757 0.087247 0.000805
C7    C     C_2   0.481394 0.544297 0.948443 0.096042
C8    C     C_R   0.506209 0.746802 0.560089 0.563557
C9    C     C_R   0.659519 0.500017 0.497433 0.550088
C10   C     C_3   0.048176 0.377071 0.522979 -0.194176
C11   C     C_3   0.040718 0.518436 0.363645 -0.067979
C12   C     C_3   0.950602 0.378941 0.530229 -0.077283
C13   C     C_3   0.942634 0.501056 0.352668 -0.199666
C14   C     C_1   0.748658 0.499831 0.493065 -0.052176
C15   C     C_3   0.084196 0.504642 0.509948 0.074644
C16   C     C_3   0.901858 0.244635 0.429167 -0.285733
C17   C     C_3   0.836865 0.198004 0.506776 -0.452809
C18   C     C_3   0.930043 0.758728 0.621659 -0.295839
C19   C     C_3   0.955967 0.877098 0.765064 -0.457900
C20   C     C_3   0.501277 0.977490 0.754465 -0.265480
C21   C     C_3   0.410596 0.961619 0.786632 -0.433472
C22   C     C_3   0.391947 0.586023 0.926847 -0.226952
C23   C     C_3   0.917084 0.502185 0.501328 0.053887
C24   C     C_3   0.359162 0.667293 0.071231 -0.467683
C25   C     C_3   0.074442 0.441582 0.215373 -0.278338
C26   C     C_3   0.072599 0.292492 0.168421 -0.432809
C27   C     C_3   0.109556 0.647888 0.799131 -0.279480
C28   C     C_3   0.068676 0.588855 0.897561 -0.451428
C29   C     C_3   0.960598 0.628452 0.632633 -0.066827
C30   C     C_3   0.060596 0.626065 0.642263 -0.060175
C31   C     C_1   0.824288 0.500294 0.495030 -0.081093
C32   C     C_1   0.176432 0.503536 0.510463 -0.085577
C33   C     C_1   0.251685 0.502281 0.508652 -0.061322
C34   C     C_2   0.496719 0.113366 0.406685 -0.136579
Cu1   Cu    Cu3+1 0.514650 0.521810 0.644910 0.905737
Cu2   Cu    Cu3+1 0.485350 0.478190 0.355090 0.908733
H1    H     H_    0.081576 0.364415 0.622286 0.101610
H2    H     H_    0.055041 0.622358 0.376472 0.095707
H3    H     H_    0.916723 0.409157 0.260764 0.121940
H4    H     H_    0.913514 0.581221 0.323953 0.090367
H5    H     H_    0.085240 0.712786 0.621297 0.111621
H6    H     H_    0.869646 0.180736 0.603856 0.135919
H7    H     H_    0.789465 0.271168 0.544172 0.163207
H8    H     H_    0.802662 0.104373 0.429251 0.139237
H9    H     H_    0.868360 0.249532 0.325795 0.150451
H10   H     H_    0.946296 0.165845 0.395450 0.132105
H11   H     H_    0.933040 0.859667 0.859636 0.145408
H12   H     H_    0.942244 0.393039 0.645907 0.129313
H13   H     H_    0.026022 0.897817 0.787507 0.140730
H14   H     H_    0.927235 0.965113 0.754931 0.134717
H15   H     H_    0.955771 0.777764 0.530135 0.135119
H16   H     H_    0.859618 0.752358 0.597949 0.154149
H17   H     H_    0.364653 0.987210 0.708379 0.148042
H18   H     H_    0.394319 0.859344 0.776640 0.156659
H19   H     H_    0.404742 0.028333 0.901093 0.135458
H20   H     H_    0.546443 0.951766 0.833536 0.153547
H21   H     H_    0.515972 0.082887 0.778876 0.139797
H22   H     H_    0.344199 0.605895 0.134680 0.173758
H23   H     H_    0.524272 0.864358 0.376171 0.135808
H24   H     H_    0.406735 0.748933 0.140522 0.153171
H25   H     H_    0.299515 0.710027 0.045453 0.118553
H26   H     H_    0.392245 0.652802 0.865049 0.189041
H27   H     H_    0.347280 0.498369 0.864847 0.139850
H28   H     H_    0.125918 0.264943 0.232547 0.148626
H29   H     H_    0.010914 0.250384 0.180511 0.140623
H30   H     H_    0.081791 0.248696 0.050250 0.126142
H31   H     H_    0.035905 0.463736 0.126110 0.128311
H32   H     H_    0.140765 0.479559 0.219842 0.147768
H33   H     H_    0.014975 0.645104 0.944108 0.131383
H34   H     H_    0.561681 0.141438 0.615941 0.150855
H35   H     H_    0.047112 0.484302 0.839578 0.136505
H36   H     H_    0.116599 0.596224 0.992859 0.128554
H37   H     H_    0.174335 0.613106 0.789125 0.148321
H38   H     H_    0.119890 0.755282 0.862986 0.128803
H39   H     H_    0.938897 0.623740 0.733962 0.143721
H40   H     H_    0.468233 0.044576 0.298735 0.095927
H41   H     H_    0.569030 0.565282 0.153330 0.134241
H42   H     H_    0.597703 0.536026 0.894687 0.200564
H43   H     H_    0.063293 0.290641 0.430733 0.116467
H44   H     H_    0.406343 0.402034 0.073882 0.207082
N1    N     N_2   0.463320 0.445430 0.137380 -0.356439
N2    N     N_2   0.536720 0.554500 0.862620 -0.352694
O1    O     O_R   0.507820 0.332330 0.577400 -0.487887
O2    O     O_R   0.483070 0.295500 0.332660 -0.484435
O3    O     O_R   0.391820 0.518430 0.622420 -0.511659
O4    O     O_R   0.367070 0.481600 0.377680 -0.492692
O5    O     O_R   0.516930 0.704500 0.667340 -0.490858
O6    O     O_R   0.492180 0.667670 0.422600 -0.505412
O7    O     O_R   0.632930 0.518400 0.622320 -0.499711
O8    O     O_R   0.608180 0.481570 0.377580 -0.494409

loop_
_geom_bond_atom_site_label_1
_geom_bond_atom_site_label_2
_ccdc_geom_bond_type
C24   H25   S    
Cu1   O3    S    
Cu1   Cu2   S    
C25   H31   S    
C14   C31   T    
C20   H20   S    
C18   H16   S    
C15   C32   S    
Cu2   O6    S    
C1    O2    A    
C12   C23   S    
C10   H1    S    
C23   C29   S    
C10   C15   S    
C21   H18   S    
C19   H11   S    
C4    O4    A    
C11   C25   S    
C13   C23   S    
C18   C19   S    
C19   H13   S    
C17   H6    S    
C13   H4    S    
C26   H28   S    
C22   H27   S    
C11   C15   S    
C28   H33   S    
C16   C17   S    
C18   H15   S    
C30   H5    S    
C27   H38   S    
C12   H12   S    
C2    C34   D    
C6    N1    D    
C27   C30   S    
C28   H36   S    
C25   H32   S    
Cu1   O5    S    
Cu1   N2    S    
C1    C34   S    
C5    H23   S    
C26   H30   S    
C12   C16   S    
C3    C8    S    
C16   H10   S    
C21   H19   S    
Cu1   O1    S    
C6    H41   S    
C4    O3    A    
Cu2   O4    S    
C25   C26   S    
C8    O6    A    
C23   C31   S    
C16   H9    S    
C11   H2    S    
C9    C14   S    
C17   H7    S    
C29   C30   S    
C22   H26   S    
H42   N2    S    
Cu2   N1    S    
C24   H24   S    
C3    C20   S    
C18   C29   S    
C10   C12   S    
Cu1   O7    S    
C22   C24   S    
C28   H35   S    
C9    O7    A    
C15   C30   S    
Cu2   O8    S    
C4    C33   S    
C26   H29   S    
H44   N1    S    
C3    C5    D    
C9    O8    A    
C10   H43   S    
C6    C7    S    
C29   H39   S    
C1    O1    A    
C7    C22   S    
C8    O5    A    
C32   C33   T    
C17   H8    S    
C2    H34   S    
C21   H17   S    
C11   C13   S    
C19   H14   S    
Cu2   O2    S    
C13   H3    S    
C2    C5    S    
C7    N2    D    
C20   C21   S    
C24   H22   S    
C27   C28   S    
C20   H21   S    
C27   H37   S    
C34   H40   S    
