data_mof_unit_205.cif
_audit_creation_date              2012-12-10T17:36:35-0500
_audit_creation_method            fapswitch 2.2
_symmetry_space_group_name_H-M    P1
_symmetry_Int_Tables_number       1
_space_group_crystal_system       triclinic
_cell_length_a                    12.060257
_cell_length_b                    12.791687
_cell_length_c                    15.687172
_cell_angle_alpha                 90.764521
_cell_angle_beta                  87.031347
_cell_angle_gamma                 94.119986
_cell_volume                      2410.47043994

loop_
_atom_site_label
_atom_site_type_symbol
_atom_type_description
_atom_site_fract_x
_atom_site_fract_y
_atom_site_fract_z
_atom_type_partial_charge
C1    C     C_R   0.522622 0.700164 0.496974 0.910835
C2    C     C_R   0.539593 0.025016 0.468835 0.134426
C3    C     C_R   0.951230 0.400868 0.421567 -0.443283
C4    C     C_R   0.047559 0.586639 0.588388 -0.437062
C5    C     C_R   0.834950 0.411206 0.427013 0.558726
C6    C     C_R   0.164695 0.579937 0.579665 0.548633
C7    C     C_R   0.859520 0.542157 0.535861 0.510521
C8    C     C_R   0.140745 0.464356 0.459987 0.501814
C9    C     C_R   0.976585 0.532488 0.531874 -0.113211
C10   C     C_R   0.022998 0.465693 0.470393 -0.122863
C11   C     C_R   0.500850 0.499843 0.661932 0.907935
C12   C     C_R   0.477247 0.299699 0.501680 0.914708
C13   C     C_R   0.499339 0.501119 0.338097 0.910134
C14   C     C_3   0.470901 0.597255 0.028967 -0.164401
C15   C     C_3   0.529820 0.409200 0.971256 -0.154515
C16   C     C_3   0.574477 0.578937 0.969775 -0.160424
C17   C     C_3   0.426272 0.427507 0.030405 -0.170806
C18   C     C_1   0.502773 0.499679 0.750892 -0.160552
C19   C     C_1   0.498003 0.504003 0.249196 -0.195623
C20   C     C_3   0.398496 0.520058 0.974695 -0.173032
C21   C     C_3   0.602224 0.486371 0.025490 -0.167143
C22   C     C_3   0.502064 0.501752 0.917348 0.211547
C23   C     C_R   0.617489 0.968598 0.421981 -0.328539
C24   C     C_3   0.498684 0.504685 0.082833 0.214448
C25   C     C_1   0.503200 0.500258 0.826318 -0.087746
C26   C     C_1   0.497728 0.505200 0.173812 -0.094050
C27   C     C_R   0.462116 0.187951 0.505087 -0.159290
C28   C     C_R   0.537392 0.811656 0.490445 -0.142357
C29   C     C_3   0.200178 0.184389 0.570837 0.117038
C30   C     C_3   0.121350 0.254437 0.619310 -0.775599
C31   C     C_3   0.783552 0.843913 0.349547 0.083382
C32   C     C_3   0.856947 0.760569 0.312759 -0.843403
C33   C     C_3   0.182077 0.452334 0.316454 0.118461
C34   C     C_R   0.379864 0.030271 0.570919 -0.300977
C35   C     C_3   0.223373 0.379565 0.246128 -0.844027
C36   C     C_3   0.828181 0.712929 0.567438 0.091558
C37   C     C_3   0.767412 0.783791 0.629845 -0.808842
C38   C     C_3   0.193890 0.673034 0.708393 0.070263
C39   C     C_3   0.287089 0.712116 0.765018 -0.827554
C40   C     C_3   0.804664 0.322862 0.297747 0.070764
C41   C     C_3   0.710096 0.287649 0.241110 -0.832658
C42   C     C_R   0.616883 0.859523 0.431603 0.463402
C43   C     C_R   0.378480 0.137654 0.558896 0.449712
C44   C     C_R   0.461954 0.868572 0.538440 -0.331145
C45   C     C_R   0.539690 0.131688 0.458620 -0.318123
C46   C     C_R   0.460493 0.974505 0.526641 0.120843
H1    H     H_    0.674472 0.009751 0.376284 0.127160
H2    H     H_    0.315345 0.533814 0.951576 0.133095
H3    H     H_    0.602081 0.171725 0.416029 0.201596
H4    H     H_    0.401369 0.829228 0.582963 0.192540
H5    H     H_    0.163739 0.101993 0.574891 0.119189
H6    H     H_    0.206958 0.209057 0.502730 0.171660
H7    H     H_    0.157090 0.336871 0.618701 0.259285
H8    H     H_    0.040020 0.250425 0.588856 0.204271
H9    H     H_    0.107880 0.228348 0.686518 0.243318
H10   H     H_    0.827174 0.885329 0.402566 0.124019
H11   H     H_    0.771830 0.899370 0.297343 0.148911
H12   H     H_    0.319242 0.991146 0.615413 0.152065
H13   H     H_    0.816385 0.719124 0.258673 0.262779
H14   H     H_    0.938572 0.797950 0.289270 0.201577
H15   H     H_    0.871307 0.702451 0.362196 0.233408
H16   H     H_    0.233405 0.528007 0.313362 0.160836
H17   H     H_    0.095752 0.469317 0.302686 0.111053
H18   H     H_    0.166474 0.307492 0.243556 0.237614
H19   H     H_    0.225718 0.419521 0.183582 0.203982
H20   H     H_    0.308150 0.356993 0.258552 0.265685
H21   H     H_    0.796492 0.721975 0.503210 0.190109
H22   H     H_    0.917496 0.741033 0.563865 0.114990
H23   H     H_    0.985961 0.342052 0.380189 0.185936
H24   H     H_    0.804217 0.782296 0.693222 0.242367
H25   H     H_    0.775030 0.865486 0.605992 0.201195
H26   H     H_    0.677879 0.756880 0.637077 0.258013
H27   H     H_    0.143232 0.609045 0.742894 0.142811
H28   H     H_    0.142867 0.740177 0.697308 0.135871
H29   H     H_    0.340725 0.775295 0.732550 0.246299
H30   H     H_    0.251238 0.743518 0.825923 0.202844
H31   H     H_    0.338425 0.646761 0.779580 0.259645
H32   H     H_    0.858527 0.256324 0.301881 0.134612
H33   H     H_    0.852447 0.391301 0.266791 0.132552
H34   H     H_    0.011090 0.632979 0.638958 0.180283
H35   H     H_    0.654519 0.352028 0.234489 0.263714
H36   H     H_    0.744464 0.266136 0.176730 0.202101
H37   H     H_    0.661188 0.218401 0.268960 0.241671
H38   H     H_    0.635116 0.640673 0.942710 0.134622
H39   H     H_    0.365733 0.365643 0.057386 0.134073
H40   H     H_    0.446721 0.674036 0.054819 0.133394
H41   H     H_    0.553985 0.332382 0.945470 0.135489
H42   H     H_    0.685355 0.472603 0.048643 0.132207
N1    N     N_R   0.207800 0.519340 0.515560 -0.172623
N2    N     N_R   0.792200 0.480660 0.484440 -0.169404
O1    O     O_R   0.421700 0.658830 0.504150 -0.597429
O2    O     O_3   0.679884 0.795186 0.378571 -0.611773
O3    O     O_3   0.189059 0.403779 0.396561 -0.594820
O4    O     O_3   0.811011 0.607959 0.595406 -0.584061
O5    O     O_3   0.240494 0.636661 0.630004 -0.571666
O6    O     O_3   0.760321 0.348806 0.379953 -0.575520
O7    O     O_R   0.578300 0.341170 0.495850 -0.586832
O8    O     O_R   0.609310 0.646410 0.494170 -0.587697
O9    O     O_R   0.390690 0.353590 0.505830 -0.574613
O10   O     O_R   0.406210 0.506220 0.628210 -0.568912
O11   O     O_R   0.593790 0.493780 0.371790 -0.572799
O12   O     O_R   0.593830 0.493800 0.618230 -0.583465
O13   O     O_R   0.406170 0.506200 0.381770 -0.612163
O14   O     O_3   0.304918 0.194830 0.607536 -0.604157
Zn1   Zn    Zn3+2 0.374730 0.508290 0.506660 1.022174
Zn2   Zn    Zn3+2 0.625270 0.491710 0.493340 1.034991

loop_
_geom_bond_atom_site_label_1
_geom_bond_atom_site_label_2
_ccdc_geom_bond_type
C11   C18   S    
C16   C21   S    
O1    Zn1   S    
C36   H21   S    
C2    C46   A    
C30   H8    S    
O10   Zn1   S    
C23   C42   A    
C17   H39   S    
C39   H31   S    
C36   C37   S    
C3    H23   S    
C24   C26   S    
C32   H15   S    
C4    H34   S    
C29   H5    S    
C38   C39   S    
C35   H19   S    
C41   H37   S    
C16   H38   S    
C17   C20   S    
C15   C17   S    
C14   C24   S    
C19   C26   T    
C43   O14   S    
C12   O9    A    
C15   C22   S    
C33   H16   S    
C22   C25   S    
C38   O5    S    
C1    C28   S    
C35   H18   S    
C34   C46   A    
C14   C16   S    
C39   H29   S    
C31   H10   S    
C13   O13   A    
C9    C10   A    
C5    N2    A    
C27   C45   A    
C21   H42   S    
C1    O1    A    
C37   H24   S    
C18   C25   T    
C40   O6    S    
C44   C46   A    
C2    C45   A    
O9    Zn1   S    
C30   H7    S    
C17   C24   S    
C23   H1    S    
C13   C19   S    
C12   C27   S    
C14   C20   S    
C14   H40   S    
C4    C6    A    
C35   H20   S    
C7    N2    A    
C28   C44   A    
C29   O14   S    
C11   O10   A    
C29   C30   S    
C36   O4    S    
C31   C32   S    
C45   H3    S    
C33   H17   S    
C41   H35   S    
C40   H33   S    
O13   Zn1   S    
C39   H30   S    
N2    Zn2   S    
C12   O7    A    
C20   H2    S    
O7    Zn2   S    
C40   C41   S    
C20   C22   S    
C31   O2    S    
C37   H25   S    
C40   H32   S    
C37   H26   S    
C32   H14   S    
C13   O11   A    
C5    O6    S    
C15   H41   S    
C38   H28   S    
C44   H4    S    
O11   Zn2   S    
C7    C9    A    
C7    O4    S    
C16   C22   S    
C8    O3    S    
C3    C5    A    
C33   O3    S    
C1    O8    A    
C36   H22   S    
C6    N1    A    
C30   H9    S    
O8    Zn2   S    
C31   H11   S    
C3    C10   A    
C41   H36   S    
C28   C42   A    
C33   C35   S    
O12   Zn2   S    
C11   O12   A    
C42   O2    S    
C27   C43   A    
C15   C21   S    
C8    C10   A    
C6    O5    S    
C21   C24   S    
N1    Zn1   S    
C2    C23   A    
C34   H12   S    
C8    N1    A    
C32   H13   S    
C4    C9    A    
C34   C43   A    
C29   H6    S    
C38   H27   S    
