data_mof_unit_14.cif
_audit_creation_date              2012-12-10T17:05:13-0500
_audit_creation_method            fapswitch 2.2
_symmetry_space_group_name_H-M    P1
_symmetry_Int_Tables_number       1
_space_group_crystal_system       triclinic
_cell_length_a                    10.772046
_cell_length_b                    10.925408
_cell_length_c                    9.856399
_cell_angle_alpha                 110.039694
_cell_angle_beta                  98.693134
_cell_angle_gamma                 92.461125
_cell_volume                      1071.61987428

loop_
_atom_site_label
_atom_site_type_symbol
_atom_type_description
_atom_site_fract_x
_atom_site_fract_y
_atom_site_fract_z
_atom_type_partial_charge
C1    C     C_R   0.494544 0.254225 0.440955 0.869775
C2    C     C_3   0.878956 0.509500 0.505324 -0.024299
C3    C     C_3   0.925327 0.612351 0.441477 0.350417
C4    C     C_3   0.907780 0.371983 0.407966 -0.545514
C5    C     C_2   0.493483 0.114077 0.405826 -0.341810
C6    C     C_2   0.556010 0.066143 0.499910 -0.187306
C7    C     C_2   0.539017 0.885453 0.586813 -0.367330
C8    C     C_2   0.533548 0.927761 0.474298 -0.174235
C9    C     C_2   0.519868 0.500300 0.078230 -0.203165
C10   C     C_2   0.497015 0.478035 0.915430 0.537911
C11   C     C_R   0.260501 0.502904 0.501325 0.803109
C12   C     C_R   0.514558 0.746096 0.558104 0.846826
C13   C     C_R   0.740222 0.505162 0.501344 0.798657
C14   C     C_3   0.095209 0.533013 0.664180 0.285029
C15   C     C_3   0.952445 0.539256 0.666098 -0.235706
C16   C     C_3   0.069063 0.609120 0.440263 -0.455338
C17   C     C_3   0.050113 0.371190 0.399299 -0.215460
C18   C     C_3   0.123231 0.505951 0.504058 -0.085895
Cu1   Cu    Cu3+1 0.522160 0.521810 0.644910 0.993358
Cu2   Cu    Cu3+1 0.477840 0.478190 0.355090 0.930450
H1    H     H_    0.852662 0.344122 0.294828 0.184877
H2    H     H_    0.083732 0.582458 0.324601 0.156180
H3    H     H_    0.876277 0.581058 0.324699 0.077349
H4    H     H_    0.504755 0.860905 0.361615 0.187010
H5    H     H_    0.616909 0.129595 0.599507 0.161596
H6    H     H_    0.564432 0.953216 0.699385 0.154302
H7    H     H_    0.437056 0.049177 0.302986 0.158012
H8    H     H_    0.603572 0.561827 0.147218 0.131152
H9    H     H_    0.621059 0.627913 0.935739 0.143806
H10   H     H_    0.115896 0.441492 0.685234 0.145379
H11   H     H_    0.358249 0.400899 0.075091 0.226952
H12   H     H_    0.919986 0.460024 0.703805 0.097747
H13   H     H_    0.120340 0.707874 0.494976 0.168542
H14   H     H_    0.060206 0.357529 0.284343 0.162655
H15   H     H_    0.875874 0.297617 0.452958 0.185250
N1    N     N_2   0.444530 0.445420 0.137360 -0.285480
N2    N     N_2   0.555520 0.554510 0.862630 -0.317174
O1    O     O_R   0.511820 0.332340 0.577400 -0.545014
O2    O     O_R   0.474400 0.295500 0.332650 -0.576709
O3    O     O_R   0.336400 0.518400 0.622370 -0.502526
O4    O     O_R   0.298980 0.481560 0.377620 -0.590256
O5    O     O_R   0.525600 0.704500 0.667350 -0.573931
O6    O     O_R   0.488180 0.667660 0.422600 -0.578264
O7    O     O_R   0.701020 0.518440 0.622380 -0.591213
O8    O     O_R   0.663600 0.481600 0.377630 -0.599198
O9    O     O_3   0.175078 0.630821 0.786119 -0.560450
C19   C     C_3   0.196781 0.754057 0.771916 0.122001
H16   H     H_    0.108961 0.789766 0.732081 0.179133
H17   H     H_    0.266245 0.750445 0.698655 0.138197
C20   C     C_3   0.253771 0.853891 0.921850 -0.783973
H18   H     H_    0.344239 0.823799 0.964708 0.248583
H19   H     H_    0.272213 0.951413 0.912971 0.193150
H20   H     H_    0.187552 0.861492 0.999848 0.256499
O10   O     O_3   0.406438 0.379119 0.821172 -0.528837
C21   C     C_3   0.440472 0.255497 0.822976 0.052664
H21   H     H_    0.452426 0.246954 0.932666 0.128626
H22   H     H_    0.531399 0.235828 0.784889 0.140720
C22   C     C_3   0.337473 0.149056 0.725465 -0.747123
H23   H     H_    0.332091 0.141394 0.610004 0.280516
H24   H     H_    0.358616 0.053315 0.734417 0.190217
H25   H     H_    0.244969 0.172250 0.759451 0.243025
C23   C     C_1   0.923729 0.661913 0.775325 0.406223
N3    N     N_1   0.900663 0.757235 0.860794 -0.305943
O11   O     O_3   0.901300 0.740079 0.527805 -0.603483
C24   C     C_3   0.838396 0.806810 0.441832 0.051057
H26   H     H_    0.800744 0.891899 0.517206 0.191031
H27   H     H_    0.755588 0.745463 0.361886 0.130488
C25   C     C_3   0.928862 0.859692 0.364982 -0.823228
H28   H     H_    0.960700 0.778150 0.278537 0.232945
H29   H     H_    0.880180 0.924025 0.312703 0.224160
H30   H     H_    0.012316 0.917494 0.445980 0.270097
C26   C     C_1   0.099245 0.256222 0.426570 0.236939
N4    N     N_1   0.136219 0.164763 0.445970 -0.323751

loop_
_geom_bond_atom_site_label_1
_geom_bond_atom_site_label_2
_ccdc_geom_bond_type
Cu1   Cu2   S    
C9    N1    D    
C20   H19   S    
C21   H21   S    
C11   C18   S    
C25   H30   S    
C23   N3    T    
C2    C15   S    
Cu1   O1    S    
C16   H13   S    
C12   O6    A    
C9    C10   S    
C14   C18   S    
H11   N1    S    
C3    H3    S    
C19   H16   S    
Cu1   O5    S    
C24   C25   S    
O11   C24   S    
C22   H25   S    
C12   O5    A    
C17   C18   S    
C4    H15   S    
C15   H12   S    
C19   H17   S    
C16   C18   S    
O9    C19   S    
C3    O11   S    
C13   O8    A    
C4    H1    S    
C2    C13   S    
C11   O3    A    
C7    H6    S    
C1    O1    A    
C14   H10   S    
C10   N2    D    
Cu2   O4    S    
C2    C4    S    
C25   H29   S    
C8    H4    S    
C15   C23   S    
C11   O4    A    
C19   C20   S    
C2    C3    S    
C21   H22   S    
C7    C12   S    
C10   O10   S    
C1    C5    S    
C20   H20   S    
C17   H14   S    
C4    C17   S    
C22   H24   S    
O10   C21   S    
C6    H5    S    
C7    C8    D    
Cu2   O6    S    
Cu1   O7    S    
C17   C26   S    
C14   O9    S    
C24   H26   S    
Cu1   O3    S    
C21   C22   S    
H9    N2    S    
C5    C6    D    
Cu2   O2    S    
C1    O2    A    
C14   C15   S    
C26   N4    T    
C6    C8    S    
Cu1   N2    S    
C20   H18   S    
C22   H23   S    
C5    H7    S    
C13   O7    A    
C3    C16   S    
Cu2   O8    S    
C9    H8    S    
C16   H2    S    
C25   H28   S    
C24   H27   S    
Cu2   N1    S    
