data_mof_unit_2724.cif
_audit_creation_date              2012-12-10T18:44:25-0500
_audit_creation_method            fapswitch 2.2
_symmetry_space_group_name_H-M    P1
_symmetry_Int_Tables_number       1
_space_group_crystal_system       triclinic
_cell_length_a                    12.920748
_cell_length_b                    10.702894
_cell_length_c                    9.924226
_cell_angle_alpha                 90.338864
_cell_angle_beta                  98.581864
_cell_angle_gamma                 90.647391
_cell_volume                      1356.92248366

loop_
_atom_site_label
_atom_site_type_symbol
_atom_type_description
_atom_site_fract_x
_atom_site_fract_y
_atom_site_fract_z
_atom_type_partial_charge
C1    C     C_R   0.501923 0.260445 0.500501 0.881402
C2    C     C_R   0.498077 0.739555 0.499499 0.881402
C3    C     C_R   0.497289 0.872110 0.498134 -0.073276
C4    C     C_R   0.502711 0.127890 0.501866 -0.073276
C5    C     C_R   0.557799 0.586061 0.084320 0.036578
C6    C     C_R   0.442201 0.413939 0.915680 0.036578
C7    C     C_R   0.556796 0.587525 0.941065 0.087314
C8    C     C_R   0.443204 0.412475 0.058934 0.087314
C9    C     C_R   0.297754 0.499919 0.471317 0.879723
C10   C     C_R   0.702246 0.500081 0.528683 0.879723
C11   C     C_R   0.815659 0.499673 0.548150 -0.103412
C12   C     C_R   0.184340 0.500328 0.451850 -0.103413
C13   C     C_R   0.014266 0.537393 0.321256 -0.166206
C14   C     C_R   0.985734 0.462611 0.678745 -0.166204
C15   C     C_R   0.121783 0.529779 0.326304 0.082609
C16   C     C_R   0.878216 0.470222 0.673696 0.082606
C17   C     C_R   0.137417 0.475345 0.567222 -0.266842
C18   C     C_R   0.862583 0.524658 0.432779 -0.266842
C19   C     C_R   0.030890 0.484133 0.561722 0.124486
C20   C     C_R   0.969110 0.515871 0.438279 0.124486
C21   C     C_R   0.441512 0.065617 0.394138 -0.239567
C22   C     C_R   0.558487 0.934383 0.605862 -0.239567
C23   C     C_R   0.438901 0.937320 0.390390 0.012630
C24   C     C_R   0.561099 0.062680 0.609611 0.012630
H1    H     H_    0.816174 0.549491 0.336638 0.174356
H2    H     H_    0.183826 0.450512 0.663362 0.174356
H3    H     H_    0.966123 0.560922 0.225864 0.155378
H4    H     H_    0.033877 0.439081 0.774137 0.155378
H5    H     H_    0.393881 0.117063 0.314579 0.147218
H6    H     H_    0.606119 0.882937 0.685421 0.147218
N1    N     N_R   0.499970 0.499970 0.857200 -0.135569
N2    N     N_R   0.500030 0.500030 0.142800 -0.135570
O1    O     O_R   0.499990 0.316750 0.614620 -0.610335
O2    O     O_R   0.500010 0.683250 0.385380 -0.610335
O3    O     O_R   0.499990 0.316780 0.385290 -0.637855
O4    O     O_R   0.500010 0.683220 0.614710 -0.637854
O5    O     O_R   0.346360 0.499970 0.595710 -0.613183
O6    O     O_R   0.653640 0.500030 0.404290 -0.613183
O7    O     O_R   0.346360 0.499990 0.366380 -0.650557
O8    O     O_R   0.653640 0.500010 0.633620 -0.650557
Zn1   Zn    Zn3+2 0.500000 0.499980 0.653120 0.945364
Zn2   Zn    Zn3+2 0.500000 0.500020 0.346880 0.945363
N3    N     N_3   0.836171 0.445335 0.796470 -0.450124
H7    H     H_    0.782371 0.371532 0.778753 0.226599
H8    H     H_    0.799300 0.525411 0.825160 0.201905
N4    N     N_3   0.163829 0.554663 0.203528 -0.450122
H9    H     H_    0.217631 0.628464 0.221242 0.226599
H10   H     H_    0.200699 0.474584 0.174840 0.201902
C25   C     C_1   0.375514 0.876608 0.275692 0.181369
N5    N     N_1   0.325217 0.829054 0.182877 -0.213440
C26   C     C_1   0.624485 0.123392 0.724309 0.181369
N6    N     N_1   0.674781 0.170947 0.817125 -0.213439
C27   C     C_1   0.620946 0.676803 0.168643 0.270903
N7    N     N_1   0.672053 0.750027 0.235334 -0.212820
C28   C     C_1   0.379053 0.323197 0.831357 0.270903
N8    N     N_1   0.327946 0.249973 0.764666 -0.212820
N9    N     N_3   0.611197 0.687254 0.885799 -0.474185
H11   H     H_    0.650327 0.653444 0.809224 0.227355
H12   H     H_    0.555501 0.752384 0.846431 0.212184
N10   N     N_3   0.388803 0.312746 0.114201 -0.474185
H13   H     H_    0.349673 0.346556 0.190776 0.227355
H14   H     H_    0.444499 0.247616 0.153569 0.212184

loop_
_geom_bond_atom_site_label_1
_geom_bond_atom_site_label_2
_ccdc_geom_bond_type
C12   C17   A    
C6    C8    A    
N3    H7    S    
C11   C18   A    
C14   C16   A    
C22   H6    S    
C11   C16   A    
C3    C23   A    
C19   C20   A    
C13   C20   A    
C12   C15   A    
C6    C28   S    
C10   O6    A    
C1    C4    S    
O1    Zn1   S    
C2    O2    A    
C24   C26   S    
C9    O5    A    
C2    C3    S    
N9    H11   S    
C1    O1    A    
C27   N7    T    
C8    N10   S    
C4    C21   A    
N3    H8    S    
C16   N3    S    
O4    Zn1   S    
C18   H1    S    
C17   H2    S    
C5    C27   S    
O8    Zn1   S    
C17   C19   A    
O6    Zn2   S    
O7    Zn2   S    
N4    H10   S    
C13   C15   A    
C21   C23   A    
O5    Zn1   S    
C4    C24   A    
C9    C12   S    
C22   C24   A    
C28   N8    T    
C23   C25   S    
N9    H12   S    
C10   C11   S    
C26   N6    T    
C8    N2    A    
C9    O7    A    
C7    N1    A    
C1    O3    A    
C18   C20   A    
N10   H14   S    
C25   N5    T    
C2    O4    A    
C5    C7    A    
O3    Zn2   S    
N2    Zn2   S    
N4    H9    S    
C13   H3    S    
C10   O8    A    
C6    N1    A    
N1    Zn1   S    
C15   N4    S    
C14   H4    S    
C21   H5    S    
C14   C19   A    
C7    N9    S    
C5    N2    A    
N10   H13   S    
C3    C22   A    
O2    Zn2   S    
