data_mof_unit_669.cif
_audit_creation_date              2013-03-05T16:10:51-0500
_audit_creation_method            fapswitch 2.2
_symmetry_space_group_name_H-M    P1
_symmetry_Int_Tables_number       1
_space_group_crystal_system       triclinic
_cell_length_a                    10.722371
_cell_length_b                    9.457818
_cell_length_c                    15.875115
_cell_angle_alpha                 90.002551
_cell_angle_beta                  89.367141
_cell_angle_gamma                 90.024494
_cell_volume                      1609.80076492

loop_
_atom_site_label
_atom_site_type_symbol
_atom_site_description
_atom_site_fract_x
_atom_site_fract_y
_atom_site_fract_z
_atom_type_partial_charge
O1    O     O_R   0.317570 0.620260 0.500050 -0.558102
O2    O     O_R   0.317570 0.379740 0.500050 -0.558138
C1    C     C_R   0.259933 0.499972 0.496608 0.777763
O3    O     O_R   0.499890 0.620310 0.379470 -0.584705
O4    O     O_R   0.499890 0.379690 0.379470 -0.584252
C2    C     C_R   0.499897 0.499996 0.340354 0.802900
Cu1   Cu    Cu3+1 0.499860 0.642410 0.500040 0.955056
Cu2   Cu    Cu3+1 0.499860 0.357590 0.500040 0.955510
O5    O     O_R   0.682190 0.620260 0.500020 -0.604266
O6    O     O_R   0.682190 0.379740 0.500020 -0.604648
O7    O     O_R   0.499870 0.620210 0.620600 -0.558308
O8    O     O_R   0.499870 0.379790 0.620600 -0.557420
C3    C     C_R   0.739894 0.500018 0.496950 0.745432
C4    C     C_R   0.499796 0.500006 0.659729 0.859433
C5    C     C_3   0.441644 0.641285 0.049073 0.149335
C6    C     C_3   0.414618 0.377348 0.049246 0.144474
C7    C     C_3   0.417299 0.376161 0.951122 -0.396238
C8    C     C_3   0.444262 0.641652 0.950943 -0.394309
H1    H     H_    0.347785 0.656669 0.927315 0.169468
H2    H     H_    0.320371 0.386181 0.927400 0.164465
H3    H     H_    0.341846 0.644850 0.069523 0.096531
H4    H     H_    0.316718 0.399844 0.069566 0.094455
H5    H     H_    0.454313 0.274256 0.926350 0.232858
H6    H     H_    0.500606 0.731429 0.925935 0.229966
C9    C     C_1   0.499265 0.500036 0.749359 -0.098773
C10   C     C_3   0.498561 0.500073 0.082926 0.062780
C11   C     C_3   0.498060 0.500158 0.917052 0.160339
C12   C     C_3   0.632701 0.482620 0.949938 -0.369009
C13   C     C_3   0.633281 0.482431 0.047423 -0.325885
C14   C     C_1   0.498681 0.500089 0.824902 -0.021876
C15   C     C_1   0.499115 0.500003 0.175215 -0.003630
C16   C     C_1   0.499530 0.499988 0.250743 -0.123035
H7    H     H_    0.694987 0.567853 0.070592 0.209468
H8    H     H_    0.676067 0.383243 0.070651 0.212476
H9    H     H_    0.692654 0.570323 0.926062 0.189962
H10   H     H_    0.673531 0.381873 0.926126 0.192930
C17   C     C_3   0.070453 0.503545 0.586169 -0.334544
C18   C     C_3   0.072073 0.365553 0.449758 -0.372914
H11   H     H_    0.105077 0.599424 0.619227 0.207849
H12   H     H_    0.107257 0.362061 0.383547 0.158296
H13   H     H_    0.104209 0.409708 0.621594 0.203932
H14   H     H_    0.105307 0.268322 0.481571 0.223672
C19   C     C_3   0.926690 0.504334 0.586381 -0.396057
C20   C     C_3   0.928611 0.364895 0.450715 -0.371959
H15   H     H_    0.891108 0.411389 0.622397 0.167874
H16   H     H_    0.895378 0.268401 0.484307 0.178017
H17   H     H_    0.892032 0.601139 0.618981 0.170150
H18   H     H_    0.893758 0.359250 0.384989 0.161653
H19   H     H_    0.105163 0.730323 0.475768 0.220414
H20   H     H_    0.108332 0.629802 0.380096 0.155625
H21   H     H_    0.894821 0.730344 0.476104 0.177306
H22   H     H_    0.894697 0.629490 0.380277 0.161735
C21   C     C_3   0.072354 0.630816 0.446145 -0.373601
C22   C     C_3   0.121837 0.499951 0.494636 0.130099
C23   C     C_3   0.877925 0.500026 0.494989 0.155342
C24   C     C_3   0.928759 0.630787 0.446274 -0.371196
C25   C     C_3   0.625670 0.083779 0.480544 -0.306022
C26   C     C_3   0.625780 0.916299 0.480860 -0.306725
H23   H     H_    0.695824 0.121401 0.526496 0.156618
H24   H     H_    0.695565 0.879217 0.527215 0.156336
H25   H     H_    0.657431 0.123030 0.417787 0.188192
H26   H     H_    0.658145 0.876510 0.418367 0.189122
H27   H     H_    0.542112 0.114658 0.630725 0.056632
H28   H     H_    0.540803 0.884452 0.630974 0.057327
C27   C     C_3   0.466260 0.083694 0.586764 0.288847
C28   C     C_3   0.465692 0.916126 0.586648 0.289656
C29   C     C_3   0.414915 0.083129 0.437534 -0.192320
C30   C     C_3   0.415414 0.916768 0.437227 -0.192783
N1    N     N_3   0.500250 0.143650 0.501830 -0.190475
N2    N     N_3   0.500250 0.856350 0.501830 -0.190422
H29   H     H_    0.318688 0.122999 0.445434 0.192678
H30   H     H_    0.319376 0.875846 0.444266 0.191968
H31   H     H_    0.443729 0.120382 0.373787 0.178868
H32   H     H_    0.445347 0.880441 0.373512 0.178012
N3    N     N_R   0.350985 0.144352 0.623174 0.177374
O9    O     O_R   0.350220 0.184457 0.701625 -0.356894
O10   O     O_R   0.245234 0.138809 0.584176 -0.364881
N4    N     N_R   0.349543 0.856031 0.622208 0.177428
O11   O     O_R   0.347612 0.814696 0.700426 -0.357043
O12   O     O_R   0.244349 0.862413 0.582545 -0.365724
N5    N     N_R   0.448680 0.238730 0.084028 0.156939
O13   O     O_R   0.374163 0.176903 0.137772 -0.326507
O14   O     O_R   0.548209 0.172133 0.058245 -0.316319
N6    N     N_R   0.503029 0.767362 0.083558 0.158879
O15   O     O_R   0.443446 0.846570 0.137569 -0.303514
O16   O     O_R   0.613202 0.806502 0.057386 -0.339945

loop_
_geom_bond_atom_site_label_1
_geom_bond_atom_site_label_2
_geom_bond_distance
_ccdc_geom_bond_type
C26   H26   1.112983 S    
C5    C8    1.557785 S    
C2    C16   1.422637 S    
C23   C24   1.553972 S    
H27   C27   1.116508 S    
C30   H32   1.112230 S    
Cu1   N2    2.023607 S    
N5    O13   1.301105 A    
Cu1   Cu2   2.693775 S    
C21   C22   1.554234 S    
Cu1   O7    1.925397 S    
Cu2   N1    2.023613 S    
C7    H5    1.112616 S    
C8    H6    1.112587 S    
C12   C13   1.547674 S    
N6    O16   1.301535 A    
C18   H14   1.109951 S    
O4    C2    1.296275 A    
O7    C4    1.295522 A    
N4    O12   1.299260 A    
C25   H23   1.111963 S    
C26   H24   1.112134 S    
C13   H7    1.109353 S    
C7    H2    1.113403 S    
C8    H1    1.113412 S    
H21   C24   1.113426 S    
O5    C3    1.295538 A    
C12   H9    1.113156 S    
C6    C7    1.557716 S    
C29   H31   1.112090 S    
Cu2   O8    1.925378 S    
C10   C15   1.465171 S    
C11   C14   1.462835 S    
O3    Cu1   1.925427 S    
N5    O14   1.301556 A    
C20   H16   1.113473 S    
C6    C10   1.566193 S    
C28   N4    1.475339 S    
H20   C21   1.113279 S    
C29   C30   1.573431 S    
C7    C11   1.551305 S    
N6    O15   1.301082 A    
O3    C2    1.296288 A    
N4    O11   1.301774 A    
C26   N2    1.494470 S    
C5    C10   1.566197 S    
C13   H8    1.109329 S    
C29   N1    1.492256 S    
H28   C28   1.116367 S    
C17   C19   1.541468 S    
N3    O9    1.301827 A    
C18   C20   1.538168 S    
N3    O10   1.298933 A    
C15   C16   1.199075 T    
C18   C22   1.554271 S    
C30   H30   1.104440 S    
C19   H15   1.113621 S    
C17   C22   1.548717 S    
C19   C23   1.548162 S    
O8    C4    1.295580 A    
C21   C24   1.539661 S    
C9    C14   1.199204 T    
Cu1   O5    1.966287 S    
C6    H4    1.115323 S    
O1    Cu1   1.965686 S    
O2    Cu2   1.965864 S    
C8    C11   1.551387 S    
O6    C3    1.295375 A    
O4    Cu2   1.925445 S    
C25   H25   1.112998 S    
C5    N6    1.470371 S    
C27   N3    1.475048 S    
C25   N1    1.494629 S    
O2    C1    1.295893 A    
C17   H11   1.113337 S    
C18   H12   1.113325 S    
C20   C23   1.553976 S    
C25   C26   1.584006 S    
C28   N2    1.503015 S    
C27   N1    1.503800 S    
C6    N5    1.470371 S    
C1    C22   1.481398 S    
C29   H29   1.104527 S    
C4    C9    1.422827 S    
C17   H13   1.113434 S    
H19   C21   1.110832 S    
H22   C24   1.113422 S    
C5    H3    1.115315 S    
C12   H10   1.113165 S    
C10   C13   1.553813 S    
Cu2   O6    1.966109 S    
C27   C28   1.584839 S    
C11   C12   1.549556 S    
C30   N2    1.492277 S    
O1    C1    1.295887 A    
C19   H17   1.113634 S    
C20   H18   1.113460 S    
C3    C23   1.479995 S    
