data_mof_unit_3382.cif
_audit_creation_date              2012-12-10T18:15:11-0500
_audit_creation_method            fapswitch 2.2
_symmetry_space_group_name_H-M    P1
_symmetry_Int_Tables_number       1
_space_group_crystal_system       triclinic
_cell_length_a                    12.672589
_cell_length_b                    13.164693
_cell_length_c                    23.399139
_cell_angle_alpha                 91.699327
_cell_angle_beta                  102.517684
_cell_angle_gamma                 82.530768
_cell_volume                      3778.56099218

loop_
_atom_site_label
_atom_site_type_symbol
_atom_type_description
_atom_site_fract_x
_atom_site_fract_y
_atom_site_fract_z
_atom_type_partial_charge
C1    C     C_R   0.439939 0.691555 0.490774 0.957377
C2    C     C_R   0.396834 0.637989 0.017245 -0.149572
C3    C     C_R   0.413680 0.648210 0.960346 0.461852
C4    C     C_R   0.488923 0.575931 0.939147 -0.125882
C5    C     C_R   0.559446 0.504059 0.977822 -0.077527
C6    C     C_R   0.634562 0.431180 0.957076 -0.114387
C7    C     C_R   0.716490 0.370851 0.997794 -0.148563
C8    C     C_R   0.717273 0.379506 0.058148 0.469041
C9    C     C_R   0.495225 0.572438 0.880036 0.579459
C10   C     C_R   0.621125 0.419504 0.895931 0.618200
C11   C     C_R   0.636486 0.481061 0.770859 -0.016205
C12   C     C_R   0.502303 0.497815 0.610831 0.932024
C13   C     C_R   0.619278 0.475729 0.709980 -0.273234
C14   C     C_R   0.513369 0.487899 0.674504 -0.146778
C15   C     C_R   0.422893 0.495165 0.700878 0.536941
C16   C     C_R   0.441439 0.482008 0.761656 -0.222683
C17   C     C_R   0.545899 0.482524 0.797016 0.150211
C18   C     C_R   0.490819 0.581916 0.238047 0.473938
C19   C     C_R   0.464269 0.582912 0.293112 -0.198222
C20   C     C_R   0.496577 0.492925 0.327348 -0.294418
C21   C     C_R   0.524223 0.397530 0.300927 -0.223982
C22   C     C_R   0.522738 0.395125 0.240608 0.476721
C23   C     C_R   0.560033 0.310442 0.513063 0.940600
C24   C     C_R   0.514774 0.487949 0.210508 0.008777
C25   C     C_R   0.735888 0.059928 0.542674 -0.022170
C26   C     C_R   0.596137 0.204269 0.532113 -0.140468
C27   C     C_R   0.301682 0.835828 0.500069 -0.274527
C28   C     C_R   0.283526 0.926940 0.530138 0.570765
C29   C     C_R   0.371314 0.980956 0.551840 -0.195699
C30   C     C_R   0.467262 0.963264 0.529336 0.009236
C31   C     C_R   0.483001 0.872803 0.496473 0.061027
C32   C     C_R   0.546267 0.032885 0.536159 0.008949
C33   C     C_R   0.651928 0.996509 0.526001 0.021440
C34   C     C_R   0.499164 0.498086 0.389833 1.047816
C35   C     C_R   0.664148 0.910137 0.489549 -0.038125
C36   C     C_R   0.574846 0.855127 0.470287 -0.114416
C37   C     C_R   0.521358 0.140516 0.543268 -0.047156
C38   C     C_R   0.705697 0.165186 0.539492 -0.198307
C39   C     C_R   0.405158 0.802500 0.490247 -0.155102
C40   C     C_R   0.086096 0.346351 0.416076 -0.312714
C41   C     C_R   0.810259 0.610019 0.580161 0.003262
C42   C     C_R   0.921453 0.606318 0.605942 0.453275
C43   C     C_R   0.997002 0.555031 0.577210 -0.252478
C44   C     C_R   0.964216 0.511762 0.521957 0.010205
C45   C     C_R   0.619674 0.440341 0.135981 0.598855
C46   C     C_R   0.852691 0.501028 0.502610 0.183367
C47   C     C_R   0.041015 0.468685 0.489092 -0.018334
C48   C     C_R   0.009902 0.395229 0.445923 0.137198
C49   C     C_R   0.902047 0.374001 0.431940 -0.208371
C50   C     C_R   0.824092 0.428127 0.458920 -0.139457
C51   C     C_R   0.146154 0.499753 0.495938 0.050651
C52   C     C_R   0.192627 0.370854 0.428946 0.100851
C53   C     C_R   0.446059 0.541018 0.110180 0.629544
C54   C     C_R   0.464206 0.562066 0.054987 -0.144031
C55   C     C_R   0.552176 0.502715 0.036853 -0.092910
C56   C     C_R   0.630433 0.439604 0.077283 -0.147536
H1    H     H_    0.766877 0.216326 0.541577 0.212306
H2    H     H_    0.238500 0.786811 0.489673 0.200320
H3    H     H_    0.361515 0.036398 0.585607 0.172529
H4    H     H_    0.877225 0.317035 0.399066 0.183504
H5    H     H_    0.062434 0.290691 0.382117 0.165369
H6    H     H_    0.081424 0.545534 0.599585 0.183894
H7    H     H_    0.743868 0.407113 0.447085 0.241173
H8    H     H_    0.689438 0.468427 0.690067 0.245847
H9    H     H_    0.373056 0.480595 0.782347 0.168607
N1    N     N_R   0.526852 0.488177 0.150783 -0.340502
N2    N     N_R   0.556067 0.492145 0.859228 -0.333883
N3    N     N_R   0.222200 0.444670 0.469780 -0.183576
N4    N     N_R   0.776960 0.554790 0.529910 -0.207204
O1    O     O_R   0.366740 0.627150 0.485570 -0.578451
O2    O     O_2   0.347962 0.570761 0.123192 -0.510532
O3    O     O_2   0.438724 0.646621 0.842856 -0.525524
O4    O     O_2   0.669175 0.335302 0.872987 -0.532806
O5    O     O_R   0.544830 0.662520 0.504870 -0.619510
O6    O     O_R   0.410930 0.482340 0.574190 -0.522223
O7    O     O_R   0.589010 0.517710 0.593490 -0.648975
O8    O     O_R   0.455170 0.337480 0.495130 -0.593148
O9    O     O_R   0.633260 0.372850 0.514430 -0.641882
O10   O     O_R   0.410990 0.482290 0.406510 -0.589404
O11   O     O_R   0.589070 0.517660 0.425810 -0.620668
O12   O     O_2   0.700022 0.393375 0.177840 -0.472046
Zn1   Zn    Zn3+2 0.381090 0.476380 0.487110 1.061524
Zn2   Zn    Zn3+2 0.618910 0.523620 0.512890 0.965797
C57   C     C_2   0.315146 0.713798 0.037492 1.032697
O13   O     O_2   0.222772 0.731347 0.007677 -0.555244
O14   O     O_R   0.345111 0.767211 0.089843 -0.737189
H10   H     H_    0.282816 0.817107 0.098818 0.363671
C58   C     C_2   0.395056 0.674439 0.310929 1.054853
O15   O     O_2   0.364292 0.675110 0.356937 -0.651078
O16   O     O_R   0.358490 0.758148 0.273115 -0.689360
H11   H     H_    0.309250 0.813488 0.289166 0.362091
C59   C     C_2   0.550685 0.299796 0.334853 0.988554
O17   O     O_2   0.602960 0.298051 0.385307 -0.666458
O18   O     O_R   0.516734 0.209125 0.308936 -0.747286
H12   H     H_    0.539500 0.148369 0.336482 0.373095
O19   O     O_3   0.539914 0.302342 0.212560 -0.534753
C60   C     C_3   0.439149 0.279348 0.178969 -0.146756
H13   H     H_    0.408368 0.332786 0.141453 0.138788
H14   H     H_    0.376904 0.280058 0.206129 0.162264
H15   H     H_    0.451307 0.201027 0.160727 0.202016
C61   C     C_2   0.758198 0.892612 0.460282 0.927747
O20   O     O_2   0.776588 0.960428 0.430564 -0.623842
O21   O     O_R   0.826167 0.799359 0.467494 -0.771773
H16   H     H_    0.886868 0.796775 0.445322 0.373297
C62   C     C_2   0.852483 0.020076 0.565193 0.911402
O22   O     O_2   0.880768 0.928333 0.572621 -0.648957
O23   O     O_R   0.929255 0.088614 0.582214 -0.804814
H17   H     H_    0.004302 0.052997 0.600607 0.371037
C63   C     C_2   0.418662 0.190173 0.558175 0.919245
O24   O     O_2   0.422317 0.235915 0.604676 -0.622934
O25   O     O_R   0.319167 0.188988 0.518279 -0.762707
H18   H     H_    0.255692 0.226405 0.533529 0.344291
O26   O     O_3   0.183473 0.958907 0.543594 -0.621262
C64   C     C_3   0.107425 0.986601 0.490995 -0.226333
H19   H     H_    0.088059 0.918249 0.463597 0.169988
H20   H     H_    0.136388 0.043574 0.465603 0.183692
H21   H     H_    0.030314 0.023063 0.501511 0.223164
O27   O     O_3   0.351130 0.725464 0.924528 -0.545070
C65   C     C_3   0.405934 0.813276 0.932892 -0.147616
H22   H     H_    0.357914 0.874129 0.902751 0.202351
H23   H     H_    0.488169 0.797716 0.922435 0.170924
H24   H     H_    0.412999 0.843335 0.978316 0.130042
C66   C     C_2   0.563802 0.803521 0.412482 0.907743
O28   O     O_2   0.497761 0.843874 0.371051 -0.567887
O29   O     O_R   0.631517 0.714991 0.403178 -0.773666
H25   H     H_    0.681819 0.686920 0.440485 0.363296
C67   C     C_2   0.265640 0.326171 0.391299 0.984624
O30   O     O_2   0.326497 0.247024 0.405512 -0.573850
O31   O     O_R   0.257860 0.370470 0.336767 -0.797329
H26   H     H_    0.308303 0.331052 0.313349 0.338062
C68   C     C_2   0.162967 0.603716 0.518917 0.897472
O32   O     O_2   0.241300 0.617333 0.557511 -0.588809
O33   O     O_R   0.081928 0.685502 0.499630 -0.822147
H27   H     H_    0.092813 0.749675 0.524069 0.347296
C69   C     C_2   0.732316 0.667300 0.611542 1.007216
O34   O     O_2   0.731350 0.642478 0.661319 -0.607757
O35   O     O_R   0.669808 0.756921 0.587556 -0.804329
H28   H     H_    0.622822 0.791684 0.614266 0.335774
O36   O     O_3   0.956750 0.641701 0.662216 -0.601824
C70   C     C_3   0.973731 0.744905 0.659561 -0.197829
H29   H     H_    0.894495 0.794983 0.651011 0.219087
H30   H     H_    0.021727 0.758075 0.626381 0.174139
H31   H     H_    0.020797 0.767002 0.702803 0.192794
C71   C     C_2   0.807499 0.304686 0.979417 1.033888
O37   O     O_2   0.832064 0.216346 0.996897 -0.557975
O38   O     O_R   0.867210 0.344678 0.943616 -0.755407
H32   H     H_    0.927594 0.292610 0.934438 0.354499
O39   O     O_3   0.800078 0.323955 0.097870 -0.538391
C72   C     C_3   0.886744 0.383591 0.114406 -0.145429
H33   H     H_    0.951075 0.341185 0.148212 0.204091
H34   H     H_    0.860158 0.458198 0.133893 0.157057
H35   H     H_    0.923746 0.396992 0.076760 0.136441
C73   C     C_2   0.748302 0.491074 0.804817 1.043622
O40   O     O_2   0.761933 0.538743 0.850933 -0.594932
O41   O     O_R   0.838602 0.448874 0.782810 -0.765296
H36   H     H_    0.910250 0.461577 0.809405 0.367033
O42   O     O_3   0.318077 0.517615 0.667291 -0.575320
C74   C     C_3   0.259662 0.599546 0.692734 -0.193600
H37   H     H_    0.311926 0.657626 0.714477 0.172913
H38   H     H_    0.216752 0.569536 0.724018 0.187635
H39   H     H_    0.197211 0.641226 0.658107 0.197466
O43   O     O_3   0.486551 0.672597 0.208782 -0.519419
C75   C     C_3   0.589678 0.707038 0.224790 -0.151760
H40   H     H_    0.653991 0.650787 0.211893 0.128167
H41   H     H_    0.611172 0.723505 0.272568 0.195223
H42   H     H_    0.586916 0.779524 0.201220 0.206775

loop_
_geom_bond_atom_site_label_1
_geom_bond_atom_site_label_2
_ccdc_geom_bond_type
C55   C56   A    
O42   C74   S    
O33   H27   S    
C11   C13   A    
C41   C42   A    
C2    C57   S    
C35   C36   A    
C9    O3    S    
C41   C69   S    
O5    Zn2   S    
C8    C56   A    
C9    N2    A    
C64   H19   S    
C25   C62   S    
C7    C8    A    
C53   C54   A    
C62   O23   S    
C61   O20   D    
C49   H4    S    
C18   C24   A    
C1    O5    A    
C27   C28   A    
C28   C29   A    
C75   H41   S    
C57   O14   S    
O26   C64   S    
C63   O25   S    
C30   C31   A    
C25   C38   A    
C10   O4    S    
C66   O29   S    
C15   C16   A    
C11   C73   S    
C40   C48   A    
C18   C19   A    
C23   C26   S    
O27   C65   S    
C46   N4    A    
C74   H39   S    
C34   O11   A    
C75   H40   S    
O9    Zn2   S    
C29   H3    S    
C45   C56   A    
C27   C39   A    
C16   C17   A    
O23   H17   S    
C70   H31   S    
C73   O41   S    
C37   C63   S    
C52   N3    A    
C44   C47   A    
C24   N1    S    
C20   C34   S    
C69   O34   D    
C61   O21   S    
C13   C14   A    
C74   H38   S    
C50   H7    S    
C8    O39   S    
O11   Zn2   S    
O7    Zn2   S    
C7    C71   S    
C60   H14   S    
C52   C67   S    
C44   C46   A    
C60   H13   S    
O41   H36   S    
C65   H23   S    
C17   N2    S    
C66   O28   D    
C75   H42   S    
C70   H29   S    
C71   O38   S    
C19   C58   S    
C2    C54   A    
C72   H35   S    
C51   C68   S    
O14   H10   S    
C26   C38   A    
C47   C51   A    
C68   O33   S    
C40   C52   A    
C23   O8    A    
C40   H5    S    
C74   H37   S    
C43   C44   A    
C67   O31   S    
C29   C30   A    
N4    Zn2   S    
C3    O27   S    
C34   O10   A    
C38   H1    S    
C47   C48   A    
O36   C70   S    
O19   C60   S    
C36   C66   S    
C59   O18   S    
C26   C37   A    
C32   C37   A    
C57   O13   D    
C53   N1    A    
C48   C49   A    
C12   C14   S    
C68   O32   D    
C12   O7    A    
O29   H25   S    
C22   C24   A    
C42   C43   A    
C3    C4    A    
C53   O2    S    
C45   N1    A    
C60   H15   S    
C41   N4    A    
O38   H32   S    
C62   O22   D    
C65   H24   S    
C69   O35   S    
C54   C55   A    
C11   C17   A    
O25   H18   S    
C42   O36   S    
C14   C15   A    
C22   O19   S    
C5    C55   A    
C45   O12   S    
C58   O16   S    
C71   O37   D    
C35   C61   S    
C27   H2    S    
C6    C10   A    
O10   Zn1   S    
C64   H20   S    
C65   H22   S    
O6    Zn1   S    
C15   O42   S    
C6    C7    A    
C70   H30   S    
O43   C75   S    
O35   H28   S    
C46   C50   A    
C1    O1    A    
N3    Zn1   S    
C32   C33   A    
C19   C20   A    
C72   H34   S    
C2    C3    A    
O31   H26   S    
C10   N2    A    
C72   H33   S    
C30   C32   A    
C18   O43   S    
O16   H11   S    
C5    C6    A    
C13   H8    S    
O8    Zn1   S    
C59   O17   D    
C33   C35   A    
C31   C39   A    
C51   N3    A    
C23   O9    A    
O18   H12   S    
O1    Zn1   S    
C64   H21   S    
C28   O26   S    
C1    C39   S    
C4    C5    A    
C58   O15   D    
C20   C21   A    
C49   C50   A    
C12   O6    A    
C63   O24   D    
O21   H16   S    
C31   C36   A    
C16   H9    S    
C4    C9    A    
C21   C22   A    
O39   C72   S    
C67   O30   D    
C43   H6    S    
C25   C33   A    
C73   O40   D    
C21   C59   S    
