data_mof_unit_1341.cif
_audit_creation_date              2012-12-11T14:46:12-0500
_audit_creation_method            fapswitch 2.2
_symmetry_space_group_name_H-M    P1
_symmetry_Int_Tables_number       1
_space_group_crystal_system       triclinic
_cell_length_a                    10.907659
_cell_length_b                    10.911588
_cell_length_c                    18.804288
_cell_angle_alpha                 90.260288
_cell_angle_beta                  89.536487
_cell_angle_gamma                 119.748102
_cell_volume                      1943.07482402

loop_
_atom_site_label
_atom_site_type_symbol
_atom_type_description
_atom_site_fract_x
_atom_site_fract_y
_atom_site_fract_z
_atom_type_partial_charge
Br1   Br    Br    0.622544 0.714553 0.638335 -0.495438
Br2   Br    Br    0.270328 0.361749 0.690891 -0.537307
C1    C     C_R   0.865299 0.637380 0.603843 0.581495
C2    C     C_R   0.916967 0.116693 0.705417 0.034697
C3    C     C_R   0.938375 0.125739 0.780052 0.016352
C4    C     C_R   0.215347 0.598822 0.611479 0.579396
C5    C     C_R   0.744459 0.195404 0.721456 0.019890
C6    C     C_R   0.781894 0.225801 0.793063 0.007019
C7    C     C_R   0.621027 0.196345 0.698806 -0.065614
C8    C     C_R   0.556570 0.253023 0.741589 -0.118775
C9    C     C_R   0.612022 0.308014 0.807902 -0.108362
C10   C     C_R   0.724094 0.294666 0.833769 -0.080200
C11   C     C_R   0.830113 0.164031 0.675616 -0.010359
C12   C     C_R   0.278307 0.539236 0.799332 -0.110642
C13   C     C_R   0.733699 0.674456 0.702473 0.141692
C14   C     C_R   0.715973 0.681483 0.775416 -0.077921
C15   C     C_R   0.803161 0.661420 0.823109 0.003120
C16   C     C_R   0.858555 0.224266 0.602799 0.533875
C17   C     C_R   0.905315 0.630602 0.798592 -0.154919
C18   C     C_R   0.918478 0.617102 0.726187 -0.141448
C19   C     C_R   0.836789 0.643695 0.678197 0.053083
C20   C     C_R   0.243803 0.536651 0.275210 -0.130074
C21   C     C_R   0.259312 0.553183 0.202583 -0.137209
C22   C     C_R   0.332949 0.688738 0.173644 0.022989
C23   C     C_R   0.260626 0.521394 0.727326 0.161163
C24   C     C_R   0.378026 0.807932 0.217587 -0.139758
C25   C     C_R   0.359550 0.790981 0.290838 -0.148415
C26   C     C_R   0.297888 0.655300 0.319800 0.028885
C27   C     C_R   0.785814 0.253037 0.275472 -0.128415
C28   C     C_R   0.870115 0.636669 0.395541 0.555320
C29   C     C_R   0.784172 0.236514 0.202804 -0.139784
C30   C     C_R   0.851604 0.168592 0.172393 0.023541
C31   C     C_R   0.932738 0.129908 0.214784 -0.138999
C32   C     C_R   0.936175 0.148698 0.288035 -0.150768
C33   C     C_R   0.857730 0.204968 0.318665 0.030931
C34   C     C_R   0.255950 0.626487 0.686069 0.053349
C35   C     C_R   0.965363 0.714259 0.276252 -0.129517
C36   C     C_R   0.949577 0.715156 0.203718 -0.137473
C37   C     C_R   0.814257 0.650536 0.174666 0.023725
C38   C     C_R   0.695011 0.573207 0.218365 -0.140069
C39   C     C_R   0.711270 0.570042 0.291483 -0.147773
C40   C     C_R   0.266618 0.631063 0.394882 0.559601
C41   C     C_R   0.846300 0.645527 0.320687 0.030796
C42   C     C_R   0.811738 0.106968 0.895899 0.531309
C43   C     C_R   0.390426 0.698860 0.898215 0.543094
C44   C     C_R   0.796290 0.691438 0.897059 0.534175
C45   C     C_R   0.861392 0.171219 0.824567 -0.042560
C46   C     C_R   0.809052 0.108374 0.101979 0.544358
C47   C     C_R   0.393216 0.704513 0.103115 0.544449
C48   C     C_R   0.797454 0.692777 0.104086 0.545842
C49   C     C_R   0.864903 0.235296 0.393924 0.545977
C50   C     C_R   0.279618 0.752947 0.718813 -0.158953
C51   C     C_R   0.314688 0.776476 0.790603 -0.148827
C52   C     C_R   0.317421 0.670048 0.830577 -0.011740
C53   C     C_R   0.036749 0.089103 0.807302 -0.053609
C54   C     C_R   0.096552 0.028433 0.763848 -0.094906
C55   C     C_R   0.065156 0.008771 0.691799 -0.080009
C56   C     C_R   0.977989 0.054541 0.662306 -0.029185
Cr1   Cr    Cr6+3 0.791660 0.390250 0.499930 1.039126
Cr2   Cr    Cr6+3 0.098520 0.708290 0.500540 1.015251
Cr3   Cr    Cr6+3 0.109770 0.401430 0.499480 1.062616
Cr4   Cr    Cr6+3 0.874790 0.925890 0.000070 1.003165
Cr5   Cr    Cr6+3 0.574120 0.948670 0.999300 1.014376
Cr6   Cr    Cr6+3 0.551420 0.625320 0.000920 1.006055
H1    H     H_    0.275637 0.835188 0.688638 0.134439
H2    H     H_    0.435695 0.913813 0.196037 0.140067
H3    H     H_    0.344509 0.878429 0.813850 0.137104
H4    H     H_    0.396305 0.882905 0.324788 0.126648
H5    H     H_    0.730573 0.303917 0.297819 0.143296
H6    H     H_    0.722808 0.268888 0.170939 0.129891
H7    H     H_    0.985697 0.076986 0.192130 0.140640
H8    H     H_    0.996571 0.116463 0.320706 0.125085
H9    H     H_    0.071412 0.766954 0.297507 0.142974
H10   H     H_    0.042895 0.773641 0.170815 0.130798
H11   H     H_    0.589269 0.522865 0.196787 0.140468
H12   H     H_    0.463856 0.254525 0.723049 0.171607
H13   H     H_    0.619174 0.512011 0.325176 0.129421
H14   H     H_    0.278734 0.454771 0.829244 0.161855
H15   H     H_    0.169634 0.998962 0.785932 0.105418
H16   H     H_    0.112634 0.962620 0.658319 0.137331
H17   H     H_    0.073693 0.111839 0.861400 0.137448
H18   H     H_    0.956612 0.038937 0.605876 0.140481
H19   H     H_    0.761467 0.332295 0.887017 0.116828
H20   H     H_    0.569495 0.148535 0.649291 0.153707
H21   H     H_    0.564477 0.355474 0.840509 0.133712
H22   H     H_    0.639005 0.709113 0.794909 0.154539
H23   H     H_    0.973247 0.616059 0.835204 0.115925
H24   H     H_    0.993391 0.587065 0.707129 0.104616
H25   H     H_    0.188815 0.430451 0.296474 0.141787
H26   H     H_    0.222092 0.460047 0.169431 0.130041
O1    O     O_R   0.766500 0.250040 0.579790 -0.524698
O2    O     O_R   0.413330 0.603360 0.920440 -0.532327
O3    O     O_R   0.676110 0.626250 0.926750 -0.509462
O4    O     O_R   0.798570 0.516780 0.574780 -0.474613
O5    O     O_R   0.895350 0.809870 0.080950 -0.524343
O6    O     O_R   0.872490 0.049760 0.073800 -0.507139
O7    O     O_R   0.691680 0.088070 0.079070 -0.526410
O8    O     O_R   0.451720 0.825250 0.074050 -0.506781
O9    O     O_R   0.413580 0.606370 0.080960 -0.523750
O10   O     O_R   0.676340 0.629040 0.075550 -0.505644
O11   O     O_3   0.666780 0.833290 0.000090 -0.237403
O12   O     O_R   0.218690 0.701900 0.425960 -0.502339
O13   O     O_R   0.984000 0.732950 0.581090 -0.543213
O14   O     O_R   0.218600 0.700890 0.574760 -0.510747
O15   O     O_R   0.249390 0.515350 0.579940 -0.414718
O16   O     O_R   0.982790 0.280900 0.573700 -0.494921
O17   O     O_R   0.766600 0.251130 0.419260 -0.521106
O18   O     O_R   0.798660 0.517790 0.425980 -0.500873
O19   O     O_R   0.984100 0.734040 0.420570 -0.521011
O20   O     O_R   0.249490 0.516440 0.419420 -0.511440
O21   O     O_R   0.982880 0.281910 0.424890 -0.511190
O22   O     O_3   0.999980 0.499990 0.499980 -0.285198
O23   O     O_R   0.895110 0.806860 0.920430 -0.516755
O24   O     O_R   0.872260 0.046970 0.925000 -0.515329
O25   O     O_R   0.691430 0.085060 0.918550 -0.509533
O26   O     O_R   0.451490 0.822460 0.925250 -0.496870

loop_
_geom_bond_atom_site_label_1
_geom_bond_atom_site_label_2
_ccdc_geom_bond_type
C53   C54   A    
Cr4   O6    S    
Cr6   O10   S    
C30   C46   S    
C17   C18   A    
Cr5   O11   S    
C5    C6    A    
C51   C52   A    
C46   O7    A    
C3    C45   A    
C24   C25   A    
C54   H15   S    
C11   C16   S    
C16   O1    A    
C22   C24   A    
Cr6   O3    S    
Cr4   O24   S    
Cr5   O8    S    
C17   H23   S    
C56   H18   S    
C39   H13   S    
C36   C37   A    
C48   O5    A    
C13   C14   A    
Br2   C23   S    
C54   C55   A    
C32   C33   A    
C2    C11   A    
C43   O2    A    
Cr2   O19   S    
C47   O8    A    
C8    H12   S    
C20   H25   S    
Cr6   O9    S    
C42   O25   A    
C14   C15   A    
C21   C22   A    
Br1   C13   S    
Cr1   O4    S    
C4    O14   A    
C53   H17   S    
Cr2   O13   S    
Cr3   O15   S    
C7    C8    A    
C34   C50   A    
C42   C45   S    
Cr4   O11   S    
Cr5   O25   S    
C42   O24   A    
C20   C26   A    
Cr4   O5    S    
C14   H22   S    
C39   C41   A    
C55   H16   S    
Cr2   O12   S    
Cr3   O20   S    
C40   O12   A    
Cr1   O22   S    
C27   H5    S    
C29   H6    S    
Cr6   O11   S    
C28   O19   A    
C24   H2    S    
C15   C44   S    
Cr4   O23   S    
C37   C38   A    
C7    H20   S    
Cr1   O17   S    
C10   H19   S    
C35   C41   A    
C16   O16   A    
C35   C36   A    
Cr2   O22   S    
C47   O9    A    
C29   C30   A    
C13   C19   A    
C6    C10   A    
C31   C32   A    
C21   H26   S    
Cr1   O1    S    
Cr3   O16   S    
Cr5   O26   S    
C49   O17   A    
C38   C39   A    
C12   C52   A    
C43   C52   S    
C33   C49   S    
C28   C41   S    
C1    C19   S    
Cr6   O2    S    
Cr3   O21   S    
C32   H8    S    
C50   C51   A    
C36   H10   S    
C1    O13   A    
C22   C47   S    
C5    C7    A    
C35   H9    S    
C49   O21   A    
C46   O6    A    
C44   O23   A    
C28   O18   A    
C3    C53   A    
C2    C3    A    
C9    C10   A    
C27   C33   A    
C48   O10   A    
Cr1   O18   S    
C38   H11   S    
C30   C31   A    
C40   O20   A    
C6    C45   A    
C27   C29   A    
C43   O26   A    
C55   C56   A    
C25   H4    S    
C44   O3    A    
C9    H21   S    
C18   H24   S    
C26   C40   S    
C15   C17   A    
C4    O15   A    
C4    C34   S    
C1    O4    A    
C12   H14   S    
C12   C23   A    
C51   H3    S    
C8    C9    A    
C31   H7    S    
C23   C34   A    
C5    C11   A    
C37   C48   S    
C18   C19   A    
Cr5   O7    S    
C2    C56   A    
C25   C26   A    
C20   C21   A    
Cr2   O14   S    
Cr3   O22   S    
C50   H1    S    
