data_mof_unit_2285.cif
_audit_creation_date              2012-12-10T18:58:12-0500
_audit_creation_method            fapswitch 2.2
_symmetry_space_group_name_H-M    P1
_symmetry_Int_Tables_number       1
_space_group_crystal_system       triclinic
_cell_length_a                    10.993621
_cell_length_b                    10.833546
_cell_length_c                    9.532133
_cell_angle_alpha                 90.11719
_cell_angle_beta                  102.225229
_cell_angle_gamma                 89.806044
_cell_volume                      1109.52375065

loop_
_atom_site_label
_atom_site_type_symbol
_atom_type_description
_atom_site_fract_x
_atom_site_fract_y
_atom_site_fract_z
_atom_type_partial_charge
C1    C     C_R   0.504084 0.262303 0.500308 0.817047
C2    C     C_R   0.516051 0.129032 0.502209 -0.127081
C3    C     C_R   0.557326 0.061708 0.392823 0.143608
C4    C     C_R   0.555950 0.932986 0.396112 -0.218844
C5    C     C_R   0.514752 0.870300 0.505676 -0.120791
C6    C     C_R   0.492764 0.937337 0.622629 0.068127
C7    C     C_3   0.387599 0.930674 0.699087 -0.428170
C8    C     C_3   0.385362 0.071321 0.695845 -0.055349
C9    C     C_R   0.600945 0.541959 0.098262 0.266373
C10   C     C_R   0.406455 0.446050 0.051484 -0.023158
C11   C     C_R   0.406473 0.445993 0.902544 -0.073133
C12   C     C_R   0.262296 0.497051 0.442239 0.804206
C13   C     C_R   0.601175 0.541467 0.950912 0.288529
C14   C     C_3   0.656743 0.667049 0.957626 -0.482247
C15   C     C_3   0.654810 0.668485 0.116343 -0.492830
C16   C     C_R   0.502164 0.737576 0.500909 0.823761
C17   C     C_R   0.737413 0.495550 0.557318 0.846642
C18   C     C_2   0.126802 0.484329 0.410434 0.029855
C19   C     C_2   0.069572 0.456700 0.518116 -0.188615
C20   C     C_2   0.873108 0.492700 0.586465 -0.384280
C21   C     C_2   0.935628 0.437480 0.496013 0.213243
C22   C     C_R   0.491563 0.064180 0.619806 0.109043
Cu1   Cu    Cu3+1 0.499990 0.499980 0.640670 0.948374
Cu2   Cu    Cu3+1 0.500010 0.500020 0.359330 0.976010
H1    H     H_    0.410045 0.115811 0.803489 0.166990
H2    H     H_    0.329834 0.404000 0.088324 0.164529
H3    H     H_    0.329905 0.403826 0.828122 0.132943
H4    H     H_    0.752391 0.665237 0.936564 0.217264
H5    H     H_    0.593224 0.736438 0.894592 0.214698
H6    H     H_    0.749141 0.669660 0.187222 0.224770
H7    H     H_    0.588128 0.737169 0.142678 0.212027
H8    H     H_    0.122210 0.450768 0.628149 0.133196
H9    H     H_    0.923156 0.544141 0.678754 0.145789
H10   H     H_    0.583541 0.882459 0.310283 0.173087
H11   H     H_    0.303572 0.886010 0.633137 0.210374
H12   H     H_    0.417740 0.892910 0.809339 0.177937
N1    N     N_R   0.500780 0.500930 0.148120 -0.189669
N2    N     N_R   0.500790 0.500890 0.852210 -0.192396
O1    O     O_R   0.500000 0.319640 0.618810 -0.589642
O2    O     O_R   0.500010 0.319680 0.381230 -0.551973
O3    O     O_R   0.320680 0.500000 0.575130 -0.606660
O4    O     O_R   0.320690 0.500040 0.337550 -0.553475
O5    O     O_R   0.499990 0.680320 0.618770 -0.582173
O6    O     O_R   0.500000 0.680360 0.381190 -0.581413
O7    O     O_R   0.679310 0.499960 0.662450 -0.571317
O8    O     O_R   0.679320 0.500000 0.424870 -0.581651
N3    N     N_3   0.878026 0.351118 0.387255 -0.510815
H13   H     H_    0.817512 0.397270 0.304728 0.271384
H14   H     H_    0.828157 0.286356 0.433497 0.231061
I1    I     I_    0.030470 0.513831 0.193828 -0.401274
I2    I     I_    0.618143 0.138892 0.213810 -0.407082
N4    N     N_3   0.271465 0.119630 0.604346 -0.552608
H15   H     H_    0.278039 0.215824 0.603647 0.222393
H16   H     H_    0.197845 0.099684 0.654293 0.233385

loop_
_geom_bond_atom_site_label_1
_geom_bond_atom_site_label_2
_ccdc_geom_bond_type
C2    C22   A    
C11   N2    A    
C8    C22   S    
Cu1   Cu2   S    
C15   H7    S    
C12   O3    A    
Cu1   O7    S    
Cu1   N2    S    
Cu2   O4    S    
C7    H12   S    
C8    N4    S    
N3    H13   S    
Cu1   O3    S    
C11   H3    S    
Cu2   O8    S    
C10   H2    S    
C14   H4    S    
C9    N1    A    
C2    C3    A    
C9    C15   S    
N4    H16   S    
C7    C8    S    
N3    H14   S    
C13   C14   S    
C20   C21   D    
C8    H1    S    
C16   O5    A    
C13   N2    A    
C6    C7    S    
C10   N1    A    
Cu1   O1    S    
C20   H9    S    
C19   C21   S    
C17   O7    A    
Cu2   N1    S    
C5    C6    A    
Cu2   O6    S    
C4    H10   S    
C10   C11   A    
C1    O1    A    
C14   H5    S    
C12   O4    A    
C3    C4    A    
C6    C22   A    
C17   C20   S    
Cu1   O5    S    
C17   O8    A    
C18   I1    S    
C15   H6    S    
C1    C2    S    
C12   C18   S    
C3    I2    S    
C14   C15   S    
C18   C19   D    
C5    C16   S    
C9    C13   A    
C1    O2    A    
Cu2   O2    S    
C7    H11   S    
C19   H8    S    
C16   O6    A    
N4    H15   S    
C4    C5    A    
C21   N3    S    
