data_mof_unit_2613.cif
_audit_creation_date              2013-03-05T16:04:00-0500
_audit_creation_method            fapswitch 2.2
_symmetry_space_group_name_H-M    P1
_symmetry_Int_Tables_number       1
_space_group_crystal_system       triclinic
_cell_length_a                    13.070426
_cell_length_b                    10.827851
_cell_length_c                    9.521817
_cell_angle_alpha                 89.990038
_cell_angle_beta                  95.477619
_cell_angle_gamma                 90.336735
_cell_volume                      1341.39471211

loop_
_atom_site_label
_atom_site_type_symbol
_atom_site_description
_atom_site_fract_x
_atom_site_fract_y
_atom_site_fract_z
_atom_type_partial_charge
O1    O     O_R   0.499990 0.319660 0.618740 -0.602191
O2    O     O_R   0.500010 0.680340 0.381260 -0.599496
O3    O     O_R   0.499990 0.319630 0.381170 -0.599565
O4    O     O_R   0.500010 0.680370 0.618830 -0.592836
C1    C     C_R   0.500115 0.262101 0.499974 0.768494
C2    C     C_R   0.500200 0.737917 0.500051 0.784778
O5    O     O_R   0.349000 0.499990 0.599490 -0.546104
O6    O     O_R   0.651000 0.500010 0.400510 -0.530981
O7    O     O_R   0.348990 0.499960 0.361920 -0.587889
O8    O     O_R   0.651010 0.500040 0.638080 -0.588500
C3    C     C_R   0.300445 0.499564 0.474908 0.854684
C4    C     C_R   0.698909 0.499737 0.525428 0.849031
Cu1   Cu    Cu3+1 0.500000 0.500020 0.640660 0.950867
Cu2   Cu    Cu3+1 0.500000 0.499980 0.359340 0.952015
C5    C     C_R   0.810567 0.502393 0.538929 -0.241276
C6    C     C_R   0.187651 0.495123 0.462890 -0.216567
C7    C     C_R   0.027514 0.450429 0.319192 0.484616
C8    C     C_R   0.968030 0.566930 0.671957 0.459527
C9    C     C_R   0.134340 0.465281 0.333047 -0.394150
C10   C     C_R   0.861908 0.556186 0.658545 -0.368722
C11   C     C_R   0.133029 0.520097 0.580353 0.404268
C12   C     C_R   0.865438 0.456571 0.429985 0.438617
C13   C     C_R   0.024935 0.521115 0.563934 -0.179611
C14   C     C_R   0.972360 0.475618 0.436556 -0.143957
H1    H     H_    0.819531 0.592148 0.741926 0.196523
H2    H     H_    0.176249 0.453575 0.241694 0.183099
C15   C     C_R   0.497436 0.063884 0.372063 -0.201288
C16   C     C_R   0.503370 0.936179 0.627992 -0.188267
H3    H     H_    0.494927 0.111898 0.271997 0.141549
H4    H     H_    0.505687 0.888152 0.728043 0.143112
C17   C     C_R   0.497668 0.936154 0.372085 -0.191725
C18   C     C_R   0.503363 0.063921 0.627974 -0.198030
H5    H     H_    0.495396 0.888114 0.272045 0.143492
H6    H     H_    0.505709 0.111980 0.728012 0.142660
C19   C     C_R   0.500460 0.871790 0.500041 -0.010898
C20   C     C_R   0.500345 0.128266 0.500002 -0.009884
C21   C     C_R   0.460324 0.402355 0.069148 -0.048591
C22   C     C_R   0.541455 0.596609 0.931116 -0.016222
H7    H     H_    0.427232 0.324636 0.120311 0.114692
H8    H     H_    0.575195 0.673909 0.879976 0.112970
C23   C     C_R   0.460656 0.402213 0.920552 -0.024569
C24   C     C_R   0.541506 0.596526 0.079777 0.000386
H9    H     H_    0.428090 0.324190 0.860854 0.108674
H10   H     H_    0.575295 0.673762 0.139797 0.116808
N1    N     N_R   0.500030 0.500030 0.852080 -0.152725
N2    N     N_R   0.499970 0.499970 0.147920 -0.154365
O9    O     O_3   0.814740 0.391105 0.318769 -0.517664
C25   C     C_3   0.797803 0.268798 0.364269 0.100620
H11   H     H_    0.754410 0.266651 0.459392 0.114576
H12   H     H_    0.872184 0.220284 0.389294 0.105115
C26   C     C_3   0.734415 0.198172 0.248058 -0.775137
H13   H     H_    0.778419 0.187599 0.154971 0.231715
H14   H     H_    0.715424 0.104802 0.286650 0.193809
H15   H     H_    0.661873 0.248087 0.216385 0.262966
O10   O     O_3   0.185330 0.549746 0.709381 -0.532724
C27   C     C_3   0.188939 0.444169 0.797431 0.152952
H16   H     H_    0.248224 0.379046 0.766616 0.121851
H17   H     H_    0.114320 0.393355 0.792636 0.113598
C28   C     C_3   0.216636 0.484303 0.949330 -0.737420
H18   H     H_    0.150927 0.532834 0.989877 0.278361
H19   H     H_    0.235605 0.401898 0.015793 0.157447
H20   H     H_    0.283878 0.547844 0.956326 0.253862
O11   O     O_3   0.975475 0.435858 0.186185 -0.520564
C29   C     C_3   0.999385 0.321079 0.127251 0.109180
H21   H     H_    0.978260 0.243439 0.195536 0.129860
H22   H     H_    0.082176 0.314179 0.111299 0.109473
C30   C     C_3   0.938691 0.307986 0.983441 -0.767163
H23   H     H_    0.960859 0.382562 0.912244 0.261055
H24   H     H_    0.954740 0.217163 0.936318 0.172986
H25   H     H_    0.855084 0.315273 0.993593 0.264134
O12   O     O_3   0.015045 0.621827 0.792496 -0.546983
C31   C     C_3   0.017405 0.750852 0.771784 0.129604
H26   H     H_    0.938089 0.789030 0.760904 0.116752
H27   H     H_    0.056576 0.775104 0.676361 0.143845
C32   C     C_3   0.076954 0.810964 0.899084 -0.781718
H28   H     H_    0.157227 0.776580 0.910730 0.262455
H29   H     H_    0.078298 0.912763 0.885062 0.180766
H30   H     H_    0.039827 0.788778 0.996276 0.249941

loop_
_geom_bond_atom_site_label_1
_geom_bond_atom_site_label_2
_geom_bond_distance
_ccdc_geom_bond_type
C22   H8    1.081045 S    
O10   C27   1.415879 S    
C6    C11   1.410173 A    
C15   H3    1.083172 S    
C32   H28   1.110895 S    
Cu2   N2    2.013065 S    
C2    C19   1.449539 S    
O5    C3    1.290814 A    
O1    C1    1.291478 A    
C18   C20   1.400934 A    
C12   C14   1.406920 A    
C22   C24   1.415462 A    
C10   H1    1.084136 S    
C1    C20   1.449159 S    
C26   H13   1.108003 S    
C27   H16   1.110700 S    
C24   N2    1.367165 A    
O4    Cu1   1.963800 S    
C9    H2    1.079149 S    
C22   N1    1.367089 A    
C25   C26   1.521017 S    
C16   C19   1.401061 A    
C13   C14   1.422339 A    
C17   H5    1.083250 S    
C25   H12   1.113377 S    
C12   O9    1.387007 S    
C28   H18   1.109720 S    
Cu1   Cu2   2.678678 S    
C23   H9    1.080645 S    
O2    C2    1.291421 A    
C24   H10   1.081050 S    
C31   C32   1.520825 S    
C5    C12   1.408193 A    
C5    C10   1.391594 A    
C28   H19   1.109308 S    
C7    C14   1.413901 A    
C15   C17   1.383067 A    
C8    C13   1.416980 A    
C29   C30   1.521794 S    
C16   C18   1.383173 A    
C31   H27   1.115252 S    
C11   O10   1.384555 S    
C30   H23   1.109128 S    
C30   H24   1.110401 S    
C18   H6    1.083275 S    
O7    Cu2   1.976260 S    
C32   H29   1.110542 S    
C3    C6    1.468276 S    
O9    C25   1.416049 S    
C4    C5    1.452912 S    
O6    C4    1.290243 A    
O7    C3    1.300142 A    
O3    Cu2   1.963799 S    
O8    C4    1.292581 A    
O4    C2    1.291394 A    
C25   H11   1.113773 S    
C11   C13   1.406654 A    
C17   C19   1.401063 A    
O1    Cu1   1.964066 S    
C8    O12   1.381875 S    
C28   H20   1.109941 S    
O6    Cu2   1.975143 S    
C31   H26   1.113947 S    
O3    C1    1.291171 A    
O8    Cu1   1.976260 S    
C15   C20   1.400933 A    
C27   C28   1.519953 S    
C26   H15   1.110610 S    
C29   H21   1.112243 S    
C30   H25   1.109458 S    
C16   H4    1.083254 S    
O12   C31   1.411458 S    
C21   H7    1.080927 S    
C7    O11   1.387741 S    
Cu1   N1    2.013065 S    
C6    C9    1.396960 A    
C7    C9    1.398222 A    
C27   H17   1.114104 S    
C8    C10   1.384940 A    
C21   C23   1.415318 A    
O2    Cu2   1.964067 S    
C32   H30   1.110823 S    
O11   C29   1.412598 S    
O5    Cu1   1.975145 S    
C23   N1    1.367160 A    
C26   H14   1.110444 S    
C21   N2    1.366710 A    
C29   H22   1.109945 S    
