data_mof_unit_610.cif
_audit_creation_date              2012-12-11T16:24:08-0500
_audit_creation_method            fapswitch 2.2
_symmetry_space_group_name_H-M    P1
_symmetry_Int_Tables_number       1
_space_group_crystal_system       triclinic
_cell_length_a                    14.737833
_cell_length_b                    14.723996
_cell_length_c                    33.342964
_cell_angle_alpha                 96.233423
_cell_angle_beta                  96.189165
_cell_angle_gamma                 61.235868
_cell_volume                      6292.29614515

loop_
_atom_site_label
_atom_site_type_symbol
_atom_type_description
_atom_site_fract_x
_atom_site_fract_y
_atom_site_fract_z
_atom_type_partial_charge
C1    C     C_R   0.391319 0.699316 0.446113 0.596213
C2    C     C_R   0.331401 0.345212 0.308801 0.006653
C3    C     C_R   0.385665 0.256053 0.330939 0.140724
C4    C     C_R   0.404586 0.266865 0.373116 0.177651
C5    C     C_R   0.397857 0.252309 0.164913 0.116187
C6    C     C_R   0.387022 0.236914 0.123015 -0.106005
C7    C     C_R   0.207416 0.371440 0.123026 -0.094741
C8    C     C_R   0.217831 0.386933 0.164891 0.389468
C9    C     C_R   0.311923 0.325228 0.186008 0.036315
C10   C     C_1   0.317665 0.332542 0.229267 0.153667
C11   C     C_1   0.323031 0.337541 0.265522 0.155818
C12   C     C_R   0.405434 0.385831 0.434173 0.565566
C13   C     C_R   0.290784 0.293545 0.101916 -0.074039
C14   C     C_R   0.759717 0.370568 0.410150 0.024424
C15   C     C_R   0.786793 0.435559 0.391353 0.192181
C16   C     C_R   0.804508 0.417820 0.350399 -0.050470
C17   C     C_R   0.802074 0.333140 0.328038 -0.029019
C18   C     C_R   0.792948 0.259324 0.347703 -0.066940
C19   C     C_R   0.772312 0.276691 0.388523 0.127875
C20   C     C_R   0.818108 0.315252 0.203257 0.395582
C21   C     C_R   0.805335 0.325220 0.284075 0.338236
C22   C     C_R   0.860877 0.384658 0.146875 0.108642
C23   C     C_R   0.702584 0.408809 0.447726 0.592328
C24   C     C_R   0.892977 0.371324 0.108081 -0.140720
C25   C     C_R   0.876442 0.214320 0.094973 0.171225
C26   C     C_R   0.842795 0.228224 0.134013 0.395927
C27   C     C_R   0.837914 0.311192 0.160633 0.004363
C28   C     C_R   0.906210 0.284314 0.082318 -0.068720
C29   C     C_R   0.375124 0.749600 0.408277 -0.033200
C30   C     C_R   0.277225 0.828249 0.394744 0.127342
C31   C     C_R   0.263227 0.862170 0.355537 0.162815
C32   C     C_R   0.347151 0.817836 0.330351 -0.041110
C33   C     C_R   0.445399 0.742993 0.344736 0.179576
C34   C     C_R   0.393377 0.701480 0.561310 0.570649
C35   C     C_R   0.458827 0.709532 0.383295 0.370737
C36   C     C_R   0.325707 0.854309 0.207302 0.339645
C37   C     C_R   0.331599 0.840769 0.287878 0.395616
C38   C     C_R   0.249014 0.846007 0.137450 -0.091404
C39   C     C_R   0.234768 0.868884 0.097087 -0.103852
C40   C     C_R   0.372274 0.916376 0.107330 -0.116066
C41   C     C_R   0.386143 0.894012 0.147731 -0.093551
C42   C     C_R   0.321597 0.862929 0.163533 0.031978
C43   C     C_R   0.293073 0.908775 0.082187 0.015680
C44   C     C_R   0.369470 0.370303 0.585268 0.018835
C45   C     C_R   0.406893 0.388728 0.549018 0.573546
C46   C     C_R   0.290497 0.455619 0.606292 0.354273
C47   C     C_R   0.271094 0.447037 0.645205 -0.075515
C48   C     C_R   0.329318 0.353865 0.664128 -0.062056
C49   C     C_R   0.400158 0.266028 0.642030 -0.096915
C50   C     C_R   0.419953 0.272971 0.602767 0.116176
C51   C     C_R   0.314955 0.349185 0.788400 0.366324
C52   C     C_R   0.321451 0.350410 0.707504 0.341725
C53   C     C_R   0.214765 0.403858 0.850741 0.380596
C54   C     C_R   0.205673 0.383366 0.889521 -0.141354
C55   C     C_R   0.386244 0.251246 0.892703 0.372108
C56   C     C_R   0.702281 0.413140 0.562520 0.554114
C57   C     C_R   0.395238 0.271544 0.853931 -0.131615
C58   C     C_R   0.308624 0.344197 0.831835 -0.027771
C59   C     C_R   0.289568 0.303285 0.909993 -0.038438
C60   C     C_R   0.753427 0.382286 0.603190 -0.005886
C61   C     C_R   0.747895 0.461517 0.632115 -0.152944
C62   C     C_R   0.773049 0.442528 0.672773 -0.148570
C63   C     C_R   0.804778 0.344009 0.685501 0.009939
C64   C     C_R   0.817940 0.261482 0.657031 0.199939
C65   C     C_R   0.793346 0.280022 0.615588 0.175527
C66   C     C_R   0.878660 0.216763 0.822409 -0.072548
C67   C     C_R   0.369537 0.367415 0.392518 -0.065092
C68   C     C_R   0.905804 0.203469 0.863633 0.126611
C69   C     C_R   0.860652 0.386700 0.874217 0.143777
C70   C     C_R   0.834039 0.397626 0.832869 -0.076655
C71   C     C_R   0.847064 0.312173 0.806882 -0.029938
C72   C     C_1   0.831391 0.321746 0.764038 0.027907
C73   C     C_1   0.819843 0.330623 0.728164 0.050849
C74   C     C_R   0.904292 0.287114 0.890051 0.027804
C75   C     C_R   0.376639 0.754033 0.602330 -0.003659
C76   C     C_R   0.279265 0.796049 0.618916 0.443134
C77   C     C_R   0.269999 0.823180 0.660408 0.208934
C78   C     C_R   0.308827 0.454822 0.369999 -0.114128
C79   C     C_R   0.357956 0.809400 0.685544 -0.022333
C80   C     C_R   0.453055 0.774531 0.668811 -0.160954
C81   C     C_R   0.462362 0.747404 0.627491 -0.189568
C82   C     C_R   0.396795 0.884528 0.832810 -0.099122
C83   C     C_R   0.376223 0.913690 0.873437 -0.107146
C84   C     C_R   0.232780 0.874704 0.863741 -0.096036
C85   C     C_R   0.253543 0.845587 0.823108 -0.083261
C86   C     C_R   0.333723 0.853206 0.807396 0.029853
C87   C     C_1   0.345873 0.836583 0.764698 0.019453
C88   C     C_1   0.352701 0.824606 0.728682 0.039647
C89   C     C_R   0.290339 0.443887 0.328571 0.380997
C90   C     C_R   0.291709 0.912469 0.888995 0.012814
C91   C     C_R   0.962994 0.264517 0.045611 0.569583
C92   C     C_R   0.272594 0.259519 0.060047 0.551972
C93   C     C_R   0.258739 0.960365 0.043957 0.540830
C94   C     C_R   0.960990 0.268067 0.930793 0.579204
C95   C     C_R   0.271028 0.264154 0.945425 0.573430
C96   C     C_R   0.256323 0.964730 0.928984 0.542447
Cr1   Cr    Cr6+3 0.576280 0.580550 0.506370 1.132891
Cr2   Cr    Cr6+3 0.346780 0.572400 0.496520 1.181032
Cr3   Cr    Cr6+3 0.576960 0.347070 0.497150 1.185928
Cr4   Cr    Cr6+3 0.087320 0.083240 0.984860 1.137000
Cr5   Cr    Cr6+3 0.087720 0.316210 0.996740 1.081874
Cr6   Cr    Cr6+3 0.317350 0.090340 0.995890 1.091285
H1    H     H_    0.452446 0.176828 0.107330 0.193031
H2    H     H_    0.914407 0.426738 0.099222 0.195700
H3    H     H_    0.818626 0.471632 0.335737 0.201224
H4    H     H_    0.796389 0.190661 0.330844 0.202305
H5    H     H_    0.173650 0.861541 0.078281 0.170333
H6    H     H_    0.199278 0.820441 0.148618 0.174761
H7    H     H_    0.418727 0.946602 0.096666 0.155793
H8    H     H_    0.444207 0.905766 0.166942 0.179105
H9    H     H_    0.130573 0.425517 0.902259 0.194603
H10   H     H_    0.214155 0.515512 0.661273 0.194434
H11   H     H_    0.442766 0.192143 0.655672 0.189588
H12   H     H_    0.469230 0.226712 0.840511 0.184804
H13   H     H_    0.884815 0.151460 0.802199 0.184395
H14   H     H_    0.718161 0.540392 0.623738 0.155208
H15   H     H_    0.805298 0.472822 0.820823 0.166194
H16   H     H_    0.763840 0.506134 0.694580 0.142725
H17   H     H_    0.423018 0.942551 0.892024 0.170910
H18   H     H_    0.459126 0.890510 0.820877 0.142332
H19   H     H_    0.521169 0.764159 0.687978 0.149088
H20   H     H_    0.538251 0.715340 0.615759 0.159413
H21   H     H_    0.204482 0.821102 0.803599 0.163467
H22   H     H_    0.167617 0.872343 0.874837 0.184727
H23   H     H_    0.280668 0.532762 0.383994 0.188739
H24   H     H_    0.132275 0.416038 0.107580 0.173052
N1    N     N_R   0.763988 0.407741 0.223913 -0.141772
N2    N     N_R   0.245988 0.431468 0.728120 -0.204244
N3    N     N_R   0.393935 0.269070 0.728151 -0.206227
N4    N     N_R   0.390553 0.268369 0.767775 -0.229728
N5    N     N_R   0.758086 0.412729 0.263600 -0.156273
N6    N     N_R   0.855705 0.231953 0.263297 -0.164565
N7    N     N_R   0.862532 0.227168 0.223552 -0.110748
N8    N     N_R   0.268311 0.818169 0.222583 -0.183465
N9    N     N_R   0.271745 0.810846 0.262164 -0.128906
N10   N     N_R   0.387862 0.878319 0.272812 -0.116729
N11   N     N_R   0.384504 0.885476 0.233227 -0.173651
N12   N     N_R   0.242438 0.430587 0.767760 -0.100980
O1    O     O_R   0.679450 0.499830 0.463150 -0.421617
O2    O     O_R   0.356040 0.477400 0.534170 -0.434949
O3    O     O_R   0.495910 0.323070 0.537100 -0.456539
O4    O     O_R   0.663920 0.359620 0.542290 -0.460686
O5    O     O_3   0.500010 0.500010 0.500010 -0.318755
O6    O     O_R   0.170070 0.978950 0.027680 -0.490735
O7    O     O_R   0.001760 0.175230 0.026640 -0.451898
O8    O     O_R   0.984760 0.333570 0.037150 -0.513889
O9    O     O_R   0.183410 0.309240 0.041890 -0.501675
O10   O     O_R   0.340240 0.172500 0.045430 -0.501292
O11   O     O_R   0.309670 0.000990 0.032050 -0.504997
O12   O     O_R   0.480650 0.664000 0.464630 -0.431217
O13   O     O_R   0.168330 0.982130 0.939200 -0.476592
O14   O     O_R   0.000140 0.178170 0.944610 -0.452755
O15   O     O_R   0.983010 0.336750 0.948660 -0.464646
O16   O     O_R   0.181800 0.312190 0.959860 -0.514483
O17   O     O_R   0.338500 0.175680 0.956950 -0.425565
O18   O     O_R   0.308050 0.003930 0.950020 -0.502743
O19   O     O_3   0.164130 0.163270 0.992500 -0.283008
O20   O     O_R   0.323930 0.675950 0.455370 -0.479738
O21   O     O_R   0.354700 0.475360 0.451930 -0.512373
O22   O     O_R   0.494470 0.320860 0.448390 -0.435938
O23   O     O_R   0.662580 0.357570 0.460050 -0.467000
O24   O     O_R   0.680900 0.502040 0.551870 -0.517184
O25   O     O_R   0.481990 0.666040 0.546870 -0.527554
O26   O     O_R   0.325370 0.678160 0.544080 -0.388164
Br1   Br    Br    0.761584 0.168104 0.411552 -0.277944
Br2   Br    Br    0.864341 0.498063 0.180444 -0.290822
Br3   Br    Br    0.880340 0.098267 0.061026 -0.311043
F1    F     F_    0.816732 0.159291 0.146344 -0.535942
Br4   Br    Br    0.163454 0.890739 0.429703 -0.259719
F2    F     F_    0.552711 0.631399 0.395114 -0.571747
Br5   Br    Br    0.529252 0.167659 0.192400 -0.338215
Br6   Br    Br    0.129864 0.968971 0.336247 -0.286228
Br7   Br    Br    0.561985 0.675236 0.311210 -0.275493
F3    F     F_    0.236062 0.550109 0.590650 -0.553295
Br8   Br    Br    0.517621 0.146172 0.575698 -0.327200
Br9   Br    Br    0.436538 0.120277 0.303171 -0.294486
F4    F     F_    0.129330 0.476209 0.830851 -0.575696
F5    F     F_    0.470726 0.176414 0.912103 -0.577103
Br10  Br    Br    0.944629 0.067574 0.880088 -0.426702
Br11  Br    Br    0.865814 0.124873 0.675199 -0.307469
Br12  Br    Br    0.816630 0.164837 0.576793 -0.240858
Br13  Br    Br    0.833310 0.512824 0.906450 -0.411388
Br14  Br    Br    0.476306 0.144534 0.403510 -0.250460
F6    F     F_    0.194105 0.806543 0.595305 -0.504484
Br15  Br    Br    0.137491 0.872983 0.682247 -0.286759
F7    F     F_    0.134555 0.458368 0.185003 -0.550429
F8    F     F_    0.236819 0.530207 0.307399 -0.554671
Br16  Br    Br    0.801418 0.550524 0.418573 -0.268599

loop_
_geom_bond_atom_site_label_1
_geom_bond_atom_site_label_2
_ccdc_geom_bond_type
C8    C9    A    
C7    C13   A    
C66   C68   A    
C87   C88   T    
C55   C59   A    
Cr2   O5    S    
C92   O10   A    
C77   Br15  S    
C41   C42   A    
C74   C94   S    
Cr3   O4    S    
C36   C42   S    
C82   H18   S    
C52   N2    A    
C7    C8    A    
C30   Br4   S    
C65   Br12  S    
C85   C86   A    
Cr4   O14   S    
C25   C28   A    
C39   H5    S    
C26   F1    S    
C26   C27   A    
C29   C30   A    
C84   C90   A    
C60   C61   A    
C52   N3    A    
C23   O1    A    
C1    O20   A    
C38   C42   A    
C34   O26   A    
C30   C31   A    
C64   Br11  S    
C31   Br6   S    
C70   H15   S    
C68   C74   A    
C15   C16   A    
C56   O24   A    
C18   C19   A    
C83   H17   S    
C49   C50   A    
N2    N12   A    
C21   N5    A    
Cr6   O10   S    
Cr3   O23   S    
C93   O11   A    
Cr4   O19   S    
C40   C43   A    
Cr1   O5    S    
Cr2   O20   S    
C53   C54   A    
C16   C17   A    
Cr1   O25   S    
Cr1   O12   S    
C37   N9    A    
C85   H21   S    
C70   C71   A    
C20   N7    A    
C33   Br7   S    
C36   N11   A    
C69   Br13  S    
C80   H19   S    
C56   O4    A    
C7    H24   S    
Cr5   O19   S    
C12   O21   A    
Cr3   O22   S    
C92   O9    A    
C45   O3    A    
C89   F8    S    
C61   C62   A    
C67   C78   A    
C59   C95   S    
C2    C11   S    
C43   C93   S    
Cr6   O19   S    
C79   C88   S    
C51   N4    A    
C44   C46   A    
C17   C18   A    
C57   C58   A    
C54   C59   A    
C77   C79   A    
C78   C89   A    
C38   C39   A    
C12   C67   S    
Cr5   O8    S    
C32   C37   S    
C66   H13   S    
C63   C64   A    
C1    O12   A    
C84   C85   A    
C20   N1    A    
C34   O25   A    
Cr4   O6    S    
C86   C87   S    
C80   C81   A    
C39   C43   A    
C63   C73   S    
C8    F7    S    
C25   C26   A    
C82   C86   A    
C96   O13   A    
C45   O2    A    
C25   Br3   S    
C56   C60   S    
Cr2   O2    S    
C50   Br8   S    
C24   H2    S    
C14   C23   S    
C2    C89   A    
C75   C76   A    
C18   H4    S    
C21   N6    A    
C5    C9    A    
C62   C63   A    
C47   C48   A    
Cr5   O15   S    
Cr4   O7    S    
C61   H14   S    
C1    C29   S    
C49   H11   S    
C5    Br5   S    
C37   N10   A    
C69   C74   A    
C51   C58   S    
C6    H1    S    
C76   C77   A    
C40   H7    S    
C93   O6    A    
C66   C71   A    
C16   H3    S    
C40   C41   A    
C60   C65   A    
Cr1   O24   S    
C22   C27   A    
C55   C57   A    
C13   C92   S    
C55   F5    S    
C22   C24   A    
C96   O18   A    
C3    C4    A    
Cr6   O18   S    
C91   O7    A    
C44   C45   S    
N3    N4    A    
C9    C10   S    
C44   C50   A    
C83   C90   A    
C46   C47   A    
Cr5   O9    S    
C14   C19   A    
Cr3   O3    S    
C31   C32   A    
C75   C81   A    
C24   C28   A    
C72   C73   T    
C12   O22   A    
C36   N8    A    
C4    C67   A    
Cr2   O26   S    
C53   C58   A    
C90   C96   S    
N8    N9    A    
C20   C27   S    
C84   H22   S    
C15   Br16  S    
C29   C35   A    
C68   Br10  S    
C81   H20   S    
C41   H8    S    
C95   O16   A    
C64   C65   A    
C2    C3    A    
C71   C72   S    
C32   C33   A    
C6    C13   A    
Cr6   O11   S    
Cr4   O13   S    
C5    C6    A    
C57   H12   S    
C53   F4    S    
Cr5   O16   S    
C94   O15   A    
C48   C49   A    
C33   C35   A    
C54   H9    S    
N6    N7    A    
C28   C91   S    
C95   O17   A    
C4    Br14  S    
C38   H6    S    
C69   C70   A    
N1    N5    A    
C62   H16   S    
C10   C11   T    
Cr3   O5    S    
C79   C80   A    
C22   Br2   S    
C51   N12   A    
C46   F3    S    
C3    Br9   S    
C48   C52   S    
C34   C75   S    
Cr2   O21   S    
C82   C83   A    
C35   F2    S    
C14   C15   A    
N10   N11   A    
C19   Br1   S    
C76   F6    S    
C78   H23   S    
C94   O14   A    
Cr6   O17   S    
Cr1   O1    S    
C91   O8    A    
C47   H10   S    
C23   O23   A    
C17   C21   S    
