data_mof_unit_3482.cif
_audit_creation_date              2012-12-10T17:03:43-0500
_audit_creation_method            fapswitch 2.2
_symmetry_space_group_name_H-M    P1
_symmetry_Int_Tables_number       1
_space_group_crystal_system       triclinic
_cell_length_a                    10.086679
_cell_length_b                    10.702272
_cell_length_c                    13.291168
_cell_angle_alpha                 89.514884
_cell_angle_beta                  71.240925
_cell_angle_gamma                 90.125119
_cell_volume                      1358.5027213

loop_
_atom_site_label
_atom_site_type_symbol
_atom_type_description
_atom_site_fract_x
_atom_site_fract_y
_atom_site_fract_z
_atom_type_partial_charge
C1    C     C_R   0.503735 0.736879 0.491503 0.896223
C2    C     C_R   0.441303 0.468026 0.979674 0.065999
C3    C     C_R   0.473349 0.439632 0.871527 0.023716
C4    C     C_R   0.546519 0.451976 0.027517 0.008370
C5    C     C_R   0.687747 0.437906 0.963919 0.088820
C6    C     C_R   0.715298 0.393450 0.860182 -0.059696
C7    C     C_R   0.602554 0.378964 0.820448 -0.038016
C8    C     C_R   0.514841 0.443187 0.136945 -0.062202
C9    C     C_R   0.758695 0.482767 0.118138 -0.211552
C10   C     C_R   0.377218 0.475863 0.818511 -0.105646
C11   C     C_2   0.620543 0.068336 0.469790 -0.150111
C12   C     C_R   0.423345 0.490759 0.702829 0.864715
C13   C     C_2   0.499787 0.130149 0.503630 -0.276559
C14   C     C_2   0.618338 0.934121 0.478807 -0.198741
C15   C     C_2   0.517357 0.865712 0.460300 -0.180210
C16   C     C_2   0.069806 0.400380 0.503723 0.093698
C17   C     C_2   0.914457 0.407079 0.528517 -0.127695
C18   C     C_R   0.499971 0.262650 0.500155 0.916828
C19   C     C_R   0.576403 0.493741 0.297176 0.851519
C20   C     C_R   0.794187 0.456834 0.009935 -0.164334
C21   C     C_R   0.618416 0.473625 0.182768 -0.089648
C22   C     C_R   0.243229 0.518266 0.877072 -0.174336
C23   C     C_R   0.209104 0.538532 0.985322 -0.150753
C24   C     C_R   0.308930 0.519266 0.035418 -0.139407
H1    H     H_    0.840772 0.502676 0.151962 0.165025
H2    H     H_    0.399399 0.083097 0.536671 0.169324
H3    H     H_    0.694215 0.892642 0.511369 0.196962
H4    H     H_    0.851414 0.329003 0.570256 0.153199
H5    H     H_    0.903845 0.452855 0.962874 0.150373
H6    H     H_    0.167891 0.543967 0.838064 0.181337
H7    H     H_    0.282967 0.549227 0.116950 0.152096
H8    H     H_    0.107903 0.576704 0.029244 0.147655
H9    H     H_    0.721310 0.115977 0.443515 0.182923
N1    N     N_2   0.148270 0.498670 0.498870 0.033681
N2    N     N_2   0.852610 0.498640 0.498840 -0.132045
O1    O     O_R   0.386950 0.680940 0.500020 -0.552842
O2    O     O_R   0.613110 0.680900 0.499980 -0.619035
O3    O     O_R   0.330780 0.500000 0.653640 -0.581122
O4    O     O_R   0.556930 0.499960 0.653610 -0.600003
O5    O     O_R   0.386890 0.319100 0.500020 -0.620236
O6    O     O_R   0.613050 0.319060 0.499980 -0.626340
O7    O     O_R   0.443070 0.500040 0.346390 -0.611588
O8    O     O_R   0.669220 0.500000 0.346360 -0.636068
Zn1   Zn    Zn3+2 0.349000 0.500030 0.500020 1.053863
Zn2   Zn    Zn3+2 0.651000 0.499970 0.499980 0.973554
C25   C     C_1   0.431325 0.911509 0.398619 0.233570
N3    N     N_1   0.363087 0.947413 0.349243 -0.160433
C26   C     C_1   0.128732 0.277460 0.481983 0.205034
N4    N     N_1   0.173042 0.177407 0.464642 -0.171539
Cl1   Cl    Cl    0.068416 0.626439 0.574344 -0.517975
C27   C     C_1   0.931131 0.567832 0.410006 0.419197
N5    N     N_1   0.995766 0.625135 0.336194 -0.243733
C28   C     C_1   0.853421 0.348031 0.800746 0.182420
N6    N     N_1   0.963843 0.311583 0.754070 -0.195608
C29   C     C_1   0.389139 0.374192 0.196274 0.202573
N7    N     N_1   0.289128 0.318760 0.242271 -0.196109
C30   C     C_1   0.608211 0.278819 0.746924 0.184468
N8    N     N_1   0.613175 0.196003 0.690610 -0.203557

loop_
_geom_bond_atom_site_label_1
_geom_bond_atom_site_label_2
_ccdc_geom_bond_type
C2    C4    A    
C23   C24   A    
O3    Zn1   S    
C6    C7    A    
C1    C15   S    
C1    O2    A    
C14   H3    S    
C11   C13   D    
C9    C20   A    
C19   O7    A    
O4    Zn2   S    
C4    C8    A    
C23   H8    S    
C16   C26   S    
C29   N7    T    
C2    C3    A    
C24   H7    S    
C9    H1    S    
C3    C10   A    
O5    Zn1   S    
C28   N6    T    
C10   C22   A    
C12   O3    A    
O8    Zn2   S    
C9    C21   A    
C30   N8    T    
O7    Zn1   S    
C13   C18   S    
C12   O4    A    
C10   C12   S    
C8    C29   S    
C17   N2    D    
C26   N4    T    
C19   C21   S    
C19   O8    A    
C8    C21   A    
C3    C7    A    
C20   H5    S    
C22   C23   A    
N2    C27   S    
C5    C6    A    
C11   C14   S    
C13   H2    S    
O1    Zn1   S    
N1    Cl1   S    
C6    C28   S    
O2    Zn2   S    
C27   N5    T    
N2    Zn2   S    
C11   H9    S    
N1    Zn1   S    
C18   O6    A    
C5    C20   A    
C18   O5    A    
C25   N3    T    
C4    C5    A    
O6    Zn2   S    
C2    C24   A    
C22   H6    S    
C15   C25   S    
C16   N1    D    
C14   C15   D    
C17   H4    S    
C7    C30   S    
C1    O1    A    
C16   C17   S    
