data_mof_unit_901.cif
_audit_creation_date              2012-12-11T20:49:05-0500
_audit_creation_method            fapswitch 2.2
_symmetry_space_group_name_H-M    P1
_symmetry_Int_Tables_number       1
_space_group_crystal_system       triclinic
_cell_length_a                    8.338501
_cell_length_b                    18.981284
_cell_length_c                    18.866367
_cell_angle_alpha                 100.908337
_cell_angle_beta                  93.607641
_cell_angle_gamma                 92.01516
_cell_volume                      2922.93971563

loop_
_atom_site_label
_atom_site_type_symbol
_atom_type_description
_atom_site_fract_x
_atom_site_fract_y
_atom_site_fract_z
_atom_type_partial_charge
Ba1   Ba    Ba6+2 0.153490 0.533960 0.468530 1.881931
Ba2   Ba    Ba6+2 0.656680 0.466030 0.531410 1.888394
C1    C     C_3   0.359522 0.739143 0.218961 0.217376
C2    C     C_R   0.099882 0.904581 0.561269 -0.008996
C3    C     C_R   0.262206 0.924795 0.581363 -0.086139
C4    C     C_3   0.884847 0.731319 0.312225 0.737278
C5    C     C_R   0.325733 0.991128 0.573211 -0.111129
C6    C     C_R   0.227066 0.041538 0.548402 -0.008738
C7    C     C_R   0.066371 0.020485 0.523877 0.010835
C8    C     C_R   0.287242 0.111725 0.546751 0.348303
C9    C     C_R   0.182988 0.163627 0.526253 -0.045224
C10   C     C_R   0.025212 0.140441 0.495217 -0.129411
C11   C     C_R   0.968875 0.068275 0.493744 -0.007531
C12   C     C_3   0.375483 0.702017 0.284476 0.712562
C13   C     C_R   0.227522 0.238380 0.538269 -0.023524
C14   C     C_R   0.115248 0.286880 0.518675 0.028504
C15   C     C_R   0.974177 0.263815 0.474958 0.083782
C16   C     C_3   0.840806 0.788130 0.265945 1.016787
C17   C     C_R   0.925508 0.188400 0.463815 -0.062511
C18   C     C_R   0.849243 0.926482 0.498490 0.027280
C19   C     C_R   0.792241 0.854683 0.498376 -0.014682
C20   C     C_R   0.888262 0.808003 0.532663 -0.091113
C21   C     C_R   0.033695 0.838029 0.572039 0.420625
C22   C     C_R   0.781821 0.158270 0.422840 0.437276
C23   C     C_3   0.534122 0.693082 0.662717 0.779093
C24   C     C_R   0.719262 0.089112 0.428535 0.003095
C25   C     C_R   0.813397 0.043981 0.463653 0.000043
C26   C     C_R   0.753565 0.973357 0.466278 0.061458
C27   C     C_R   0.562236 0.064567 0.400350 -0.039187
C28   C     C_3   0.799568 0.350542 0.295526 0.940187
C29   C     C_R   0.502412 0.995969 0.404435 -0.082166
C30   C     C_R   0.597934 0.949548 0.436202 0.048541
C31   C     C_R   0.637865 0.830392 0.464979 -0.046511
C32   C     C_R   0.540350 0.879395 0.436916 -0.056136
C33   C     C_R   0.587204 0.757406 0.458795 -0.048670
C34   C     C_3   0.626245 0.759810 0.707770 0.283846
C35   C     C_R   0.691381 0.709357 0.483663 0.095801
C36   C     C_R   0.836139 0.733424 0.524298 0.013539
C37   C     C_2   0.595000 0.525967 0.301455 -0.293538
C38   C     C_3   0.679536 0.574378 0.259150 -0.053142
C39   C     C_2   0.641957 0.553312 0.178568 -0.153724
C40   C     C_3   0.827705 0.321006 0.215295 0.188990
C41   C     C_2   0.516074 0.507191 0.150826 -0.143049
C42   C     C_2   0.422657 0.471160 0.201605 0.306602
C43   C     C_1   0.469857 0.483023 0.271807 0.109281
C44   C     C_R   0.349345 0.490626 0.932725 0.516975
C45   C     C_3   0.956802 0.280534 0.715454 0.312721
C46   C     C_R   0.463046 0.499583 0.072739 0.429706
C47   C     C_R   0.388345 0.517064 0.808835 0.294210
C48   C     C_R   0.330220 0.516139 0.737433 0.026392
C49   C     C_R   0.083826 0.450504 0.756084 -0.102897
C50   C     C_R   0.138118 0.453665 0.829754 0.217051
C51   C     C_R   0.292103 0.486040 0.855725 -0.108421
C52   C     C_3   0.028173 0.653749 0.703919 0.612722
C53   C     C_R   0.179936 0.482618 0.711388 0.090396
C54   C     C_3   0.068269 0.698801 0.780941 0.600289
C55   C     C_3   0.301093 0.314854 0.370148 0.328982
C56   C     C_3   0.904938 0.203583 0.720291 0.228237
C57   C     C_3   0.272638 0.232654 0.347216 0.570900
C58   C     C_3   0.418595 0.270505 0.711374 0.974225
C59   C     C_3   0.504681 0.252941 0.780521 0.236409
C60   C     C_R   0.005009 0.950426 0.527649 -0.004134
H1    H     H_    0.283701 0.209310 0.396657 0.021899
H2    H     H_    0.235328 0.760468 0.754577 0.378850
H3    H     H_    0.118664 0.636688 0.849898 0.272614
H4    H     H_    0.954938 0.706282 0.809306 0.037977
H5    H     H_    0.195186 0.338181 0.396500 -0.035082
H6    H     H_    0.406936 0.325768 0.409760 0.033762
H7    H     H_    0.232225 0.734679 0.196342 0.026117
H8    H     H_    0.108194 0.232765 0.269235 0.354610
H9    H     H_    0.367300 0.214401 0.253584 0.326162
H10   H     H_    0.505267 0.695201 0.296805 -0.048535
H11   H     H_    0.394746 0.673351 0.129982 0.322280
H12   H     H_    0.551401 0.197968 0.768948 0.021584
H13   H     H_    0.623434 0.659824 0.632241 -0.178228
H14   H     H_    0.472555 0.745812 0.587473 0.238223
H15   H     H_    0.708093 0.743130 0.749768 0.052800
H16   H     H_    0.699933 0.786072 0.671998 -0.055778
H17   H     H_    0.585982 0.850249 0.768476 0.316080
H18   H     H_    0.394806 0.797111 0.236382 0.098165
H19   H     H_    0.684566 0.861593 0.265792 0.335861
H20   H     H_    0.002364 0.280609 0.661293 0.007375
H21   H     H_    0.053421 0.299422 0.758755 0.010015
H22   H     H_    0.846284 0.163936 0.619420 0.305380
H23   H     H_    0.420267 0.863268 0.413352 0.106252
H24   H     H_    0.010394 0.169207 0.718024 0.039067
H25   H     H_    0.853306 0.203556 0.773101 0.075482
H26   H     H_    0.302673 0.177089 0.690528 0.248522
H27   H     H_    0.311594 0.350935 0.763554 0.282356
H28   H     H_    0.334976 0.213032 0.829094 0.314093
H29   H     H_    0.608667 0.291389 0.798871 0.119584
H30   H     H_    0.000172 0.727446 0.402842 0.312404
H31   H     H_    0.343225 0.888399 0.601268 0.110487
H32   H     H_    0.452932 0.001912 0.587507 0.092590
H33   H     H_    0.173527 0.363718 0.594734 0.320972
H34   H     H_    0.331031 0.607696 0.224076 0.260822
H35   H     H_    0.480409 0.115337 0.609487 0.311354
H36   H     H_    0.163112 0.840132 0.661837 0.317839
H37   H     H_    0.672561 0.159855 0.330189 0.316151
H38   H     H_    0.482822 0.098718 0.376255 0.136589
H39   H     H_    0.381216 0.979010 0.382086 0.095887
H40   H     H_    0.770012 0.711141 0.329930 -0.173118
H41   H     H_    0.585260 0.628629 0.508957 0.305211
H42   H     H_    0.707977 0.581606 0.143775 0.145017
H43   H     H_    0.230129 0.450075 0.136907 0.318814
H44   H     H_    0.589629 0.524547 0.868014 0.315701
H45   H     H_    0.792152 0.262786 0.201627 0.085767
H46   H     H_    0.940274 0.407954 0.854013 0.311706
H47   H     H_    0.634845 0.530213 0.357954 0.141246
H48   H     H_    0.124839 0.529533 0.631322 0.310896
H49   H     H_    0.066153 0.811575 0.253005 0.281085
H50   H     H_    0.890839 0.738447 0.169663 0.291631
H51   H     H_    0.597742 0.298094 0.292002 0.303991
H52   H     H_    0.829596 0.446397 0.278552 0.240579
H53   H     H_    0.750333 0.348192 0.179265 -0.010667
H54   H     H_    0.004171 0.378076 0.190409 0.351205
H55   H     H_    0.143245 0.638709 0.680687 -0.034887
H56   H     H_    0.948349 0.577511 0.752178 0.248779
N1    N     N_R   0.416561 0.553224 0.971958 -0.216003
N2    N     N_R   0.472428 0.557519 0.040359 -0.231685
N3    N     N_R   0.396722 0.436676 0.033365 -0.205966
N4    N     N_R   0.341088 0.432256 0.964673 -0.151679
O1    O     O_2   0.117290 0.676350 0.548250 -0.390349
O2    O     O_2   0.747565 0.456669 0.746801 -0.431029
O3    O     O_3   0.825997 0.324499 0.726712 -0.607950
O4    O     O_3   0.869060 0.586940 0.542720 -0.431266
O5    O     O_3   0.438990 0.460930 0.412890 -0.492717
O6    O     O_2   0.623700 0.539890 0.674570 -0.388476
O7    O     O_3   0.455927 0.656722 0.709978 -0.604465
O8    O     O_2   0.551895 0.247090 0.518334 -0.432778
O9    O     O_3   0.521353 0.256059 0.654383 -0.527064
O10   O     O_3   0.356990 0.628630 0.417250 -0.420800
O11   O     O_2   0.262686 0.755958 0.479016 -0.457418
O12   O     O_3   0.328166 0.345134 0.309474 -0.582509
O13   O     O_3   0.946793 0.696627 0.662772 -0.625394
O14   O     O_3   0.308829 0.745493 0.342995 -0.598933
O15   O     O_2   0.186600 0.460070 0.325400 -0.381139
O16   O     O_3   0.942970 0.591450 0.378940 -0.445622
O17   O     O_2   0.008763 0.537014 0.244212 -0.445190
O18   O     O_3   0.291708 0.634937 0.269082 -0.682814
O19   O     O_3   0.990212 0.329731 0.202483 -0.682141
O20   O     O_3   0.927248 0.593346 0.705562 -0.737276
O21   O     O_3   0.131778 0.767349 0.777444 -0.660634
O22   O     O_3   0.180082 0.664268 0.819945 -0.728830
O23   O     O_3   0.971270 0.676010 0.272224 -0.619783
O24   O     O_3   0.117298 0.213500 0.314547 -0.722840
O25   O     O_3   0.389309 0.201929 0.301906 -0.731480
O26   O     O_3   0.461227 0.709163 0.166036 -0.684552
O27   O     O_3   0.417890 0.713162 0.614438 -0.690775
O28   O     O_3   0.518892 0.808551 0.741031 -0.703948
O29   O     O_3   0.711006 0.825318 0.295811 -0.742306
O30   O     O_3   0.789101 0.174530 0.664462 -0.696254
O31   O     O_3   0.275353 0.227974 0.693702 -0.835399
O32   O     O_3   0.384859 0.343519 0.723931 -0.761063
O33   O     O_3   0.400893 0.258767 0.836902 -0.715286
O34   O     O_2   0.693010 0.323600 0.451730 -0.437415
O35   O     O_3   0.979650 0.765001 0.373942 -0.706621
O36   O     O_3   0.143242 0.358905 0.542476 -0.687338
O37   O     O_3   0.448798 0.128747 0.562541 -0.703236
O38   O     O_3   0.107490 0.803810 0.622510 -0.671349
O39   O     O_3   0.706997 0.194928 0.374955 -0.696023
O40   O     O_3   0.649548 0.637398 0.468818 -0.728490
O41   O     O_3   0.279745 0.432245 0.178659 -0.688124
O42   O     O_3   0.539106 0.548996 0.831020 -0.671317
O43   O     O_3   0.046001 0.426704 0.877880 -0.692949
O44   O     O_3   0.122835 0.480726 0.641225 -0.673037
O45   O     O_3   0.941240 0.413050 0.457220 -0.393249
O46   O     O_3   0.969996 0.838433 0.267008 -0.692016
O47   O     O_3   0.792956 0.754405 0.194251 -0.689554
O48   O     O_3   0.635489 0.349340 0.303620 -0.796849
O49   O     O_3   0.865185 0.420678 0.317011 -0.684385
O50   O     O_3   0.453310 0.371360 0.582690 -0.428304
O51   O     O_3   0.871892 0.305587 0.337281 -0.590363
O52   O     O_3   0.371310 0.539060 0.587050 -0.468794
O53   O     O_3   0.867330 0.408540 0.621000 -0.381235
P1    P     P_3+3 0.945300 0.665790 0.568510 1.118984
P2    P     P_3+3 0.360080 0.438780 0.334620 1.162387
P3    P     P_3+3 0.900534 0.592115 0.287181 1.033673
P4    P     P_3+3 0.865000 0.334200 0.431430 1.205159
P5    P     P_3+3 0.883612 0.410515 0.714462 1.064417
P6    P     P_3+3 0.380761 0.721846 0.424208 1.040826
P7    P     P_3+3 0.444661 0.563440 0.678146 1.097370
P8    P     P_3+3 0.433615 0.277906 0.574420 1.126054

loop_
_geom_bond_atom_site_label_1
_geom_bond_atom_site_label_2
_ccdc_geom_bond_type
H9    O25   S    
O7    P7    S    
Ba1   P1    S    
H33   O36   S    
O45   P4    S    
C22   O39   S    
H46   O43   S    
Ba1   O10   S    
C23   O7    S    
C56   H25   S    
O52   P7    S    
O1    P1    D    
Ba1   O15   S    
C5    C6    A    
C46   N2    A    
C42   C43   D    
C24   C25   A    
C58   C59   S    
C29   H39   S    
C1    H7    S    
C22   C24   A    
O8    P8    D    
O10   P6    S    
O34   P4    D    
C54   H4    S    
C55   C57   S    
C19   C31   A    
O51   P4    S    
C13   C14   A    
C20   C36   A    
C2    C60   A    
C10   C17   A    
C23   O27   S    
Ba1   Ba2   S    
C45   H20   S    
O9    P8    S    
C7    C11   A    
C58   O31   S    
C28   O48   S    
C47   O42   S    
C15   C17   A    
H37   O39   S    
C54   O21   S    
C9    C13   A    
C29   C30   A    
C14   C15   A    
C13   P8    S    
O23   P3    S    
H43   O41   S    
H8    O24   S    
C42   O41   S    
C45   H21   S    
C41   C46   S    
C28   O51   S    
C43   P2    S    
C37   C43   D    
Ba2   O5    S    
C15   P4    S    
C40   O19   S    
C1    O26   S    
C19   C20   A    
C39   C41   D    
C48   P7    S    
Ba1   P2    S    
C55   H5    S    
C1    H18   S    
C59   O33   S    
C58   O9    S    
C56   O30   S    
C45   O3    S    
H52   O49   S    
C4    C16   S    
C52   C54   S    
Ba1   O52   S    
H11   O26   S    
C14   O36   S    
C49   C50   A    
O5    P2    S    
C26   C30   A    
O6    P7    D    
Ba1   O4    S    
C37   C38   S    
C3    C5    A    
C2    C21   A    
C16   O46   S    
C6    C7    A    
C18   C26   A    
H19   O29   S    
C7    C60   A    
H30   O35   S    
C23   H13   S    
C32   H23   S    
C30   C32   A    
O14   P6    S    
C41   C42   S    
Ba1   O1    S    
C35   C36   A    
C56   H24   S    
C50   O43   S    
C36   P1    S    
H50   O47   S    
C9    C10   A    
C21   O38   S    
O3    P5    S    
C31   C32   A    
C44   N4    A    
C10   C11   A    
H22   O30   S    
N3    N4    A    
H51   O48   S    
C1    C12   S    
H17   O28   S    
C38   P3    S    
Ba2   O4    S    
O11   P6    D    
C38   C39   S    
C52   O20   S    
H36   O38   S    
H44   O42   S    
Ba2   O53   S    
C55   O12   S    
Ba2   P4    S    
C55   H6    S    
C49   P5    S    
O16   P3    S    
H35   O37   S    
C46   N3    A    
C4    O35   S    
O4    P1    S    
C50   C51   A    
C40   H45   S    
C16   O47   S    
H3    O22   S    
C5    H32   S    
H41   O40   S    
Ba2   O34   S    
C27   H38   S    
C33   C35   A    
C12   H10   S    
C28   C40   S    
Ba1   O5    S    
C12   O18   S    
C2    C3    A    
H56   O20   S    
H34   O18   S    
C3    H31   S    
N1    N2    A    
O53   P5    S    
H2    O21   S    
C59   H12   S    
C33   P6    S    
C57   H1    S    
C48   C53   A    
C39   H42   S    
Ba2   O6    S    
C34   H15   S    
O13   P1    S    
C17   C22   A    
C27   C29   A    
O17   P3    D    
C34   H16   S    
H26   O31   S    
C45   C56   S    
H48   O44   S    
O50   P8    S    
C34   O28   S    
H27   O32   S    
C12   O14   S    
H14   O27   S    
C47   C51   A    
C52   O13   S    
Ba2   O45   S    
C44   C51   S    
C31   C33   A    
C44   N1    A    
C49   C53   A    
C4    H40   S    
O12   P2    S    
C18   C60   A    
C58   O32   S    
C28   O49   S    
O2    P5    D    
C8    C9    A    
C23   C34   S    
H54   O19   S    
C54   O22   S    
C57   O24   S    
C59   H29   S    
C40   H53   S    
C37   H47   S    
O15   P2    D    
C18   C19   A    
C24   C27   A    
C6    C8    A    
C47   C48   A    
C4    O23   S    
C52   H55   S    
C25   C26   A    
Ba1   O45   S    
C20   C21   A    
C11   C25   A    
H49   O46   S    
C53   O44   S    
H28   O33   S    
C8    O37   S    
Ba2   O52   S    
Ba1   O16   S    
C16   O29   S    
Ba2   O50   S    
C35   O40   S    
C57   O25   S    
