data_mof_unit_696.cif
_audit_creation_date              2012-12-10T20:42:43-0500
_audit_creation_method            fapswitch 2.2
_symmetry_space_group_name_H-M    P1
_symmetry_Int_Tables_number       1
_space_group_crystal_system       triclinic
_cell_length_a                    8.900474
_cell_length_b                    10.690313
_cell_length_c                    9.880899
_cell_angle_alpha                 90.621468
_cell_angle_beta                  89.84595
_cell_angle_gamma                 90.113338
_cell_volume                      940.095717696

loop_
_atom_site_label
_atom_site_type_symbol
_atom_type_description
_atom_site_fract_x
_atom_site_fract_y
_atom_site_fract_z
_atom_type_partial_charge
C1    C     C_R   0.494862 0.259795 0.499061 0.882202
C2    C     C_R   0.409286 0.419613 0.928434 0.121374
C3    C     C_3   0.240911 0.412243 0.926410 -0.012018
C4    C     C_R   0.218759 0.499894 0.500086 0.932557
C5    C     C_3   0.244080 0.408453 0.080465 -0.540314
C6    C     C_R   0.494357 0.739728 0.500775 0.886856
C7    C     C_R   0.781243 0.500044 0.499899 0.929839
C8    C     C_1   0.065437 0.499902 0.500087 -0.196126
C9    C     C_1   0.934590 0.499962 0.499775 -0.221124
C10   C     C_R   0.484928 0.065146 0.620702 0.086475
C11   C     C_R   0.471493 0.127736 0.498293 -0.158023
C12   C     C_R   0.423189 0.930846 0.385153 -0.299051
C13   C     C_R   0.427154 0.060639 0.380465 0.193947
C14   C     C_3   0.515520 0.113703 0.157823 -0.753214
C15   C     C_3   0.009323 0.522073 0.868949 -0.749662
C16   C     C_R   0.468049 0.870399 0.503135 -0.134726
C17   C     C_R   0.483404 0.937745 0.623223 0.138261
C18   C     C_3   0.602343 0.932124 0.729450 -0.484518
C19   C     C_3   0.604262 0.073929 0.726779 -0.461718
C20   C     C_R   0.410612 0.418636 0.070713 0.192396
C21   C     C_R   0.598073 0.572116 0.072484 -0.136571
C22   C     C_R   0.598100 0.572100 0.928608 -0.138985
H1    H     H_    0.192128 0.490997 0.131404 0.223409
H2    H     H_    0.558845 0.893993 0.826229 0.200789
H3    H     H_    0.708371 0.888939 0.691921 0.195716
H4    H     H_    0.562002 0.117757 0.821977 0.201165
H5    H     H_    0.711463 0.113422 0.687740 0.198369
H6    H     H_    0.674967 0.632487 0.874923 0.145012
H7    H     H_    0.213361 0.608112 0.915792 0.232703
H8    H     H_    0.968272 0.607158 0.817394 0.229710
H9    H     H_    0.960324 0.519244 0.972413 0.226838
H10   H     H_    0.971266 0.438884 0.809922 0.252063
H11   H     H_    0.208137 0.316690 0.121312 0.189322
H12   H     H_    0.675076 0.632449 0.127141 0.146833
H13   H     H_    0.293917 0.092024 0.215092 0.208146
H14   H     H_    0.537939 0.014831 0.128370 0.218749
H15   H     H_    0.619605 0.156461 0.199670 0.256395
H16   H     H_    0.483312 0.165234 0.065583 0.215318
H17   H     H_    0.199225 0.324909 0.876858 0.147830
H18   H     H_    0.396885 0.878267 0.293794 0.176320
N1    N     N_R   0.499010 0.499140 0.142800 -0.096413
N2    N     N_R   0.499010 0.499180 0.857150 -0.099719
N3    N     N_2   0.394823 0.120806 0.256178 -0.279820
N4    N     N_2   0.171520 0.525472 0.875921 -0.241057
O1    O     O_R   0.500020 0.316790 0.614690 -0.624779
O2    O     O_R   0.500000 0.316760 0.385350 -0.584004
O3    O     O_R   0.285350 0.500020 0.614650 -0.588942
O4    O     O_R   0.285340 0.499980 0.385310 -0.625866
O5    O     O_R   0.500000 0.683240 0.614650 -0.619455
O6    O     O_R   0.499980 0.683210 0.385310 -0.628052
O7    O     O_R   0.714660 0.500020 0.614690 -0.623050
O8    O     O_R   0.714650 0.499980 0.385350 -0.617341
Zn1   Zn    Zn3+2 0.500010 0.500020 0.653130 0.942316
Zn2   Zn    Zn3+2 0.499990 0.499980 0.346870 0.943639

loop_
_geom_bond_atom_site_label_1
_geom_bond_atom_site_label_2
_ccdc_geom_bond_type
C15   N4    S    
C15   H9    S    
C18   H2    S    
C14   H16   S    
C19   H5    S    
C5    H1    S    
O3    Zn1   S    
C10   C19   S    
C4    C8    S    
O2    Zn2   S    
C2    C3    S    
C8    C9    T    
O1    Zn1   S    
C15   H10   S    
O6    Zn2   S    
C5    C20   S    
C22   H6    S    
C21   C22   A    
C6    O6    A    
C14   H15   S    
O4    Zn2   S    
N1    Zn2   S    
C11   C13   A    
C6    O5    A    
C1    O1    A    
C22   N2    A    
C18   H3    S    
C2    N2    A    
C21   N1    A    
O8    Zn2   S    
C7    O8    A    
C17   C18   S    
C5    H11   S    
H7    N4    S    
C4    O4    A    
C1    O2    A    
O5    Zn1   S    
C3    N4    S    
C10   C11   A    
N2    Zn1   S    
C10   C17   A    
C2    C20   A    
C13   N3    S    
H13   N3    S    
C12   C13   A    
C15   H8    S    
C18   C19   S    
C7    O7    A    
C7    C9    S    
C19   H4    S    
C14   N3    S    
C14   H14   S    
C12   H18   S    
O7    Zn1   S    
C6    C16   S    
C21   H12   S    
C3    H17   S    
C12   C16   A    
C20   N1    A    
C16   C17   A    
C3    C5    S    
C4    O3    A    
C1    C11   S    
