data_mof_unit_2254.cif
_audit_creation_date              2012-12-10T17:00:04-0500
_audit_creation_method            fapswitch 2.2
_symmetry_space_group_name_H-M    P1
_symmetry_Int_Tables_number       1
_space_group_crystal_system       triclinic
_cell_length_a                    23.461625
_cell_length_b                    10.895582
_cell_length_c                    9.739573
_cell_angle_alpha                 90.140494
_cell_angle_beta                  90.023803
_cell_angle_gamma                 89.82545
_cell_volume                      2489.6888963

loop_
_atom_site_label
_atom_site_type_symbol
_atom_type_description
_atom_site_fract_x
_atom_site_fract_y
_atom_site_fract_z
_atom_type_partial_charge
C1    C     C_R   0.498706 0.265412 0.499807 0.765266
C2    C     C_R   0.972070 0.255008 0.412778 -0.009355
C3    C     C_R   0.031767 0.260667 0.410689 -0.220048
C4    C     C_R   0.060777 0.362557 0.463464 -0.026600
C5    C     C_R   0.029684 0.459942 0.521913 -0.020305
C6    C     C_R   0.058784 0.559016 0.583115 -0.010875
C7    C     C_R   0.027722 0.656407 0.640955 -0.174542
C8    C     C_R   0.968440 0.656599 0.636182 -0.180177
C9    C     C_R   0.120543 0.368962 0.460679 0.530273
C10   C     C_R   0.118499 0.558722 0.583695 0.553690
C11   C     C_R   0.234545 0.568603 0.428043 -0.013236
C12   C     C_R   0.391105 0.500260 0.500061 0.877711
C13   C     C_R   0.294687 0.579549 0.425913 -0.156067
C14   C     C_R   0.328396 0.494700 0.501289 -0.116189
C15   C     C_R   0.302292 0.401356 0.578442 0.357764
C16   C     C_R   0.242786 0.393109 0.581178 -0.233216
C17   C     C_R   0.209034 0.475558 0.507563 0.266435
C18   C     C_R   0.757852 0.376939 0.562662 -0.148377
C19   C     C_R   0.698274 0.383113 0.563311 -0.047940
C20   C     C_R   0.670750 0.483803 0.499783 -0.058970
C21   C     C_R   0.703068 0.572528 0.431257 -0.235987
C22   C     C_R   0.762354 0.564976 0.430707 -0.106518
C23   C     C_R   0.503647 0.734099 0.500459 0.820890
C24   C     C_R   0.790056 0.468298 0.498391 0.338908
C25   C     C_2   0.515670 0.933447 0.391519 -0.176247
C26   C     C_2   0.513037 0.865010 0.504869 -0.261131
C27   C     C_2   0.519030 0.067376 0.400402 -0.217931
C28   C     C_2   0.492680 0.132690 0.499422 0.275084
C29   C     C_2   0.477138 0.414075 0.921324 -0.120595
C30   C     C_2   0.467225 0.430424 0.072987 0.031501
C31   C     C_R   0.608659 0.495612 0.499936 0.795995
C32   C     C_R   0.879411 0.558494 0.568724 0.519596
C33   C     C_R   0.879998 0.366188 0.450105 0.518598
C34   C     C_R   0.940078 0.357942 0.460686 -0.061802
C35   C     C_R   0.969496 0.458669 0.519039 -0.030262
C36   C     C_R   0.938949 0.558687 0.574920 -0.001925
Cu1   Cu    Cu3+1 0.500010 0.500020 0.638630 0.959301
Cu2   Cu    Cu3+1 0.499990 0.499980 0.361370 0.954583
H1    H     H_    0.682335 0.648637 0.379833 0.151583
H2    H     H_    0.786883 0.635093 0.379037 0.137733
H3    H     H_    0.514994 0.891588 0.290269 0.156753
H4    H     H_    0.518818 0.905590 0.605679 0.198807
H5    H     H_    0.542735 0.113781 0.320045 0.113398
H6    H     H_    0.461097 0.331939 0.871576 0.174854
H7    H     H_    0.504457 0.583544 0.891313 0.206500
H8    H     H_    0.055649 0.182565 0.371929 0.179484
H9    H     H_    0.049099 0.733619 0.688404 0.180404
H10   H     H_    0.945826 0.734079 0.680180 0.176129
H11   H     H_    0.222270 0.322637 0.641721 0.148265
H12   H     H_    0.779395 0.301268 0.613040 0.148600
N1    N     N_R   0.851254 0.464373 0.505231 -0.457992
N2    N     N_R   0.148042 0.467084 0.518305 -0.445580
N3    N     N_2   0.499380 0.498660 0.846910 -0.286802
N4    N     N_2   0.499370 0.498630 0.153040 -0.237540
O1    O     O_R   0.500010 0.321960 0.617040 -0.566612
O2    O     O_2   0.850478 0.279620 0.381364 -0.542582
O3    O     O_2   0.150913 0.278857 0.399355 -0.579375
O4    O     O_2   0.146927 0.649611 0.648250 -0.561239
O5    O     O_R   0.499990 0.321920 0.382900 -0.611101
O6    O     O_R   0.417890 0.499980 0.617100 -0.540436
O7    O     O_R   0.417870 0.499940 0.382950 -0.564480
O8    O     O_R   0.500010 0.678080 0.617100 -0.590381
O9    O     O_R   0.499990 0.678040 0.382960 -0.573964
O10   O     O_R   0.582130 0.500060 0.617050 -0.573816
O11   O     O_R   0.582110 0.500020 0.382900 -0.575125
O12   O     O_2   0.849716 0.651626 0.626283 -0.570612
C37   C     C_R   0.945928 0.135593 0.376239 0.182336
C38   C     C_R   0.916505 0.067925 0.476295 -0.092972
C39   C     C_R   0.894623 0.952008 0.444622 -0.132945
C40   C     C_R   0.902326 0.902425 0.313455 -0.095832
C41   C     C_R   0.931930 0.968721 0.213706 -0.136752
C42   C     C_R   0.953886 0.084728 0.244927 -0.142418
H13   H     H_    0.910927 0.104684 0.578869 0.117439
H14   H     H_    0.871996 0.900317 0.522008 0.163980
H15   H     H_    0.885553 0.812462 0.289329 0.129337
H16   H     H_    0.938123 0.929940 0.112367 0.130237
H17   H     H_    0.977198 0.134717 0.167194 0.125888
C43   C     C_R   0.666246 0.279105 0.622403 0.076583
C44   C     C_R   0.637867 0.291363 0.748445 -0.092634
C45   C     C_R   0.608450 0.191896 0.804378 -0.124050
C46   C     C_R   0.608020 0.079069 0.735919 -0.101456
C47   C     C_R   0.636782 0.065715 0.611100 -0.137629
C48   C     C_R   0.665772 0.165376 0.554276 -0.163608
H18   H     H_    0.638467 0.377937 0.802708 0.151642
H19   H     H_    0.586111 0.202042 0.900883 0.112570
H20   H     H_    0.585488 0.002016 0.779733 0.122683
H21   H     H_    0.636477 0.978247 0.558183 0.138099
H22   H     H_    0.687835 0.154052 0.457374 0.146949
O13   O     O_3   0.457671 0.076375 0.594675 -0.760113
H23   H     H_    0.439251 0.140141 0.652468 0.341635
C49   C     C_R   0.414291 0.374338 0.124892 0.180766
C50   C     C_R   0.361804 0.431322 0.097801 -0.126867
C51   C     C_R   0.311044 0.379444 0.145581 -0.146843
C52   C     C_R   0.312517 0.270931 0.221279 -0.094210
C53   C     C_R   0.364377 0.210971 0.243035 -0.153595
C54   C     C_R   0.414800 0.259613 0.189709 -0.127107
H24   H     H_    0.360413 0.515447 0.039018 0.126757
H25   H     H_    0.270565 0.423467 0.124908 0.131651
H26   H     H_    0.273435 0.232353 0.261150 0.165391
H27   H     H_    0.365343 0.126557 0.300544 0.143535
H28   H     H_    0.454007 0.208012 0.199056 0.123990
C55   C     C_R   0.555139 0.529962 0.107347 0.324969
C56   C     C_R   0.570922 0.653864 0.099897 -0.172548
C57   C     C_R   0.627205 0.685965 0.069964 -0.184855
C58   C     C_R   0.668392 0.594557 0.050860 -0.097996
C59   C     C_R   0.653336 0.470963 0.061642 -0.173415
C60   C     C_R   0.596895 0.438486 0.089360 -0.131848
H29   H     H_    0.539515 0.725194 0.117164 0.123223
H30   H     H_    0.639024 0.781703 0.063211 0.136194
H31   H     H_    0.712074 0.619506 0.029100 0.141756
H32   H     H_    0.685442 0.400290 0.049042 0.143449
H33   H     H_    0.585886 0.342688 0.101115 0.104520
C61   C     C_R   0.197604 0.655420 0.350810 0.123245
C62   C     C_R   0.162676 0.612338 0.243990 -0.184940
C63   C     C_R   0.126789 0.693290 0.173607 -0.121104
C64   C     C_R   0.125534 0.817621 0.209237 -0.106869
C65   C     C_R   0.160264 0.861271 0.315147 -0.139983
C66   C     C_R   0.196171 0.780611 0.385890 -0.062778
H34   H     H_    0.163305 0.516223 0.215401 0.146034
H35   H     H_    0.099900 0.659608 0.091515 0.142382
H36   H     H_    0.097623 0.880117 0.154863 0.130012
H37   H     H_    0.159186 0.957537 0.342799 0.154495
H38   H     H_    0.222427 0.815280 0.468747 0.145051
C67   C     C_R   0.321829 0.682599 0.350640 0.132355
C68   C     C_R   0.353739 0.770461 0.422587 -0.145935
C69   C     C_R   0.377887 0.869276 0.352910 -0.136831
C70   C     C_R   0.371962 0.879435 0.210652 -0.134002
C71   C     C_R   0.339245 0.794127 0.138739 -0.131105
C72   C     C_R   0.313410 0.697452 0.208705 -0.112683
H39   H     H_    0.359104 0.763508 0.532759 0.123463
H40   H     H_    0.400886 0.938334 0.409628 0.189480
H41   H     H_    0.391937 0.954343 0.156325 0.126138
H42   H     H_    0.333390 0.803580 0.029037 0.134969
H43   H     H_    0.286577 0.634898 0.152110 0.120901
O14   O     O_3   0.335910 0.318267 0.649016 -0.741318
H44   H     H_    0.311093 0.258744 0.697160 0.320967

loop_
_geom_bond_atom_site_label_1
_geom_bond_atom_site_label_2
_ccdc_geom_bond_type
C58   H31   S    
C69   C70   A    
C60   H33   S    
C53   C54   A    
Cu1   O1    S    
C10   N2    A    
C71   C72   A    
C62   C63   A    
O14   H44   S    
C30   N4    D    
C18   H12   S    
C45   H19   S    
C18   C24   A    
C32   C36   A    
C21   C22   A    
C10   O4    S    
Cu1   Cu2   S    
C34   C35   A    
C1    O5    A    
C5    C6    A    
C45   C46   A    
C15   O14   S    
C59   C60   A    
C15   C16   A    
C18   C19   A    
C64   C65   A    
C37   C42   A    
C8    C36   A    
C23   C26   S    
C70   H41   S    
C42   H17   S    
C49   C54   A    
Cu2   O9    S    
C43   C48   A    
C23   O8    A    
C35   C36   A    
C16   C17   A    
Cu2   N4    S    
C1    C28   S    
C28   O13   S    
C62   H34   S    
Cu2   O7    S    
Cu1   N3    S    
C61   C66   A    
C2    C34   A    
C33   O2    S    
C23   O9    A    
C48   H22   S    
H7    N3    S    
C13   C14   A    
C55   C56   A    
C9    N2    A    
C71   H42   S    
C68   H39   S    
C17   N2    S    
C57   C58   A    
C50   H24   S    
Cu1   O8    S    
C59   H32   S    
C64   H36   S    
C37   C38   A    
C55   C60   A    
C16   H11   S    
C2    C37   S    
C25   H3    S    
C49   C50   A    
C13   C67   S    
C53   H27   S    
C38   C39   A    
C25   C26   D    
C46   C47   A    
C3    C4    A    
Cu2   O5    S    
C7    H9    S    
C19   C43   S    
C65   H37   S    
C8    H10   S    
C32   N1    A    
C29   C30   S    
C21   H1    S    
Cu2   O11   S    
C22   H2    S    
C14   C15   A    
C33   C34   A    
C39   H14   S    
C51   C52   A    
C40   C41   A    
C12   C14   S    
C47   C48   A    
C52   C53   A    
C29   H6    S    
C68   C69   A    
C22   C24   A    
C44   C45   A    
C33   N1    A    
C70   C71   A    
O13   H23   S    
C41   H16   S    
C40   H15   S    
Cu1   O10   S    
C26   H4    S    
C32   O12   S    
C61   C62   A    
C31   O11   A    
C11   C17   A    
C43   C44   A    
C31   O10   A    
N4    C55   S    
C46   H20   S    
C30   C49   S    
C6    C10   A    
C6    C7    A    
C25   C27   S    
C58   C59   A    
C3    H8    S    
C52   H26   S    
C19   C20   A    
C2    C3    A    
C38   H13   S    
C41   C42   A    
C65   C66   A    
C12   O7    A    
C11   C13   A    
C63   C64   A    
C44   H18   S    
C29   N3    D    
C69   H40   S    
C24   N1    S    
C5    C35   A    
C50   C51   A    
C67   C72   A    
C9    O3    S    
C66   H38   S    
C1    O1    A    
C39   C40   A    
C11   C61   S    
Cu1   O6    S    
C7    C8    A    
C72   H43   S    
C12   O6    A    
C27   H5    S    
C4    C5    A    
C20   C21   A    
C63   H35   S    
C56   C57   A    
C57   H30   S    
C56   H29   S    
C4    C9    A    
C54   H28   S    
C51   H25   S    
C47   H21   S    
C67   C68   A    
C27   C28   D    
C20   C31   S    
