data_mof_unit_4973.cif
_audit_creation_date              2012-12-10T18:11:41-0500
_audit_creation_method            fapswitch 2.2
_symmetry_space_group_name_H-M    P1
_symmetry_Int_Tables_number       1
_space_group_crystal_system       triclinic
_cell_length_a                    10.499056
_cell_length_b                    12.812983
_cell_length_c                    13.182989
_cell_angle_alpha                 81.690011
_cell_angle_beta                  95.799241
_cell_angle_gamma                 101.736551
_cell_volume                      1713.41965268

loop_
_atom_site_label
_atom_site_type_symbol
_atom_type_description
_atom_site_fract_x
_atom_site_fract_y
_atom_site_fract_z
_atom_type_partial_charge
C1    C     C_R   0.484540 0.439788 0.690447 0.843454
C2    C     C_3   0.045881 0.560261 0.409041 -0.199995
C3    C     C_3   0.986291 0.605006 0.491638 0.202099
C4    C     C_3   0.878026 0.504963 0.497142 -0.008401
C5    C     C_R   0.441698 0.707667 0.055020 0.075426
C6    C     C_R   0.527610 0.596897 0.198984 -0.090496
C7    C     C_R   0.558528 0.320624 0.836399 -0.224258
C8    C     C_R   0.625493 0.318394 0.932527 -0.188797
C9    C     C_R   0.626010 0.399018 0.994185 0.165340
C10   C     C_R   0.533018 0.468867 0.966932 0.077536
C11   C     C_R   0.467080 0.471304 0.868156 0.050634
C12   C     C_R   0.741846 0.501544 0.499318 0.835308
C13   C     C_R   0.508601 0.540770 0.030977 0.045829
C14   C     C_R   0.443291 0.626825 0.991980 0.117714
C15   C     C_R   0.377688 0.625712 0.894368 -0.250216
C16   C     C_R   0.383757 0.545489 0.835935 -0.200499
C17   C     C_R   0.528025 0.518919 0.136353 -0.310887
C18   C     C_R   0.510672 0.700153 0.152607 0.010259
C19   C     C_R   0.491669 0.404009 0.800391 -0.109493
C20   C     C_R   0.359881 0.111343 0.313490 -0.294389
C21   C     C_R   0.625205 0.793810 0.651434 0.229882
C22   C     C_R   0.597732 0.877204 0.699228 -0.011595
C23   C     C_R   0.518783 0.560512 0.309290 0.941780
C24   C     C_R   0.526194 0.947805 0.642324 -0.234938
C25   C     C_R   0.506545 0.951265 0.535913 -0.039906
C26   C     C_R   0.506680 0.855253 0.495060 0.099399
C27   C     C_R   0.470272 0.041658 0.472879 0.023046
C28   C     C_R   0.415716 0.029964 0.372102 0.113754
C29   C     C_R   0.410022 0.934923 0.332429 -0.307243
C30   C     C_R   0.440499 0.844582 0.395337 0.050526
C31   C     C_R   0.494632 0.146552 0.502153 0.227669
C32   C     C_R   0.364029 0.205662 0.354038 -0.020670
C33   C     C_R   0.258008 0.499661 0.498350 0.868949
C34   C     C_3   0.954596 0.445974 0.583754 -0.221815
C35   C     C_3   0.064719 0.546577 0.578872 -0.188777
C36   C     C_3   0.122098 0.500430 0.496298 -0.002751
C37   C     C_3   0.014380 0.400279 0.501431 -0.133167
C38   C     C_3   0.935499 0.459679 0.414673 -0.190649
H1    H     H_    0.121568 0.582116 0.645436 0.131344
H2    H     H_    0.532532 0.437637 0.169656 0.177166
H3    H     H_    0.574640 0.266269 0.785382 0.164976
H4    H     H_    0.689239 0.260742 0.953154 0.159385
H5    H     H_    0.326284 0.544367 0.762965 0.155898
H6    H     H_    0.321481 0.269556 0.309627 0.148050
H7    H     H_    0.360634 0.926420 0.256633 0.163316
H8    H     H_    0.312207 0.101596 0.237659 0.152884
H9    H     H_    0.912759 0.399920 0.654657 0.141194
H10   H     H_    0.482639 0.998144 0.682082 0.168581
H11   H     H_    0.030082 0.316665 0.505145 0.151788
H12   H     H_    0.878213 0.424495 0.348066 0.145501
H13   H     H_    0.085148 0.605507 0.337052 0.172450
H14   H     H_    0.319483 0.684786 0.862650 0.158061
N1    N     N_R   0.432930 0.222190 0.444670 -0.127054
N2    N     N_R   0.566370 0.776980 0.554790 -0.146089
O1    O     O_R   0.467970 0.366730 0.627150 -0.636725
O2    O     O_R   0.510820 0.544830 0.662520 -0.634064
O3    O     O_R   0.664630 0.410960 0.482340 -0.625332
O4    O     O_R   0.707470 0.589060 0.517710 -0.653855
O5    O     O_R   0.489180 0.455170 0.337480 -0.640683
O6    O     O_R   0.532030 0.633270 0.372850 -0.545070
O7    O     O_R   0.292530 0.410940 0.482290 -0.612969
O8    O     O_R   0.335370 0.589040 0.517660 -0.655233
Zn1   Zn    Zn3+2 0.471390 0.381080 0.476380 0.920525
Zn2   Zn    Zn3+2 0.528610 0.618920 0.523620 0.942052
C39   C     C_3   0.742310 0.418290 0.073524 -0.420108
C40   C     C_3   0.827622 0.529510 0.049861 -0.837155
H15   H     H_    0.858266 0.540950 0.970118 0.257416
H16   H     H_    0.775074 0.594070 0.058735 0.267811
H17   H     H_    0.916281 0.536951 0.103968 0.247124
H18   H     H_    0.715105 0.405228 0.153678 0.197073
H19   H     H_    0.806146 0.359035 0.072613 0.203053
C41   C     C_3   0.609277 0.183380 0.577987 -0.373481
C42   C     C_3   0.739465 0.179253 0.537848 -0.820980
H20   H     H_    0.746495 0.095280 0.531258 0.264193
H21   H     H_    0.750536 0.228035 0.461336 0.265325
H22   H     H_    0.820586 0.211732 0.592233 0.242193
H23   H     H_    0.611488 0.264550 0.593208 0.257641
H24   H     H_    0.604863 0.142228 0.656725 0.196703
C43   C     C_3   0.714094 0.721942 0.709546 -0.398362
C44   C     C_3   0.853320 0.783550 0.731501 -0.946567
H25   H     H_    0.885374 0.842889 0.664485 0.274171
H26   H     H_    0.861057 0.826524 0.799624 0.268940
H27   H     H_    0.921388 0.726175 0.748091 0.253232
H28   H     H_    0.672953 0.681469 0.782705 0.197289
H29   H     H_    0.722468 0.657944 0.666150 0.268113
C45   C     C_2   0.641561 0.892543 0.807414 0.361682
H30   H     H_    0.657302 0.825093 0.863859 0.082241
O9    O     O_2   0.661800 0.982025 0.834577 -0.592618
C46   C     C_2   0.339611 0.751983 0.374608 0.440569
H31   H     H_    0.264888 0.726518 0.427202 0.091657
O10   O     O_2   0.323486 0.717176 0.292015 -0.657489
C47   C     C_3   0.956570 0.718306 0.486655 -0.370391
C48   C     C_3   0.076090 0.808242 0.484349 -0.912700
H32   H     H_    0.153485 0.787583 0.543233 0.255010
H33   H     H_    0.111896 0.825573 0.406241 0.260471
H34   H     H_    0.048497 0.882692 0.501531 0.261918
H35   H     H_    0.889445 0.733982 0.417887 0.251502
H36   H     H_    0.906610 0.720379 0.555738 0.235808
C49   C     C_2   0.572381 0.799332 0.198407 0.471556
H37   H     H_    0.541258 0.874728 0.171291 0.063774
O11   O     O_2   0.665237 0.799787 0.262180 -0.579992
C50   C     C_3   0.351222 0.788393 0.029415 -0.442269
C51   C     C_3   0.406475 0.886231 0.955951 -0.855450
H38   H     H_    0.407338 0.863808 0.878078 0.259023
H39   H     H_    0.343727 0.947217 0.950325 0.254192
H40   H     H_    0.506308 0.922511 0.984664 0.284544
H41   H     H_    0.254448 0.748927 0.997297 0.216264
H42   H     H_    0.330600 0.816838 0.100597 0.231314

loop_
_geom_bond_atom_site_label_1
_geom_bond_atom_site_label_2
_ccdc_geom_bond_type
C40   H16   S    
C48   H32   S    
C34   C37   S    
C42   H20   S    
C35   C36   S    
C47   H36   S    
C7    C8    A    
C23   O5    A    
C11   C19   A    
C29   C30   A    
C36   C37   S    
C1    O2    A    
C8    H4    S    
C44   H27   S    
C21   N2    A    
C45   O9    D    
C40   H17   S    
C15   C16   A    
C33   C36   S    
C34   C35   S    
O7    Zn1   S    
O8    Zn2   S    
C41   H23   S    
C8    C9    A    
O1    Zn1   S    
C41   H24   S    
O2    Zn2   S    
C50   H42   S    
C46   O10   D    
C9    C10   A    
C41   C42   S    
C12   O4    A    
C22   C45   S    
C40   H15   S    
C48   H33   S    
C21   C22   A    
C42   H21   S    
C30   C46   S    
C26   N2    A    
C47   H35   S    
O3    Zn1   S    
O4    Zn2   S    
C23   O6    A    
C6    C18   A    
C4    C34   S    
C1    C19   S    
C27   C31   A    
C24   H10   S    
C24   C25   A    
C44   H26   S    
C10   C11   A    
C45   H30   S    
C33   O8    A    
C5    C18   A    
C20   C28   A    
C25   C26   A    
C39   H19   S    
C29   H7    S    
C3    C47   S    
C17   H2    S    
C35   H1    S    
C37   C38   S    
C37   H11   S    
C11   C16   A    
C2    C38   S    
C49   H37   S    
C3    C35   S    
C21   C43   S    
C32   H6    S    
C50   H41   S    
C51   H39   S    
C15   H14   S    
C31   N1    A    
C16   H5    S    
C5    C14   A    
C12   O3    A    
C31   C41   S    
C49   O11   D    
C4    C38   S    
C26   C30   A    
C48   H34   S    
C7    C19   A    
C42   H22   S    
C22   C24   A    
C4    C12   S    
C18   C49   S    
C3    C4    S    
C32   N1    A    
C43   H29   S    
C20   C32   A    
C2    C36   S    
C6    C17   A    
C5    C50   S    
C28   C29   A    
C44   H25   S    
C10   C13   A    
C38   H12   S    
C25   C27   A    
O5    Zn1   S    
C13   C17   A    
O6    Zn2   S    
C2    C3    S    
C1    O1    A    
N1    Zn1   S    
C43   H28   S    
N2    Zn2   S    
C6    C23   S    
C47   C48   S    
C51   H40   S    
C7    H3    S    
C50   C51   S    
C9    C39   S    
C2    H13   S    
C43   C44   S    
C33   O7    A    
C39   C40   S    
C51   H38   S    
C14   C15   A    
C34   H9    S    
C46   H31   S    
C13   C14   A    
C20   H8    S    
C39   H18   S    
C27   C28   A    
