data_mof_unit_4047.cif
_audit_creation_date              2012-12-10T18:58:42-0500
_audit_creation_method            fapswitch 2.2
_symmetry_space_group_name_H-M    P1
_symmetry_Int_Tables_number       1
_space_group_crystal_system       triclinic
_cell_length_a                    10.791404
_cell_length_b                    10.042523
_cell_length_c                    17.506918
_cell_angle_alpha                 90.909013
_cell_angle_beta                  99.225929
_cell_angle_gamma                 90.036332
_cell_volume                      1872.48696319

loop_
_atom_site_label
_atom_site_type_symbol
_atom_type_description
_atom_site_fract_x
_atom_site_fract_y
_atom_site_fract_z
_atom_type_partial_charge
C1    C     C_R   0.260729 0.500452 0.501678 1.039766
C2    C     C_R   0.480314 0.501789 0.643277 0.935827
C3    C     C_R   0.872067 0.502556 0.498387 -0.531218
C4    C     C_R   0.128475 0.502536 0.503632 -0.609545
C5    C     C_R   0.372202 0.606300 0.835256 0.314204
C6    C     C_R   0.489042 0.384607 0.150942 0.297400
C7    C     C_R   0.535113 0.624437 0.157574 0.243987
C8    C     C_R   0.488247 0.396886 0.842471 0.313756
C9    C     C_R   0.382528 0.615028 0.754856 0.195095
C10   C     C_R   0.528575 0.378765 0.230992 0.298503
C11   C     C_R   0.566876 0.615517 0.238505 0.263082
C12   C     C_R   0.739438 0.500440 0.499076 1.090351
C13   C     C_R   0.457395 0.386227 0.762658 0.271262
C14   C     C_R   0.440789 0.504586 0.720841 -0.406988
C15   C     C_R   0.535593 0.498012 0.274074 -0.378415
C16   C     C_R   0.586229 0.073189 0.553096 0.202532
C17   C     C_R   0.414872 0.924870 0.446095 0.336345
C18   C     C_R   0.412919 0.070321 0.447268 0.285572
C19   C     C_R   0.584150 0.927894 0.554443 0.303017
C20   C     C_R   0.442350 0.506978 0.879582 -0.261519
C21   C     C_R   0.492928 0.508433 0.114218 -0.261849
C22   C     C_1   0.458870 0.511599 0.962271 0.276991
C23   C     C_1   0.472926 0.512028 0.031522 0.299796
C24   C     C_R   0.063869 0.382319 0.505207 0.567526
C25   C     C_R   0.937203 0.624398 0.502521 0.609871
C26   C     C_R   0.935856 0.382340 0.494894 0.576051
C27   C     C_R   0.064048 0.624351 0.501492 0.582719
C28   C     C_R   0.512386 0.499191 0.355068 0.981477
F1    F     F_    0.123299 0.264462 0.518220 -0.490471
F2    F     F_    0.878951 0.743996 0.504892 -0.512839
F3    F     F_    0.875363 0.264735 0.479130 -0.550793
F4    F     F_    0.122831 0.743905 0.500791 -0.483800
H1    H     H_    0.091514 0.809997 0.848004 0.420361
H2    H     H_    0.238529 0.649491 0.314831 0.373789
H3    H     H_    0.086795 0.152782 0.364955 0.409140
H4    H     H_    0.753977 0.657914 0.686100 0.382076
H5    H     H_    0.501335 0.065103 0.050954 0.428876
H6    H     H_    0.477929 0.931307 0.185237 0.424692
H7    H     H_    0.530392 0.061399 0.908900 0.402195
H8    H     H_    0.152887 0.599556 0.666393 0.320920
H9    H     H_    0.592372 0.084578 0.344832 0.381715
H10   H     H_    0.818839 0.706959 0.209582 0.369431
H11   H     H_    0.479494 0.066909 0.754595 0.416041
H12   H     H_    0.830028 0.064208 0.546355 0.398234
N1    N     N_R   0.500000 0.857200 0.500000 -0.205987
N2    N     N_R   0.500000 0.142800 0.500000 -0.210984
O1    O     O_R   0.316770 0.614620 0.500000 -0.509998
O2    O     O_2   0.334178 0.842146 0.902467 -0.193268
O3    O     O_3   0.133026 0.738132 0.822171 -0.430590
O4    O     O_2   0.361253 0.156225 0.152792 -0.194165
O5    O     O_2   0.330960 0.274153 0.030490 -0.220865
O6    O     O_3   0.541479 0.149901 0.071160 -0.405471
O7    O     O_2   0.639856 0.778042 0.061263 -0.225579
O8    O     O_2   0.414175 0.799804 0.059186 -0.238678
O9    O     O_3   0.561940 0.909444 0.173056 -0.381809
O10   O     O_2   0.668661 0.214912 0.843023 -0.215134
O11   O     O_2   0.650057 0.316460 0.968108 -0.223815
O12   O     O_R   0.683230 0.385380 0.500000 -0.542939
O13   O     O_3   0.479998 0.143876 0.908379 -0.457697
O14   O     O_2   0.301523 0.871594 0.746695 -0.130165
O15   O     O_2   0.348262 0.783927 0.626587 -0.200039
O16   O     O_3   0.149475 0.697616 0.672589 -0.421568
O17   O     O_2   0.694205 0.186347 0.208903 -0.132554
O18   O     O_2   0.719481 0.293542 0.336065 -0.270510
O19   O     O_3   0.537641 0.123704 0.300010 -0.457948
O20   O     O_2   0.631002 0.828808 0.332274 -0.208403
O21   O     O_2   0.769189 0.635888 0.348357 -0.315821
O22   O     O_3   0.778605 0.784410 0.231245 -0.376663
O23   O     O_R   0.683230 0.614620 0.500000 -0.517066
O24   O     O_2   0.289355 0.197877 0.782873 -0.174247
O25   O     O_2   0.283128 0.277087 0.651943 -0.203053
O26   O     O_3   0.463018 0.118479 0.706345 -0.447011
O27   O     O_2   0.709911 0.305433 0.628562 -0.244397
O28   O     O_2   0.711128 0.109599 0.700950 -0.127699
O29   O     O_3   0.849802 0.119404 0.594188 -0.363395
O30   O     O_2   0.182094 0.891170 0.355826 -0.140416
O31   O     O_2   0.367474 0.857619 0.294942 -0.270059
O32   O     O_3   0.282987 0.672087 0.367464 -0.517156
O33   O     O_2   0.292805 0.298899 0.370783 -0.286409
O34   O     O_R   0.316770 0.385380 0.500000 -0.518464
O35   O     O_2   0.286775 0.097715 0.298900 -0.159789
O36   O     O_3   0.150919 0.117922 0.406719 -0.376456
O37   O     O_2   0.811497 0.900348 0.653096 -0.150558
O38   O     O_2   0.618086 0.864162 0.704883 -0.251350
O39   O     O_3   0.714552 0.680233 0.632784 -0.508777
O40   O     O_R   0.500010 0.614710 0.389120 -0.547930
O41   O     O_R   0.499990 0.385290 0.610880 -0.539242
O42   O     O_R   0.499990 0.614710 0.610880 -0.539115
O43   O     O_R   0.500010 0.385290 0.389120 -0.559573
O44   O     O_2   0.237167 0.648712 0.952669 -0.239391
S1    S     S_3+6 0.269523 0.711125 0.880911 0.152974
S2    S     S_3+6 0.312258 0.835375 0.367145 0.187051
S3    S     S_3+6 0.289731 0.151952 0.379466 0.185364
S4    S     S_3+6 0.681898 0.842539 0.635437 0.177416
S5    S     S_3+6 0.425386 0.239057 0.099980 0.160084
S6    S     S_3+6 0.537914 0.779981 0.110503 0.111600
S7    S     S_3+6 0.577413 0.267392 0.892463 0.122104
S8    S     S_3+6 0.299586 0.746358 0.698596 0.180352
S9    S     S_3+6 0.624558 0.243889 0.269361 0.157037
S10   S     S_3+6 0.687107 0.718534 0.290288 0.151696
S11   S     S_3+6 0.368997 0.243480 0.725158 0.161014
S12   S     S_3+6 0.710487 0.157844 0.620290 0.205758
Zn1   Zn    Zn3+2 0.500000 0.653120 0.500000 1.193419
Zn2   Zn    Zn3+2 0.500000 0.346880 0.500000 1.181170

loop_
_geom_bond_atom_site_label_1
_geom_bond_atom_site_label_2
_ccdc_geom_bond_type
C12   O23   A    
O31   S2    D    
C8    C13   A    
O15   S8    D    
C8    S7    S    
C4    C27   A    
C15   C28   S    
O24   S11   D    
C5    C20   A    
C7    C11   A    
C7    S6    S    
C9    S8    S    
O34   Zn2   S    
C24   C26   A    
O33   S3    D    
O14   S8    D    
C10   C15   A    
C4    C24   A    
O4    S5    D    
O26   S11   S    
H1    O3    S    
H8    O16   S    
O6    S5    S    
O20   S10   D    
C24   F1    S    
O17   S9    D    
C3    C12   S    
N1    Zn1   S    
O16   S8    S    
C11   C15   A    
O18   S9    D    
H6    O9    S    
O2    S1    D    
O29   S12   S    
C2    O42   A    
C28   O43   A    
O8    S6    D    
O28   S12   D    
C12   O12   A    
O25   S11   D    
O11   S7    D    
C26   F3    S    
O36   S3    S    
C13   C14   A    
O7    S6    D    
H10   O22   S    
C17   S2    S    
O10   S7    D    
O3    S1    S    
O40   Zn1   S    
C18   N2    A    
H3    O36   S    
O23   Zn1   S    
O1    Zn1   S    
C3    C25   A    
O19   S9    S    
C16   N2    A    
H5    O6    S    
C1    O1    A    
H9    O19   S    
O32   S2    S    
C7    C21   A    
C6    C21   A    
N2    Zn2   S    
C11   S10   S    
H12   O29   S    
C9    C14   A    
O22   S10   S    
C5    C9    A    
O35   S3    D    
O39   S4    S    
H7    O13   S    
C17   C18   A    
C2    O41   A    
O38   S4    D    
C5    S1    S    
C19   S4    S    
O21   S10   D    
O30   S2    D    
C16   S12   S    
O27   S12   D    
C8    C20   A    
C20   C22   S    
C21   C23   S    
O43   Zn2   S    
C28   O40   A    
O13   S7    S    
O12   Zn2   S    
C13   S11   S    
O42   Zn1   S    
C25   F2    S    
C18   S3    S    
H11   O26   S    
C27   F4    S    
C3    C26   A    
C17   N1    A    
O9    S6    S    
C6    C10   A    
C19   N1    A    
H4    O39   S    
C25   C27   A    
C1    C4    S    
H2    O32   S    
O37   S4    D    
O44   S1    D    
C16   C19   A    
C10   S9    S    
C2    C14   S    
O41   Zn2   S    
C6    S5    S    
C1    O34   A    
C22   C23   T    
O5    S5    D    
