data_mof_unit_3171.cif
_audit_creation_date              2012-12-11T14:06:51-0500
_audit_creation_method            fapswitch 2.2
_symmetry_space_group_name_H-M    P1
_symmetry_Int_Tables_number       1
_space_group_crystal_system       triclinic
_cell_length_a                    6.903367
_cell_length_b                    17.404527
_cell_length_c                    24.093055
_cell_angle_alpha                 104.472113
_cell_angle_beta                  90.400067
_cell_angle_gamma                 89.848925
_cell_volume                      2802.85409564

loop_
_atom_site_label
_atom_site_type_symbol
_atom_type_description
_atom_site_fract_x
_atom_site_fract_y
_atom_site_fract_z
_atom_type_partial_charge
O1    O     O_R   0.494290 0.391990 0.999150 -0.552202
O2    O     O_R   0.827170 0.534410 0.082350 -0.519131
O3    O     O_R   0.994360 0.608010 0.000850 -0.555885
C1    C     C_R   0.658724 0.551081 0.105882 0.839268
O4    O     O_R   0.824210 0.388010 0.004470 -0.536669
O5    O     O_R   0.991370 0.460560 0.922410 -0.545370
C2    C     C_R   0.655730 0.354379 0.999563 0.780601
O6    O     O_R   0.497270 0.539440 0.077590 -0.517716
O7    O     O_3   0.659770 0.523970 0.973170 -0.391449
V1    V     V_3+5 0.935840 0.495550 0.004980 1.506320
O8    O     O_R   0.320910 0.465590 0.917650 -0.544229
C3    C     C_R   0.150848 0.452456 0.894010 0.716553
O9    O     O_R   0.323870 0.611990 0.995530 -0.538312
C4    C     C_R   0.153239 0.644460 0.997380 0.796267
V2    V     V_3+5 0.435470 0.504450 0.995020 1.488047
O10   O     O_3   0.161670 0.476030 0.026830 -0.351465
C5    C     C_2   0.136095 0.725998 0.989655 -0.025116
C6    C     C_2   0.978986 0.773825 0.010028 -0.054402
C7    C     C_R   0.231439 0.304487 0.617777 0.670830
N1    N     N_R   0.078452 0.347415 0.647034 -0.535786
C8    C     C_R   0.946512 0.377042 0.614189 0.687477
C9    C     C_R   0.920544 0.340418 0.555441 -0.098288
C10   C     C_R   0.056227 0.284459 0.527474 -0.015194
C11   C     C_R   0.217910 0.268338 0.558488 -0.032199
C12   C     C_R   0.765243 0.360710 0.524051 -0.152190
C13   C     C_R   0.741455 0.325139 0.465523 0.297577
C14   C     C_R   0.879046 0.268498 0.436258 -0.113419
C15   C     C_R   0.038431 0.249420 0.467813 -0.043076
C16   C     C_R   0.183553 0.196937 0.439742 0.007084
C17   C     C_R   0.345235 0.181388 0.471116 -0.114987
C18   C     C_R   0.363056 0.217213 0.529639 -0.126405
C19   C     C_R   0.867844 0.231320 0.376741 0.638657
N2    N     N_R   0.010664 0.180429 0.350437 -0.564906
C20   C     C_R   0.166336 0.162885 0.380569 0.605178
O11   O     O_2   0.401269 0.300162 0.644691 -0.467454
O12   O     O_2   0.853116 0.445732 0.635746 -0.486184
H1    H     H_    0.659032 0.403915 0.545244 0.200927
O13   O     O_2   0.717236 0.245575 0.344916 -0.468057
O14   O     O_2   0.304819 0.113054 0.353148 -0.506124
H2    H     H_    0.459871 0.142169 0.450410 0.159353
H3    H     H_    0.490101 0.204089 0.552274 0.173900
C21   C     C_R   0.903867 0.074061 0.266619 0.085849
C22   C     C_R   0.892493 0.042392 0.206611 0.204421
C23   C     C_R   0.975651 0.083350 0.168943 -0.211411
C24   C     C_R   0.070762 0.156324 0.191588 0.198132
C25   C     C_R   0.084340 0.188082 0.251460 0.059567
C26   C     C_R   0.000300 0.147022 0.289114 0.303370
C27   C     C_R   0.953096 0.428251 0.743753 0.313776
C28   C     C_R   0.005503 0.465480 0.800767 0.033259
C29   C     C_R   0.133569 0.426529 0.830722 -0.120863
C30   C     C_R   0.211492 0.353309 0.801828 -0.230908
H4    H     H_    0.289831 0.318051 0.825826 0.156136
C31   C     C_R   0.175620 0.321778 0.743126 0.353053
C32   C     C_R   0.071192 0.366646 0.710649 0.189733
C33   C     C_R   0.642699 0.857562 0.619903 0.599226
N3    N     N_R   0.498240 0.828971 0.647667 -0.547432
C34   C     C_R   0.371023 0.773036 0.618502 0.576804
C35   C     C_R   0.382372 0.744203 0.557919 -0.033087
C36   C     C_R   0.539461 0.770237 0.529025 -0.075379
C37   C     C_R   0.675832 0.825291 0.560423 -0.078155
C38   C     C_R   0.243885 0.690338 0.525123 0.120899
C39   C     C_R   0.266831 0.663024 0.465778 -0.106550
C40   C     C_R   0.424029 0.686204 0.437500 -0.070249
C41   C     C_R   0.561486 0.740094 0.468799 -0.054318
C42   C     C_R   0.718177 0.764416 0.439488 -0.086916
C43   C     C_R   0.848638 0.822988 0.470719 0.124222
C44   C     C_R   0.838687 0.847051 0.531462 0.138902
C45   C     C_R   0.444786 0.656578 0.377906 0.667022
N4    N     N_R   0.600202 0.677767 0.350340 -0.536827
C46   C     C_R   0.738592 0.728356 0.379693 0.642624
O15   O     O_2   0.749189 0.919027 0.649907 -0.515077
O16   O     O_2   0.235701 0.745427 0.648588 -0.519626
H5    H     H_    0.160548 0.622351 0.441324 0.174916
O17   O     O_2   0.310866 0.606526 0.347650 -0.490787
O18   O     O_2   0.896846 0.741700 0.351029 -0.487070
C47   C     C_R   0.523166 0.685554 0.251306 0.321010
C48   C     C_R   0.538676 0.654865 0.191442 0.175163
C49   C     C_R   0.648270 0.585093 0.168914 -0.230129
C50   C     C_R   0.743785 0.547940 0.207325 0.218993
C51   C     C_R   0.727420 0.579126 0.266635 -0.114581
H6    H     H_    0.799562 0.549762 0.295718 0.187128
C52   C     C_R   0.616886 0.647266 0.288962 0.211536
C53   C     C_R   0.633866 0.840118 0.744329 -0.101914
H7    H     H_    0.756198 0.804768 0.724640 0.168870
C54   C     C_R   0.626599 0.867571 0.804131 0.223518
C55   C     C_R   0.467359 0.914308 0.830563 -0.116271
C56   C     C_R   0.315974 0.929479 0.795131 -0.193743
H8    H     H_    0.191617 0.964428 0.813652 0.169867
C57   C     C_R   0.324590 0.901198 0.735316 -0.054923
H9    H     H_    0.207641 0.914581 0.709032 0.155983
C58   C     C_R   0.484692 0.856919 0.709456 0.321946
C59   C     C_2   0.650797 0.267770 0.994797 -0.041677
C60   C     C_2   0.479082 0.230194 0.998564 -0.306034
H10   H     H_    0.345147 0.264083 0.004132 0.139508
O19   O     O_R   0.618210 0.960470 0.922400 -0.520641
O20   O     O_R   0.291310 0.111960 0.995450 -0.543269
O21   O     O_R   0.124210 0.039530 0.077580 -0.521224
C61   C     C_R   0.462099 0.144830 0.997714 0.800464
O22   O     O_R   0.288310 0.965490 0.917650 -0.541742
O23   O     O_R   0.121180 0.892010 0.999220 -0.544305
C62   C     C_R   0.456931 0.947539 0.894014 0.734115
O24   O     O_R   0.621230 0.107990 0.000760 -0.543489
O25   O     O_3   0.455770 0.976060 0.026840 -0.361247
V3    V     V_3+5 0.179680 0.004440 0.995020 1.513078
O26   O     O_R   0.791670 0.888040 0.004570 -0.538846
C63   C     C_R   0.962209 0.855501 0.002561 0.830003
O27   O     O_R   0.794680 0.034510 0.082370 -0.524881
C64   C     C_R   0.963990 0.050380 0.105893 0.831184
V4    V     V_3+5 0.680070 0.995560 0.005010 1.541691
O28   O     O_3   0.953840 0.023940 0.973160 -0.377769
C65   C     C_3   0.293763 0.750953 0.954043 -0.719843
H11   H     H_    0.386980 0.700314 0.932545 0.198252
H12   H     H_    0.228719 0.774511 0.919338 0.224519
H13   H     H_    0.389536 0.795983 0.981769 0.232758
C66   C     C_3   0.188015 0.266169 0.274462 -0.491758
H14   H     H_    0.114099 0.313617 0.258899 0.241822
H15   H     H_    0.192116 0.285455 0.321877 0.212637
H16   H     H_    0.340357 0.260870 0.259476 0.245153
Br1   Br    Br    0.674885 0.421737 0.732991 -0.431477
C67   C     C_3   0.909636 0.542800 0.830614 -0.623018
H17   H     H_    0.018897 0.584476 0.855521 0.177627
H18   H     H_    0.842749 0.572027 0.799129 0.243146
H19   H     H_    0.794770 0.532123 0.859785 0.218679
Br2   Br    Br    0.221431 0.209440 0.715317 -0.458013
C68   C     C_3   0.068519 0.660702 0.550849 -0.621611
H20   H     H_    0.978782 0.711372 0.574057 0.218812
H21   H     H_    0.115060 0.623970 0.580160 0.254101
H22   H     H_    0.973293 0.622912 0.517716 0.185638
C69   C     C_3   0.987393 0.865462 0.439721 -0.624292
H23   H     H_    0.913709 0.880251 0.402602 0.236811
H24   H     H_    0.034512 0.923890 0.466639 0.185909
H25   H     H_    0.117460 0.828204 0.425574 0.241993
C70   C     C_3   0.011655 0.889350 0.564875 -0.664160
H26   H     H_    0.984287 0.954201 0.578581 0.246956
H27   H     H_    0.043063 0.865497 0.602562 0.225959
H28   H     H_    0.147394 0.878660 0.539736 0.186031
Br3   Br    Br    0.375469 0.780369 0.282687 -0.376544
C71   C     C_3   0.820337 0.748537 0.045160 -0.651619
H29   H     H_    0.724928 0.798726 0.065975 0.242900
H30   H     H_    0.726346 0.702992 0.017225 0.213645
H31   H     H_    0.884404 0.725612 0.080298 0.234419
Br4   Br    Br    0.416524 0.711176 0.140962 -0.463645
Br5   Br    Br    0.890302 0.451831 0.181245 -0.444630
Br6   Br    Br    0.835293 0.834308 0.846103 -0.577605
C72   C     C_3   0.842920 0.223547 0.983163 -0.627933
H32   H     H_    0.962778 0.260871 0.974179 0.180732
H33   H     H_    0.888295 0.202166 0.021010 0.239313
H34   H     H_    0.830379 0.173408 0.944392 0.194890
Br7   Br    Br    0.519170 0.360963 0.430171 -0.486758
C73   C     C_3   0.812815 0.029233 0.306044 -0.548026
H35   H     H_    0.881718 0.969940 0.299438 0.237887
H36   H     H_    0.828521 0.059674 0.352077 0.176797
H37   H     H_    0.655389 0.021677 0.296565 0.256171
Br8   Br    Br    0.769040 0.940825 0.176159 -0.474935
Br9   Br    Br    0.174931 0.215538 0.140448 -0.524146

loop_
_geom_bond_atom_site_label_1
_geom_bond_atom_site_label_2
_ccdc_geom_bond_type
C33   N3    A    
C60   H10   S    
C65   H11   S    
C1    O6    A    
C72   H32   S    
V1    O10   S    
C8    O12   S    
C48   C49   A    
C23   C24   A    
C27   C32   A    
C13   C14   A    
C16   C17   A    
C25   C66   S    
C8    C9    A    
C15   C16   A    
C44   C70   S    
O5    C3    A    
C17   C18   A    
C28   C67   S    
C45   O17   S    
V2    O10   S    
C31   Br2   S    
O23   V3    S    
N3    C34   A    
C6    C71   S    
C48   Br4   S    
N4    C52   S    
C12   H1    S    
C40   C45   A    
O21   C64   A    
O8    V2    S    
N3    C58   S    
C50   Br5   S    
C7    N1    A    
C37   C44   A    
C45   N4    A    
C66   H15   S    
C9    C12   A    
O20   C61   A    
C68   H22   S    
C10   C11   A    
C39   H5    S    
C24   Br9   S    
C19   O13   S    
C57   C58   A    
C22   Br8   S    
O7    V1    S    
C67   H19   S    
C43   C69   S    
C35   C38   A    
C43   C44   A    
C59   C72   S    
C36   C37   A    
C33   C37   A    
O27   V4    S    
C4    C5    S    
N4    C46   A    
C5    C65   S    
C54   Br6   S    
C72   H33   S    
C67   H18   S    
C5    C6    D    
C27   Br1   S    
C23   C64   S    
C47   Br3   S    
C20   O14   S    
C47   C48   A    
C51   C52   A    
O19   V4    S    
C47   C52   A    
O4    C2    A    
C49   C50   A    
C35   C36   A    
C54   C55   A    
C16   C20   A    
C73   H37   S    
C30   H4    S    
C30   C31   A    
C42   C46   A    
O2    C1    A    
C22   C23   A    
C6    C63   S    
C1    C49   S    
C39   C40   A    
C70   H28   S    
C53   H7    S    
O27   C64   A    
C66   H16   S    
C29   C30   A    
C36   C41   A    
C17   H2    S    
C65   H12   S    
C10   C15   A    
O3    C4    A    
C71   H30   S    
O1    V2    S    
N1    C32   S    
C27   C28   A    
O22   C62   A    
C7    O11   S    
C42   C43   A    
O6    V2    S    
O9    V2    S    
C68   H20   S    
N2    C26   S    
C73   H36   S    
C50   C51   A    
C21   C22   A    
O2    V1    S    
C14   C15   A    
C72   H34   S    
C67   H17   S    
C55   C56   A    
C68   H21   S    
C69   H23   S    
O26   V4    S    
C25   C26   A    
C18   H3    S    
C53   C54   A    
C14   C19   A    
O1    C2    A    
C13   Br7   S    
C51   H6    S    
C71   H31   S    
O5    V1    S    
C3    C29   S    
O8    C3    A    
C31   C32   A    
C53   C58   A    
O26   C63   A    
O23   C63   A    
C73   H35   S    
O25   V4    S    
C41   C42   A    
C69   H25   S    
O20   V3    S    
C7    C11   A    
C12   C13   A    
C11   C18   A    
O4    V1    S    
O3    V1    S    
C61   O24   A    
V4    O28   S    
C19   N2    A    
V3    O28   S    
C34   C35   A    
C70   H26   S    
C2    C59   S    
C59   C60   D    
N2    C20   A    
O19   C62   A    
O22   V3    S    
C65   H13   S    
C21   C26   A    
C34   O16   S    
O7    V2    S    
C38   C39   A    
C21   C73   S    
O21   V3    S    
C71   H29   S    
C40   C41   A    
C24   C25   A    
N1    C8    A    
C46   O18   S    
C56   H8    S    
C28   C29   A    
O25   V3    S    
C70   H27   S    
C56   C57   A    
C9    C10   A    
O24   V4    S    
C38   C68   S    
C57   H9    S    
O9    C4    A    
C55   C62   S    
C60   C61   S    
C33   O15   S    
C66   H14   S    
C69   H24   S    
