data_mof_unit_4686.cif
_audit_creation_date              2012-12-10T17:33:02-0500
_audit_creation_method            fapswitch 2.2
_symmetry_space_group_name_H-M    P1
_symmetry_Int_Tables_number       1
_space_group_crystal_system       triclinic
_cell_length_a                    12.351492
_cell_length_b                    13.23901
_cell_length_c                    14.341544
_cell_angle_alpha                 93.179732
_cell_angle_beta                  108.053299
_cell_angle_gamma                 117.089564
_cell_volume                      1930.80872198

loop_
_atom_site_label
_atom_site_type_symbol
_atom_type_description
_atom_site_fract_x
_atom_site_fract_y
_atom_site_fract_z
_atom_type_partial_charge
C1    C     C_R   0.650968 0.714271 0.508581 0.776162
C2    C     C_R   0.834400 0.485247 0.922862 -0.050045
C3    C     C_R   0.783582 0.505014 0.993606 0.018492
C4    C     C_R   0.925840 0.444982 0.950625 0.002455
C5    C     C_R   0.993787 0.457377 0.053992 0.028843
C6    C     C_R   0.944450 0.480170 0.125279 0.380955
C7    C     C_R   0.837811 0.500081 0.093228 -0.219681
C8    C     C_R   0.944433 0.385329 0.877477 -0.183199
C9    C     C_R   0.039987 0.352777 0.904878 -0.221136
C10   C     C_R   0.123206 0.383095 0.005465 0.140303
C11   C     C_R   0.104094 0.440020 0.080527 0.101484
C12   C     C_R   0.619135 0.517034 0.686782 0.858467
C13   C     C_R   0.225707 0.357495 0.032102 -0.150496
C14   C     C_R   0.311100 0.389993 0.132371 -0.156214
C15   C     C_R   0.199462 0.482383 0.178553 -0.169373
C16   C     C_R   0.132244 0.971432 0.352809 -0.119026
C17   C     C_R   0.250864 0.161941 0.465010 -0.068610
C18   C     C_R   0.728036 0.923814 0.566586 -0.176697
C19   C     C_R   0.814983 0.041209 0.579043 -0.138107
C20   C     C_R   0.916752 0.073660 0.544215 -0.125650
C21   C     C_R   0.932921 0.988695 0.495734 0.093463
C22   C     C_R   0.830839 0.871450 0.467097 0.035752
C23   C     C_R   0.346273 0.285400 0.486515 0.832858
C24   C     C_R   0.041855 0.018280 0.467398 -0.038960
C25   C     C_R   0.032298 0.937576 0.391126 0.095079
C26   C     C_R   0.922929 0.824972 0.353449 0.399017
C27   C     C_R   0.823671 0.792858 0.391807 -0.290131
C28   C     C_R   0.161043 0.124917 0.512931 0.100301
C29   C     C_R   0.237658 0.084449 0.386430 -0.258413
C30   C     C_R   0.735632 0.837611 0.511751 -0.081265
C31   C     C_R   0.258797 0.681820 0.668471 0.350522
C32   C     C_R   0.653879 0.339624 0.365953 0.083147
C33   C     C_R   0.731196 0.301974 0.339645 -0.248992
C34   C     C_R   0.378962 0.480150 0.313254 0.796524
C35   C     C_R   0.866879 0.361239 0.392013 -0.171961
C36   C     C_R   0.928077 0.461092 0.470820 0.002110
C37   C     C_R   0.844304 0.495151 0.495839 0.244651
C38   C     C_R   0.068233 0.526745 0.526514 -0.145631
C39   C     C_R   0.121615 0.622290 0.609345 -0.001012
C40   C     C_R   0.038177 0.658019 0.629536 0.359170
C41   C     C_R   0.902655 0.592766 0.575051 -0.215525
C42   C     C_R   0.158742 0.502351 0.502710 0.050042
C43   C     C_R   0.340725 0.654374 0.638511 0.032705
C44   C     C_R   0.680189 0.518684 0.793341 -0.120213
C45   C     C_R   0.298761 0.453489 0.205957 -0.083444
C46   C     C_R   0.678246 0.527684 0.962351 0.192601
C47   C     C_R   0.624101 0.529059 0.861953 -0.260529
C48   C     C_R   0.792975 0.507670 0.826503 0.353330
Cu1   Cu    Cu3+1 0.416420 0.526630 0.522910 0.959235
Cu2   Cu    Cu3+1 0.583580 0.473370 0.477090 0.947303
H1    H     H_    0.797388 0.510882 0.147339 0.168023
H2    H     H_    0.238996 0.311449 0.975564 0.165924
H3    H     H_    0.307646 0.111940 0.349703 0.159852
H4    H     H_    0.126254 0.912686 0.293310 0.196520
H5    H     H_    0.654645 0.900555 0.599807 0.162972
H6    H     H_    0.979503 0.165664 0.552202 0.156864
H7    H     H_    0.805319 0.107362 0.617786 0.149712
H8    H     H_    0.737278 0.707973 0.357141 0.182847
H9    H     H_    0.445297 0.700626 0.682218 0.152209
H10   H     H_    0.200479 0.541253 0.234335 0.209392
H11   H     H_    0.126835 0.433238 0.440136 0.152581
H12   H     H_    0.548623 0.292464 0.325407 0.121554
H13   H     H_    0.921160 0.326739 0.369328 0.163261
H14   H     H_    0.685679 0.226004 0.278844 0.161493
H15   H     H_    0.845544 0.620912 0.598637 0.212558
H16   H     H_    0.386440 0.365502 0.152228 0.169988
H17   H     H_    0.051329 0.306960 0.846780 0.161529
H18   H     H_    0.539181 0.540786 0.838199 0.204757
H19   H     H_    0.882048 0.359545 0.798506 0.197813
N1    N     N_R   0.290690 0.566960 0.557640 -0.216863
N2    N     N_R   0.709100 0.433710 0.442970 -0.197900
O1    O     O_R   0.545970 0.684450 0.528810 -0.579816
O2    O     O_R   0.687130 0.639470 0.490120 -0.612359
O3    O     O_R   0.519670 0.535100 0.660030 -0.590715
O4    O     O_R   0.660830 0.490120 0.621340 -0.538355
O5    O     O_R   0.312870 0.360530 0.509880 -0.564885
O6    O     O_R   0.454030 0.315550 0.471190 -0.589911
O7    O     O_R   0.339170 0.509880 0.378660 -0.576368
O8    O     O_R   0.480330 0.464900 0.339970 -0.592484
O9    O     O_3   0.915588 0.747083 0.280186 -0.736397
H20   H     H_    0.837599 0.669813 0.267674 0.332314
I1    I     I_    0.232743 0.212322 0.668353 -0.371993
O10   O     O_3   0.090586 0.759901 0.700426 -0.694126
H21   H     H_    0.019666 0.774240 0.703904 0.329428
O11   O     O_3   0.315948 0.763960 0.757313 -0.675858
H22   H     H_    0.261828 0.730697 0.797977 0.360341
I2    I     I_    0.591302 0.558314 0.059486 -0.427694
O12   O     O_3   0.866999 0.529531 0.767401 -0.750191
H23   H     H_    0.960950 0.568240 0.812422 0.332172
O13   O     O_3   0.989935 0.469218 0.222946 -0.764083
H24   H     H_    0.953898 0.498165 0.263908 0.335230

loop_
_geom_bond_atom_site_label_1
_geom_bond_atom_site_label_2
_ccdc_geom_bond_type
C31   O11   S    
C12   O3    A    
C17   C29   A    
C15   H10   S    
C19   C20   A    
C23   O5    A    
C4    C8    A    
Cu2   O8    S    
O11   H22   S    
C19   H7    S    
C8    H19   S    
C17   C23   S    
C31   C43   A    
C36   C37   A    
C38   C42   A    
C3    C7    A    
C38   C39   A    
C42   N1    A    
Cu1   O7    S    
C18   C19   A    
C11   C15   A    
C35   C36   A    
C8    C9    A    
Cu1   O1    S    
C48   O12   S    
C18   C30   A    
C14   C45   A    
C9    C10   A    
C44   C47   A    
C43   H9    S    
C21   C22   A    
C40   O10   S    
C32   N2    A    
C14   H16   S    
C1    O1    A    
C28   I1    S    
C24   C25   A    
Cu2   O2    S    
C39   C40   A    
C4    C5    A    
C41   H15   S    
C2    C48   A    
C25   C26   A    
C6    O13   S    
C10   C13   A    
C26   O9    S    
C2    C4    A    
Cu2   N2    S    
C9    H17   S    
C34   O8    A    
C13   H2    S    
O10   H21   S    
C20   C21   A    
C26   C27   A    
Cu1   O5    S    
C34   C45   S    
C23   O6    A    
C42   H11   S    
C18   H5    S    
C40   C41   A    
C43   N1    A    
C22   C27   A    
C37   N2    A    
C12   O4    A    
C15   C45   A    
Cu2   O6    S    
C47   H18   S    
C46   I2    S    
C16   C25   A    
C46   C47   A    
C22   C30   A    
C17   C28   A    
C24   C28   A    
O9    H20   S    
C27   H8    S    
C5    C11   A    
C6    C7    A    
C3    C46   A    
Cu1   N1    S    
C1    O2    A    
C32   C33   A    
C36   C38   A    
C2    C3    A    
C16   C29   A    
C7    H1    S    
C12   C44   S    
Cu2   O4    S    
C34   O7    A    
O13   H24   S    
C5    C6    A    
C29   H3    S    
C33   H14   S    
C1    C30   S    
C33   C35   A    
C31   C39   A    
C20   H6    S    
C37   C41   A    
C16   H4    S    
C10   C11   A    
C32   H12   S    
O12   H23   S    
Cu1   Cu2   S    
C21   C24   A    
Cu1   O3    S    
C35   H13   S    
C13   C14   A    
C44   C48   A    
