data_mof_unit_3976.cif
_audit_creation_date              2012-12-10T17:43:40-0500
_audit_creation_method            fapswitch 2.2
_symmetry_space_group_name_H-M    P1
_symmetry_Int_Tables_number       1
_space_group_crystal_system       triclinic
_cell_length_a                    14.94903
_cell_length_b                    10.799583
_cell_length_c                    9.944779
_cell_angle_alpha                 91.788546
_cell_angle_beta                  91.756448
_cell_angle_gamma                 95.205421
_cell_volume                      1597.21305802

loop_
_atom_site_label
_atom_site_type_symbol
_atom_type_description
_atom_site_fract_x
_atom_site_fract_y
_atom_site_fract_z
_atom_type_partial_charge
Br1   Br    Br    0.755286 0.937265 0.938874 -0.220301
Br2   Br    Br    0.684041 0.756222 0.685261 -0.471123
Br3   Br    Br    0.639696 0.698878 0.171665 -0.358370
Br4   Br    Br    0.250045 0.120153 0.806316 -0.248360
Br5   Br    Br    0.867101 0.123932 0.380226 -0.362120
Br6   Br    Br    0.236150 0.234323 0.456987 -0.511230
Br7   Br    Br    0.273012 0.748654 0.607574 -0.355889
Br8   Br    Br    0.913901 0.874849 0.583747 -0.340467
C1    C     C_R   0.503168 0.261401 0.498335 0.889968
C2    C     C_R   0.178925 0.387856 0.468776 0.184923
C3    C     C_R   0.231716 0.499745 0.495993 -0.209092
C4    C     C_R   0.327242 0.499188 0.498557 0.960997
C5    C     C_R   0.194610 0.611394 0.525637 0.248621
C6    C     C_R   0.633775 0.164316 0.672871 -0.332423
C7    C     C_R   0.682984 0.120843 0.779246 0.418147
C8    C     C_R   0.682633 0.993713 0.793048 0.335100
C9    C     C_R   0.636024 0.910893 0.696845 0.135559
C10   C     C_R   0.574211 0.953302 0.598809 -0.027231
C11   C     C_R   0.573856 0.083524 0.590244 0.028650
C12   C     C_R   0.913485 0.612937 0.504017 -0.000858
C13   C     C_R   0.515773 0.132079 0.495718 -0.126992
C14   C     C_R   0.463519 0.057294 0.403395 -0.132149
C15   C     C_R   0.459557 0.930864 0.409882 0.477422
C16   C     C_R   0.507417 0.740913 0.502710 0.940242
C17   C     C_R   0.514485 0.876103 0.506475 -0.170706
C18   C     C_R   0.383293 0.326730 0.128903 -0.316796
C19   C     C_R   0.327345 0.237107 0.052617 0.418300
C20   C     C_R   0.326427 0.239894 0.912889 0.297675
C21   C     C_R   0.381862 0.328607 0.849057 -0.272412
C22   C     C_R   0.441828 0.415326 0.922388 0.115043
C23   C     C_R   0.937355 0.276254 0.434176 0.266567
C24   C     C_R   0.442075 0.414993 0.066755 0.079770
C25   C     C_R   0.555951 0.580904 0.076180 0.336294
C26   C     C_R   0.555366 0.580565 0.934049 -0.103519
C27   C     C_R   0.672724 0.497306 0.500781 0.898597
C28   C     C_R   0.820594 0.609750 0.499480 -0.066878
C29   C     C_R   0.768252 0.497105 0.499971 -0.076582
C30   C     C_R   0.805753 0.385587 0.479337 -0.209921
C31   C     C_R   0.898315 0.386221 0.465799 0.090685
C32   C     C_R   0.953049 0.500318 0.484832 0.013793
C33   C     C_R   0.030244 0.277444 0.434269 -0.126437
C34   C     C_R   0.085585 0.387950 0.463286 0.053537
C35   C     C_R   0.046708 0.501460 0.485497 -0.100313
C36   C     C_R   0.101139 0.615291 0.510942 -0.030979
C37   C     C_R   0.060592 0.728670 0.520920 0.453517
C38   C     C_R   0.966749 0.726134 0.525457 0.156375
H1    H     H_    0.788494 0.694488 0.491030 0.215604
H2    H     H_    0.369883 0.792440 0.367605 0.359640
H3    H     H_    0.288509 0.147042 0.208997 0.364164
H4    H     H_    0.077173 0.906738 0.488636 0.385370
H5    H     H_    0.643719 0.262543 0.655864 0.174046
H6    H     H_    0.379553 0.325990 0.236028 0.224714
H7    H     H_    0.376357 0.326476 0.741920 0.244233
H8    H     H_    0.761892 0.300040 0.471269 0.172833
H9    H     H_    0.600487 0.646629 0.886320 0.212888
H10   H     H_    0.058068 0.190838 0.410181 0.226852
H11   H     H_    0.419973 0.097592 0.330963 0.177837
H12   H     H_    0.727536 0.287916 0.844359 0.345621
N1    N     N_R   0.499150 0.498800 0.142780 -0.133587
N2    N     N_R   0.499120 0.498720 0.857170 -0.124542
O1    O     O_R   0.500000 0.316780 0.614690 -0.640440
O2    O     O_3   0.398833 0.864368 0.321272 -0.689996
O3    O     O_3   0.272822 0.145905 0.111764 -0.657999
O4    O     O_3   0.113188 0.840681 0.521465 -0.644865
O5    O     O_R   0.499990 0.316750 0.385360 -0.642654
O6    O     O_R   0.367850 0.499980 0.614680 -0.601166
O7    O     O_R   0.367840 0.499960 0.385350 -0.625679
O8    O     O_R   0.500010 0.683250 0.614640 -0.571135
O9    O     O_R   0.500000 0.683220 0.385310 -0.571022
O10   O     O_R   0.632160 0.500040 0.614650 -0.600248
O11   O     O_R   0.632150 0.500020 0.385320 -0.577390
O12   O     O_3   0.735367 0.200700 0.867153 -0.679455
Zn1   Zn    Zn3+2 0.500010 0.500020 0.653130 1.004742
Zn2   Zn    Zn3+2 0.499990 0.499980 0.346870 1.022998

loop_
_geom_bond_atom_site_label_1
_geom_bond_atom_site_label_2
_ccdc_geom_bond_type
C18   C24   A    
H3    O3    S    
C2    C34   A    
H4    O4    S    
C33   C34   A    
C1    C13   S    
C14   H11   S    
C37   C38   A    
C7    O12   S    
C18   C19   A    
C29   C30   A    
C1    O1    A    
C20   C21   A    
C27   C29   S    
C30   C31   A    
C12   C32   A    
Br3   C25   S    
C7    C8    A    
N2    Zn1   S    
C28   H1    S    
C10   C11   A    
C32   C35   A    
C27   O10   A    
C8    C9    A    
C22   N2    A    
C27   O11   A    
C26   H9    S    
C25   N1    A    
C13   C14   A    
Br2   C9    S    
C26   N2    A    
C10   C17   A    
Br4   C20   S    
C16   O9    A    
C9    C10   A    
C1    O5    A    
C15   O2    S    
C4    O7    A    
C16   C17   S    
C31   C32   A    
Br1   C8    S    
O1    Zn1   S    
O8    Zn1   S    
O6    Zn1   S    
C4    O6    A    
O5    Zn2   S    
C35   C36   A    
C33   H10   S    
C21   C22   A    
C18   H6    S    
H2    O2    S    
C6    H5    S    
C30   H8    S    
O10   Zn1   S    
C25   C26   A    
O9    Zn2   S    
O7    Zn2   S    
N1    Zn2   S    
C19   O3    S    
C34   C35   A    
C36   C37   A    
C28   C29   A    
C23   C33   A    
C11   C13   A    
C6    C7    A    
C6    C11   A    
Br6   C2    S    
O11   Zn2   S    
C3    C4    S    
C37   O4    S    
C22   C24   A    
C3    C5    A    
H12   O12   S    
C21   H7    S    
C23   C31   A    
C15   C17   A    
Br8   C38   S    
C2    C3    A    
C16   O8    A    
C12   C28   A    
Br7   C5    S    
C19   C20   A    
C14   C15   A    
C24   N1    A    
C5    C36   A    
C12   C38   A    
Br5   C23   S    
