data_mof_unit_3970.cif
_audit_creation_date              2013-03-05T15:47:26-0500
_audit_creation_method            fapswitch 2.2
_symmetry_space_group_name_H-M    P1
_symmetry_Int_Tables_number       1
_space_group_crystal_system       triclinic
_cell_length_a                    18.324413
_cell_length_b                    18.371133
_cell_length_c                    11.747732
_cell_angle_alpha                 89.999511
_cell_angle_beta                  74.878338
_cell_angle_gamma                 89.999946
_cell_volume                      3817.82197683

loop_
_atom_site_label
_atom_site_type_symbol
_atom_site_description
_atom_site_fract_x
_atom_site_fract_y
_atom_site_fract_z
_atom_type_partial_charge
O1    O     O_R   0.430030 0.075530 0.417420 -0.575190
O2    O     O_R   0.569970 0.924470 0.582580 -0.566121
O3    O     O_R   0.569970 0.075530 0.582580 -0.575194
O4    O     O_R   0.430030 0.924470 0.417420 -0.566142
O5    O     O_R   0.930030 0.575530 0.417420 -0.575174
O6    O     O_R   0.069970 0.424470 0.582580 -0.566156
O7    O     O_R   0.069970 0.575530 0.582580 -0.575169
O8    O     O_R   0.930030 0.424470 0.417420 -0.566158
O9    O     O_R   0.416860 0.075510 0.614610 -0.575556
O10   O     O_R   0.583140 0.924490 0.385390 -0.585850
O11   O     O_R   0.583140 0.075510 0.385390 -0.575613
O12   O     O_R   0.416860 0.924490 0.614610 -0.586063
O13   O     O_R   0.916860 0.575510 0.614610 -0.575614
O14   O     O_R   0.083140 0.424490 0.385390 -0.585839
O15   O     O_R   0.083140 0.575510 0.385390 -0.575612
O16   O     O_R   0.916860 0.424490 0.614610 -0.585836
C1    C     C_R   0.400806 0.101622 0.521660 0.861953
C2    C     C_R   0.599125 0.898322 0.478360 0.864713
C3    C     C_R   0.599195 0.101621 0.478338 0.861982
C4    C     C_R   0.400877 0.898320 0.521639 0.864671
C5    C     C_R   0.900805 0.601622 0.521661 0.861974
C6    C     C_R   0.099126 0.398322 0.478360 0.864661
C7    C     C_R   0.099196 0.601621 0.478338 0.861966
C8    C     C_R   0.900874 0.398322 0.521640 0.864671
C9    C     C_R   0.409610 0.996271 0.871475 0.301463
C10   C     C_R   0.590396 0.996400 0.128510 0.301567
C11   C     C_R   0.909604 0.496369 0.871488 0.301578
C12   C     C_R   0.090396 0.496367 0.128512 0.301576
Cu1   Cu    Cu3+1 0.507800 0.000000 0.383250 1.028436
Cu2   Cu    Cu3+1 0.492200 0.000000 0.616750 1.028412
Cu3   Cu    Cu3+1 0.007800 0.500000 0.383250 1.028458
Cu4   Cu    Cu3+1 0.992200 0.500000 0.616750 1.028462
C13   C     C_R   0.400381 0.999609 0.994786 0.303173
C14   C     C_R   0.599614 0.999747 0.005206 0.303220
C15   C     C_R   0.900385 0.499669 0.994796 0.303233
C16   C     C_R   0.099616 0.499667 0.005204 0.303223
C17   C     C_R   0.542603 0.003423 0.835803 0.082465
C18   C     C_R   0.457389 0.003334 0.164201 0.082446
C19   C     C_R   0.042608 0.503343 0.835799 0.082432
C20   C     C_R   0.957392 0.503344 0.164200 0.082419
C21   C     C_R   0.652254 0.162080 0.466765 -0.152769
C22   C     C_R   0.347964 0.837743 0.533126 -0.158938
C23   C     C_R   0.347750 0.162082 0.533231 -0.152685
C24   C     C_R   0.652044 0.837749 0.466870 -0.158981
C25   C     C_R   0.152256 0.662078 0.466765 -0.152771
C26   C     C_R   0.847955 0.337750 0.533132 -0.159004
C27   C     C_R   0.847747 0.662080 0.533234 -0.152777
C28   C     C_R   0.152044 0.337750 0.466870 -0.159007
C29   C     C_R   0.287194 0.728497 0.628868 -0.179541
C30   C     C_R   0.713228 0.271174 0.370773 -0.176661
C31   C     C_R   0.712836 0.728521 0.371099 -0.179564
C32   C     C_R   0.286789 0.271186 0.629206 -0.176718
C33   C     C_R   0.787160 0.228522 0.628906 -0.179550
C34   C     C_R   0.213215 0.771184 0.370792 -0.176641
C35   C     C_R   0.212827 0.228515 0.371110 -0.179585
C36   C     C_R   0.786775 0.771176 0.629223 -0.176679
C37   C     C_R   0.339832 0.784400 0.622612 0.319934
C38   C     C_R   0.660705 0.215192 0.376891 0.324310
C39   C     C_R   0.660199 0.784425 0.377354 0.319944
C40   C     C_R   0.339310 0.215202 0.623090 0.324413
C41   C     C_R   0.839797 0.284426 0.622652 0.319924
C42   C     C_R   0.160698 0.715197 0.376904 0.324296
C43   C     C_R   0.160192 0.284420 0.377363 0.319941
C44   C     C_R   0.839298 0.715193 0.623105 0.324310
C45   C     C_R   0.305581 0.832800 0.449958 -0.216773
C46   C     C_R   0.694535 0.167086 0.550067 -0.225877
C47   C     C_R   0.694412 0.832795 0.550056 -0.216763
C48   C     C_R   0.305460 0.167083 0.449940 -0.225946
C49   C     C_R   0.805589 0.332795 0.449944 -0.216753
C50   C     C_R   0.194548 0.667075 0.550053 -0.225896
C51   C     C_R   0.194419 0.332801 0.550047 -0.216761
C52   C     C_R   0.805464 0.667086 0.449934 -0.225882
C53   C     C_R   0.254910 0.776000 0.454708 0.095681
C54   C     C_R   0.745312 0.223815 0.545183 0.097612
C55   C     C_R   0.745088 0.775998 0.545298 0.095674
C56   C     C_R   0.254684 0.223813 0.454822 0.097633
C57   C     C_R   0.754913 0.275998 0.454702 0.095670
C58   C     C_R   0.245326 0.723804 0.545169 0.097605
C59   C     C_R   0.245094 0.276003 0.545290 0.095685
C60   C     C_R   0.754686 0.723815 0.454819 0.097619
N1    N     N_R   0.519530 0.000000 0.207810 -0.219742
N2    N     N_R   0.480470 0.000000 0.792190 -0.219815
N3    N     N_R   0.019530 0.500000 0.207810 -0.219736
N4    N     N_R   0.980470 0.500000 0.792190 -0.219737
H1    H     H_    0.402512 0.006228 0.226658 0.168900
H2    H     H_    0.597476 0.006400 0.773351 0.168914
H3    H     H_    0.902517 0.506265 0.226655 0.168907
H4    H     H_    0.097483 0.506265 0.773343 0.168913
H5    H     H_    0.688140 0.126371 0.618915 0.174566
H6    H     H_    0.311853 0.873597 0.381269 0.192639
H7    H     H_    0.311846 0.126362 0.381104 0.174541
H8    H     H_    0.688127 0.873581 0.618763 0.192630
H9    H     H_    0.188163 0.626351 0.618887 0.174559
H10   H     H_    0.811876 0.373580 0.381234 0.192625
H11   H     H_    0.811857 0.626370 0.381089 0.174569
H12   H     H_    0.188139 0.373592 0.618746 0.192623
H13   H     H_    0.780687 0.187350 0.696960 0.199966
H14   H     H_    0.219790 0.812257 0.302570 0.211423
H15   H     H_    0.219293 0.187337 0.303067 0.199900
H16   H     H_    0.780192 0.812243 0.697454 0.211364
H17   H     H_    0.280737 0.687311 0.696899 0.199961
H18   H     H_    0.719813 0.312241 0.302540 0.211399
H19   H     H_    0.719307 0.687348 0.303047 0.199951
H20   H     H_    0.280213 0.312258 0.697428 0.211395
C61   C     C_R   0.535998 0.001862 0.959732 -0.144266
C62   C     C_R   0.463992 0.001807 0.040269 -0.144239
C63   C     C_R   0.036003 0.501800 0.959729 -0.144255
C64   C     C_R   0.963998 0.501801 0.040270 -0.144260
N5    N     N_3   0.657545 0.982905 0.165805 -0.499858
H21   H     H_    0.658368 0.928950 0.192847 0.265090
H22   H     H_    0.664313 0.019815 0.229048 0.258228
N6    N     N_3   0.342510 0.982555 0.834154 -0.499659
H23   H     H_    0.341781 0.928493 0.807522 0.265145
H24   H     H_    0.335854 0.019182 0.770436 0.258188
N7    N     N_3   0.157547 0.482901 0.165818 -0.499880
H25   H     H_    0.158390 0.428955 0.192885 0.265092
H26   H     H_    0.164318 0.519837 0.229021 0.258236
N8    N     N_3   0.842452 0.482906 0.834184 -0.499884
H27   H     H_    0.841608 0.428960 0.807114 0.265100
H28   H     H_    0.835681 0.519844 0.770983 0.258231
N9    N     N_R   0.614021 0.215640 0.295847 0.136824
O17   O     O_R   0.642903 0.233718 0.186225 -0.287579
O18   O     O_R   0.540887 0.211132 0.335283 -0.320386
N10   N     N_R   0.387031 0.783537 0.702913 0.125662
O19   O     O_R   0.358847 0.764327 0.812189 -0.295956
O20   O     O_R   0.460063 0.788859 0.662826 -0.315592
N11   N     N_R   0.386005 0.215657 0.704117 0.136911
O21   O     O_R   0.357137 0.233753 0.813734 -0.287554
O22   O     O_R   0.459138 0.211136 0.664665 -0.320402
N12   N     N_R   0.613028 0.783585 0.297011 0.125793
O23   O     O_R   0.641248 0.764430 0.187719 -0.295846
O24   O     O_R   0.539990 0.788867 0.337061 -0.315523
N13   N     N_R   0.114011 0.715646 0.295865 0.136817
O25   O     O_R   0.142895 0.733709 0.186234 -0.287591
O26   O     O_R   0.040875 0.711145 0.335306 -0.320381
N14   N     N_R   0.886965 0.283587 0.702998 0.125796
O27   O     O_R   0.858741 0.264437 0.812292 -0.295802
O28   O     O_R   0.960003 0.288867 0.662953 -0.315539
N15   N     N_R   0.885985 0.715642 0.704144 0.136820
O29   O     O_R   0.857106 0.733721 0.813767 -0.287616
O30   O     O_R   0.959120 0.711133 0.664703 -0.320375
N16   N     N_R   0.113016 0.283577 0.297029 0.125797
O31   O     O_R   0.141229 0.264413 0.187739 -0.295844
O32   O     O_R   0.039979 0.288865 0.337086 -0.315556
N17   N     N_R   0.325635 0.996071 0.072729 0.122596
O33   O     O_R   0.274212 0.042335 0.061473 -0.279330
O34   O     O_R   0.306442 0.941547 0.145071 -0.359802
N18   N     N_R   0.674363 0.996339 0.927250 0.122604
O35   O     O_R   0.725693 0.042714 0.938495 -0.279415
O36   O     O_R   0.693655 0.941844 0.854873 -0.359728
N19   N     N_R   0.825638 0.496218 0.072749 0.122605
O37   O     O_R   0.774293 0.542593 0.061570 -0.279467
O38   O     O_R   0.806367 0.441694 0.145072 -0.359701
N20   N     N_R   0.174363 0.496212 0.927251 0.122603
O39   O     O_R   0.225718 0.542571 0.938454 -0.279440
O40   O     O_R   0.193626 0.441694 0.854912 -0.359723

loop_
_geom_bond_atom_site_label_1
_geom_bond_atom_site_label_2
_geom_bond_distance
_ccdc_geom_bond_type
O6    Cu4   1.954205 S    
C39   N12   1.436617 S    
C18   C62   1.429414 A    
C7    C25   1.458919 S    
O16   Cu4   1.961896 S    
O2    C2    1.293810 A    
O13   Cu4   1.961892 S    
C49   C57   1.388191 A    
C33   C54   1.398722 A    
C56   C59   1.407926 A    
O14   Cu3   1.961892 S    
C51   C59   1.388191 A    
N17   O33   1.301069 A    
Cu3   N3    2.015659 S    
C19   C63   1.429390 A    
O11   C3    1.294835 A    
C20   H3    1.080469 S    
C11   N4    1.388320 A    
N18   O36   1.301303 A    
C19   N4    1.366419 A    
N5    H22   1.036934 S    
C29   H17   1.084383 S    
C50   C58   1.388297 A    
C24   C39   1.416309 A    
C31   H19   1.084381 S    
N7    H25   1.042154 S    
C46   C54   1.388292 A    
C25   C42   1.416137 A    
C48   H7    1.085319 S    
C45   C53   1.388190 A    
C29   C58   1.398723 A    
N8    H27   1.042166 S    
C26   C49   1.400679 A    
C15   C64   1.403785 A    
C32   C40   1.397545 A    
C9    N6    1.431376 S    
C31   C60   1.398719 A    
C52   H11   1.085318 S    
C14   N18   1.436775 S    
C10   C14   1.415255 A    
C23   C48   1.400711 A    
N7    H26   1.036907 S    
C54   C57   1.407926 A    
C35   C43   1.397679 A    
C22   C45   1.400683 A    
N19   O37   1.301073 A    
C36   C44   1.397543 A    
O3    C3    1.293845 A    
C32   C59   1.398716 A    
C55   C60   1.407928 A    
N20   O40   1.301301 A    
O4    Cu1   1.954202 S    
C20   C64   1.429388 A    
O15   C7    1.294836 A    
O16   C8    1.294875 A    
C36   C55   1.398716 A    
C5    C27   1.458919 S    
C16   C63   1.403787 A    
O8    Cu3   1.954202 S    
C20   N3    1.366420 A    
C15   N19   1.436769 S    
C19   H4    1.080467 S    
C22   C37   1.416315 A    
N6    H24   1.037103 S    
N6    H23   1.042416 S    
N17   O34   1.301287 A    
C46   H5    1.085318 S    
C45   H6    1.085219 S    
Cu4   N4    2.015660 S    
C26   C41   1.416309 A    
C16   N20   1.436777 S    
C30   C38   1.397544 A    
C17   H2    1.080470 S    
C50   H9    1.085322 S    
N18   O35   1.301084 A    
N14   O28   1.301343 A    
C49   H10   1.085217 S    
C27   C44   1.416139 A    
C28   C43   1.416306 A    
C51   H12   1.085217 S    
C34   C42   1.397540 A    
C11   C15   1.415245 A    
C17   C61   1.429378 A    
O5    C5    1.293844 A    
Cu2   N2    2.015660 S    
O3    Cu2   1.954201 S    
N12   O24   1.301344 A    
N11   O22   1.301371 A    
Cu1   N1    2.015659 S    
Cu1   Cu2   2.682754 S    
C12   N7    1.431351 S    
C2    C24   1.458949 S    
C34   C53   1.398721 A    
Cu3   Cu4   2.682754 S    
C18   H1    1.080470 S    
C53   C58   1.407932 A    
O12   C4    1.294881 A    
O1    Cu1   1.954204 S    
N9    O17   1.301246 A    
O13   C5    1.294831 A    
C10   N5    1.431353 S    
O11   Cu1   1.961893 S    
N20   O39   1.301092 A    
C13   N17   1.436772 S    
O9    Cu2   1.961892 S    
C35   C56   1.398721 A    
C23   C40   1.416137 A    
O9    C1    1.294834 A    
C6    C28   1.458948 S    
C30   H18   1.084348 S    
C10   N1    1.388295 A    
C18   N1    1.366462 A    
C9    N2    1.388250 A    
N16   O32   1.301342 A    
C17   N2    1.366427 A    
C47   C55   1.388190 A    
C36   H16   1.084349 S    
C63   C64   1.408839 A    
C33   C41   1.397679 A    
N11   O21   1.301248 A    
C30   C57   1.398715 A    
C42   N13   1.436401 S    
N10   O20   1.301347 A    
C11   N8    1.431352 S    
C32   H20   1.084347 S    
C38   N9    1.436403 S    
O7    Cu4   1.954201 S    
O12   Cu2   1.961896 S    
C25   C50   1.400717 A    
C14   C61   1.403810 A    
C40   N11   1.436405 S    
C13   C62   1.403862 A    
N14   O27   1.301284 A    
C21   C38   1.416138 A    
C29   C37   1.397687 A    
C4    C22   1.458952 S    
N15   O29   1.301254 A    
O15   Cu3   1.961893 S    
C21   C46   1.400714 A    
C48   C56   1.388293 A    
C61   C62   1.408841 A    
O1    C1    1.293842 A    
O2    Cu2   1.954205 S    
C8    C26   1.458951 S    
O14   C6    1.294874 A    
N12   O23   1.301283 A    
C52   C60   1.388293 A    
N5    H21   1.042190 S    
C37   N10   1.436630 S    
N15   O30   1.301375 A    
O10   Cu1   1.961892 S    
N13   O25   1.301272 A    
O10   C2    1.294875 A    
O7    C7    1.293843 A    
C47   H8    1.085218 S    
O8    C8    1.293810 A    
C43   N16   1.436619 S    
C33   H13   1.084381 S    
N19   O38   1.301289 A    
N8    H28   1.036914 S    
C27   C52   1.400712 A    
N9    O18   1.301371 A    
O4    C4    1.293804 A    
C31   C39   1.397678 A    
C12   C16   1.415250 A    
C35   H15   1.084379 S    
C1    C23   1.458921 S    
N13   O26   1.301382 A    
N16   O31   1.301284 A    
C34   H14   1.084352 S    
C24   C47   1.400679 A    
C28   C51   1.400676 A    
O5    Cu3   1.954204 S    
C3    C21   1.458923 S    
C41   N14   1.436618 S    
C9    C13   1.415287 A    
N10   O19   1.301293 A    
C12   N3    1.388321 A    
C44   N15   1.436402 S    
O6    C6    1.293809 A    
