data_mof_unit_3361.cif
_audit_creation_date              2012-12-11T14:20:59-0500
_audit_creation_method            fapswitch 2.2
_symmetry_space_group_name_H-M    P1
_symmetry_Int_Tables_number       1
_space_group_crystal_system       triclinic
_cell_length_a                    11.632696
_cell_length_b                    11.547225
_cell_length_c                    19.569353
_cell_angle_alpha                 90.666822
_cell_angle_beta                  90.937891
_cell_angle_gamma                 59.543774
_cell_volume                      2265.62843623

loop_
_atom_site_label
_atom_site_type_symbol
_atom_type_description
_atom_site_fract_x
_atom_site_fract_y
_atom_site_fract_z
_atom_type_partial_charge
C1    C     C_R   0.640827 0.117321 0.599216 0.550973
C2    C     C_1   0.653969 0.149144 0.668600 0.005365
C3    C     C_R   0.669006 0.668030 0.191827 0.022775
C4    C     C_R   0.612921 0.746149 0.598620 0.547491
C5    C     C_R   0.540033 0.750349 0.215871 0.003597
C6    C     C_R   0.517604 0.743148 0.285296 -0.021133
C7    C     C_R   0.757300 0.613144 0.306876 -0.192365
C8    C     C_R   0.776617 0.596773 0.237254 -0.159349
C9    C     C_R   0.431432 0.820832 0.170158 -0.140607
C10   C     C_R   0.304240 0.854590 0.189372 -0.081649
C11   C     C_R   0.283398 0.826985 0.255269 0.319289
C12   C     C_1   0.642607 0.703979 0.668070 0.005545
C13   C     C_R   0.386594 0.776618 0.303531 -0.067578
C14   C     C_R   0.629717 0.692344 0.331539 -0.005170
C15   C     C_R   0.124417 0.211131 0.199022 -0.018496
C16   C     C_R   0.242244 0.145091 0.598417 0.545728
C17   C     C_R   0.167707 0.290515 0.233703 -0.016179
C18   C     C_R   0.150994 0.305590 0.304834 0.050715
C19   C     C_R   0.106919 0.122372 0.308421 -0.140053
C20   C     C_R   0.084139 0.136698 0.238167 -0.135465
C21   C     C_R   0.222367 0.358703 0.200075 -0.122547
C22   C     C_R   0.240110 0.454767 0.234525 -0.132068
C23   C     C_1   0.125473 0.198494 0.859147 0.002289
C24   C     C_R   0.195890 0.490703 0.301767 0.100979
C25   C     C_R   0.145008 0.420643 0.336206 0.169074
C26   C     C_R   0.151893 0.198349 0.341602 0.001786
C27   C     C_R   0.727799 0.202009 0.205462 -0.024848
C28   C     C_R   0.642615 0.110702 0.401303 0.569866
C29   C     C_R   0.794600 0.065659 0.229903 0.028599
C30   C     C_R   0.741503 0.038889 0.286808 -0.005050
C31   C     C_R   0.620672 0.278527 0.315041 0.069235
C32   C     C_R   0.644082 0.306834 0.249218 -0.157732
C33   C     C_R   0.909409 0.953453 0.199844 -0.018034
C34   C     C_1   0.172202 0.170415 0.727697 -0.029247
C35   C     C_R   0.951475 0.822353 0.217997 -0.056684
C36   C     C_R   0.882301 0.798167 0.266367 -0.113560
C37   C     C_R   0.773493 0.904916 0.297724 -0.086554
C38   C     C_R   0.664228 0.144794 0.332955 0.047940
C39   C     C_R   0.080721 0.231219 0.928398 0.549098
C40   C     C_R   0.612607 0.740674 0.401730 0.535455
C41   C     C_R   0.683321 0.603870 0.929447 0.543345
C42   C     C_R   0.707805 0.206674 0.930164 0.557407
C43   C     C_R   0.080535 0.237674 0.126951 0.522985
C44   C     C_R   0.683963 0.612434 0.124535 0.528542
C45   C     C_1   0.149583 0.182188 0.798893 -0.029880
C46   C     C_R   0.742808 0.233308 0.134770 0.546851
C47   C     C_R   0.233396 0.148534 0.404857 0.554777
C48   C     C_1   0.668416 0.646388 0.860117 0.004843
C49   C     C_1   0.655238 0.683758 0.728540 -0.030078
C50   C     C_1   0.662189 0.666741 0.799749 -0.030525
C51   C     C_1   0.196655 0.161067 0.667513 0.005921
C52   C     C_1   0.677508 0.191933 0.860714 0.002278
C53   C     C_1   0.659018 0.167031 0.728967 -0.029956
C54   C     C_1   0.665096 0.181344 0.800226 -0.030588
Cr1   Cr    Cr6+3 0.404720 0.198220 0.499960 1.054666
Cr2   Cr    Cr6+3 0.698290 0.897110 0.500380 1.028767
Cr3   Cr    Cr6+3 0.396970 0.904720 0.499610 1.036406
Cr4   Cr    Cr6+3 0.926180 0.151990 0.028120 1.005695
Cr5   Cr    Cr6+3 0.921330 0.451820 0.027470 1.021463
Cr6   Cr    Cr6+3 0.626260 0.446870 0.028710 1.025356
F1    F     F_    0.161925 0.850119 0.273094 -0.718755
H1    H     H_    0.841091 0.563246 0.341476 0.135335
H2    H     H_    0.223268 0.896982 0.152336 0.121290
H3    H     H_    0.362143 0.753023 0.352257 0.177580
H4    H     H_    0.090614 0.052457 0.336946 0.198892
H5    H     H_    0.253982 0.336574 0.147491 0.149047
H6    H     H_    0.038704 0.086196 0.214079 0.163308
H7    H     H_    0.113969 0.676377 0.343692 0.269398
H8    H     H_    0.262338 0.622572 0.307275 0.263622
H9    H     H_    0.154062 0.471596 0.435071 0.273394
H10   H     H_    0.006500 0.567158 0.396807 0.207073
H11   H     H_    0.616531 0.427745 0.371315 0.230097
H12   H     H_    0.283503 0.504821 0.207829 0.120710
H13   H     H_    0.466806 0.457894 0.343072 0.247634
H14   H     H_    0.974914 0.960823 0.164250 0.149108
H15   H     H_    0.601785 0.410433 0.233378 0.132453
H16   H     H_    0.038936 0.739560 0.194881 0.133680
H17   H     H_    0.918296 0.696448 0.281716 0.115071
H18   H     H_    0.716697 0.882111 0.331682 0.161575
H19   H     H_    0.446838 0.837656 0.117587 0.128496
H20   H     H_    0.875700 0.526094 0.219023 0.148473
N1    N     N_3   0.208921 0.592794 0.337209 -0.636608
N2    N     N_3   0.084429 0.468019 0.401947 -0.602878
N3    N     N_3   0.557021 0.384516 0.364167 -0.596214
O1    O     O_R   0.267740 0.231960 0.575440 -0.508030
O2    O     O_R   0.596130 0.579390 0.952730 -0.507377
O3    O     O_R   0.639060 0.321160 0.958670 -0.487522
O4    O     O_R   0.527280 0.186640 0.570530 -0.493057
O5    O     O_R   0.821240 0.124200 0.104370 -0.540333
O6    O     O_R   0.036890 0.167040 0.097840 -0.532909
O7    O     O_R   0.056180 0.349610 0.102880 -0.519275
O8    O     O_R   0.797660 0.564870 0.097950 -0.507720
O9    O     O_R   0.595880 0.584250 0.104270 -0.525694
O10   O     O_R   0.638830 0.325670 0.099150 -0.486547
O11   O     O_3   0.824590 0.350230 0.028100 -0.269788
O12   O     O_R   0.685970 0.784660 0.430010 -0.516864
O13   O     O_R   0.728090 0.003450 0.576380 -0.501742
O14   O     O_R   0.682970 0.789190 0.570490 -0.491952
O15   O     O_R   0.499290 0.771880 0.575530 -0.500123
O16   O     O_R   0.285330 0.030870 0.569730 -0.494594
O17   O     O_R   0.270980 0.227080 0.423890 -0.496584
O18   O     O_R   0.530280 0.182120 0.430050 -0.463404
O19   O     O_R   0.731330 0.998570 0.424830 -0.531495
O20   O     O_R   0.502530 0.767000 0.423990 -0.531368
O21   O     O_R   0.288330 0.026350 0.429250 -0.500235
O22   O     O_3   0.499990 0.000020 0.499980 -0.267018
O23   O     O_R   0.821500 0.119340 0.952830 -0.500578
O24   O     O_R   0.037130 0.162530 0.957360 -0.493772
O25   O     O_R   0.056440 0.344740 0.951340 -0.502132
O26   O     O_R   0.797900 0.560360 0.957470 -0.491374

loop_
_geom_bond_atom_site_label_1
_geom_bond_atom_site_label_2
_ccdc_geom_bond_type
Cr3   O21   S    
C23   C45   T    
C4    O14   A    
C21   H5    S    
C27   C29   A    
C20   H6    S    
C35   C36   A    
C18   C26   A    
C16   C51   S    
Cr2   O14   S    
C12   C49   T    
C7    C8    A    
C46   O5    A    
C53   C54   S    
C41   O2    A    
C37   H18   S    
Cr1   O18   S    
C34   C51   T    
C47   O17   A    
C36   C37   A    
C1    C2    S    
C5    C6    A    
C40   O20   A    
Cr3   O15   S    
C29   C33   A    
Cr5   O26   S    
C30   C38   A    
C15   C17   A    
Cr4   O23   S    
Cr1   O4    S    
C19   C26   A    
C24   N1    S    
C44   O9    A    
Cr5   O25   S    
C33   H14   S    
C7    C14   A    
C10   H2    S    
C47   O21   A    
H8    N1    S    
C4    C12   S    
C9    C10   A    
C44   O8    A    
Cr6   O9    S    
C1    O4    A    
C48   C50   T    
Cr3   O22   S    
C21   C22   A    
C15   C20   A    
C18   C25   A    
Cr5   O11   S    
Cr2   O13   S    
C40   O12   A    
Cr6   O3    S    
C52   C54   T    
H10   N2    S    
C39   O24   A    
C3    C44   S    
C43   O6    A    
Cr1   O22   S    
C8    H20   S    
C24   C25   A    
C3    C8    A    
C1    O13   A    
Cr6   O2    S    
C16   O16   A    
C3    C5    A    
Cr3   O16   S    
C35   H16   S    
C43   O7    A    
C31   N3    S    
C30   C37   A    
C9    H19   S    
Cr1   O1    S    
Cr4   O11   S    
C7    H1    S    
C5    C9    A    
C29   C30   A    
C6    C14   A    
C31   C32   A    
C46   O10   A    
C28   C38   S    
C17   C18   A    
C34   C45   S    
Cr5   O7    S    
H9    N2    S    
Cr4   O6    S    
Cr2   O22   S    
H11   N3    S    
C26   C47   S    
C27   C46   S    
C41   O26   A    
C16   O1    A    
C22   C24   A    
C42   O23   A    
Cr2   O12   S    
Cr3   O20   S    
C27   C32   A    
Cr2   O19   S    
H13   N3    S    
C11   F1    S    
C2    C53   T    
C32   H15   S    
Cr1   O17   S    
C31   C38   A    
H7    N1    S    
C19   C20   A    
C15   C43   S    
C36   H17   S    
C6    C13   A    
C11   C13   A    
C28   O19   A    
C13   H3    S    
C23   C39   S    
C33   C35   A    
C41   C48   S    
C19   H4    S    
Cr4   O24   S    
Cr5   O8    S    
Cr4   O5    S    
C17   C21   A    
C10   C11   A    
C14   C40   S    
Cr6   O11   S    
C28   O18   A    
C39   O25   A    
C49   C50   S    
C4    O15   A    
C25   N2    S    
C42   O3    A    
C22   H12   S    
C42   C52   S    
Cr6   O10   S    
