data_mof_unit_2567.cif
_audit_creation_date              2013-03-05T16:03:22-0500
_audit_creation_method            fapswitch 2.2
_symmetry_space_group_name_H-M    P1
_symmetry_Int_Tables_number       1
_space_group_crystal_system       triclinic
_cell_length_a                    27.672908
_cell_length_b                    11.722387
_cell_length_c                    10.460183
_cell_angle_alpha                 90.187814
_cell_angle_beta                  89.447796
_cell_angle_gamma                 89.6699
_cell_volume                      3392.97254341

loop_
_atom_site_label
_atom_site_type_symbol
_atom_site_description
_atom_site_fract_x
_atom_site_fract_y
_atom_site_fract_z
_atom_type_partial_charge
O1    O     O_R   0.500000 0.337200 0.605810 -0.558412
O2    O     O_R   0.500000 0.662800 0.394190 -0.565816
O3    O     O_R   0.500000 0.662800 0.605810 -0.575325
O4    O     O_R   0.500000 0.337200 0.394190 -0.577564
C1    C     C_R   0.499963 0.283306 0.499840 0.821492
C2    C     C_R   0.499981 0.716697 0.500161 0.832365
O5    O     O_R   0.430260 0.500000 0.605800 -0.526717
O6    O     O_R   0.569740 0.500000 0.394200 -0.558519
O7    O     O_R   0.569740 0.500000 0.605800 -0.574863
O8    O     O_R   0.430260 0.500000 0.394200 -0.577638
C3    C     C_R   0.407119 0.499343 0.500689 0.892035
C4    C     C_R   0.592739 0.498625 0.499339 0.915902
Cu1   Cu    Cu3+1 0.500000 0.500000 0.625300 1.033463
Cu2   Cu    Cu3+1 0.500000 0.500000 0.374700 1.018134
C5    C     C_R   0.179256 0.395888 0.394465 0.654397
C6    C     C_R   0.821995 0.493933 0.600512 0.705951
C7    C     C_R   0.178642 0.436880 0.617822 0.630399
C8    C     C_R   0.823256 0.443595 0.379481 0.587965
O9    O     O_2   0.204705 0.381482 0.284861 -0.434330
O10   O     O_2   0.795682 0.521271 0.705608 -0.447821
O11   O     O_2   0.203985 0.456334 0.725124 -0.472473
O12   O     O_2   0.798175 0.420035 0.272875 -0.554391
N1    N     N_R   0.202949 0.423796 0.504134 -0.437988
N2    N     N_R   0.798623 0.469944 0.489434 -0.423845
C9    C     C_R   0.273123 0.537112 0.434817 0.434837
C10   C     C_R   0.719846 0.382471 0.532659 0.415631
C11   C     C_R   0.285462 0.367582 0.565362 0.365609
C12   C     C_R   0.723459 0.574820 0.444785 0.322681
C13   C     C_R   0.323260 0.556099 0.430811 0.213431
C14   C     C_R   0.669277 0.388939 0.538734 0.220493
C15   C     C_R   0.335094 0.394143 0.575014 0.237259
C16   C     C_R   0.672488 0.583267 0.452469 0.249994
C17   C     C_R   0.254408 0.442086 0.500086 0.027093
C18   C     C_R   0.746749 0.475520 0.488013 0.060485
C19   C     C_R   0.102572 0.411781 0.507653 -0.194019
C20   C     C_R   0.899086 0.459845 0.493219 -0.192342
C21   C     C_R   0.128622 0.384137 0.395148 -0.099381
C22   C     C_R   0.872935 0.490581 0.605092 -0.099446
C23   C     C_R   0.127654 0.432872 0.622252 -0.143509
C24   C     C_R   0.874241 0.441042 0.377609 -0.118810
C25   C     C_R   0.103801 0.338410 0.289956 0.333589
C26   C     C_R   0.898271 0.522314 0.715991 0.314773
C27   C     C_R   0.101063 0.443107 0.737962 0.290028
C28   C     C_R   0.901134 0.428785 0.262757 0.271194
C29   C     C_R   0.354321 0.484907 0.502927 -0.291697
C30   C     C_R   0.645577 0.489647 0.496936 -0.282263
C31   C     C_R   0.976281 0.420897 0.383396 0.013869
C32   C     C_R   0.025398 0.443905 0.619146 0.009020
C33   C     C_R   0.974898 0.467373 0.612723 0.040737
C34   C     C_R   0.026694 0.395890 0.390264 0.042131
C35   C     C_R   0.950103 0.447357 0.496981 -0.098137
C36   C     C_R   0.051451 0.417894 0.505518 -0.097889
C37   C     C_R   0.951957 0.431903 0.265267 0.443078
C38   C     C_R   0.050244 0.436873 0.736883 0.444519
C39   C     C_R   0.949359 0.523094 0.713409 0.361366
C40   C     C_R   0.052584 0.341098 0.289046 0.360546
C41   C     C_1   0.499964 0.161957 0.499615 -0.145743
C42   C     C_1   0.499977 0.838059 0.500394 -0.148061
C43   C     C_1   0.499966 0.059734 0.499813 0.019160
C44   C     C_1   0.499972 0.940285 0.500204 0.017078
N3    N     N_1   0.500000 0.500000 0.186410 -0.135299
N4    N     N_1   0.500000 0.500000 0.813590 -0.132021
C45   C     C_1   0.499998 0.499997 0.072039 0.116282
C46   C     C_1   0.499998 0.499996 0.927961 0.121810
O13   O     O_3   0.365904 0.330599 0.650531 -0.705839
H1    H     H_    0.346679 0.284291 0.711280 0.358500
O14   O     O_3   0.647995 0.682344 0.421276 -0.719376
H2    H     H_    0.671052 0.746492 0.417476 0.350744
O15   O     O_3   0.339831 0.646046 0.357560 -0.687180
H3    H     H_    0.373183 0.665554 0.382164 0.319987
O16   O     O_3   0.644939 0.295235 0.586512 -0.688495
H4    H     H_    0.609811 0.303603 0.573196 0.316269
O17   O     O_3   0.266067 0.272630 0.625337 -0.561943
C47   C     C_3   0.281867 0.171272 0.562931 0.035274
H5    H     H_    0.282400 0.102207 0.635399 0.178736
H6    H     H_    0.319314 0.176304 0.523068 0.153048
C48   C     C_3   0.246912 0.137527 0.457021 -0.343349
H7    H     H_    0.210115 0.125759 0.498292 0.233059
H8    H     H_    0.245501 0.206101 0.384531 0.256531
C49   C     C_3   0.263318 0.027737 0.390614 -0.885190
H9    H     H_    0.298440 0.041041 0.340708 0.270279
H10   H     H_    0.236056 0.002022 0.319026 0.266944
H11   H     H_    0.267528 0.958184 0.461348 0.244143
O18   O     O_3   0.751373 0.665243 0.402753 -0.602231
C50   C     C_3   0.749920 0.671766 0.267614 0.076906
H12   H     H_    0.720734 0.731599 0.238842 0.150283
H13   H     H_    0.743115 0.587832 0.220547 0.188215
C51   C     C_3   0.798217 0.717668 0.218263 -0.343688
H14   H     H_    0.803578 0.805527 0.255468 0.218995
H15   H     H_    0.828182 0.663068 0.253483 0.250121
C52   C     C_3   0.800167 0.719763 0.072422 -0.769059
H16   H     H_    0.796370 0.632067 0.033311 0.305996
H17   H     H_    0.835469 0.754402 0.040043 0.259815
H18   H     H_    0.770814 0.774818 0.034694 0.244677
O19   O     O_3   0.242123 0.605506 0.364928 -0.537444
C53   C     C_3   0.235973 0.713439 0.424421 0.123930
H19   H     H_    0.231125 0.777057 0.347072 0.189295
H20   H     H_    0.267769 0.741688 0.480900 0.136902
C54   C     C_3   0.190677 0.714176 0.509772 -0.414107
H21   H     H_    0.159910 0.676420 0.457075 0.244591
H22   H     H_    0.197628 0.662217 0.596090 0.228293
C55   C     C_3   0.176992 0.834700 0.552765 -0.868624
H23   H     H_    0.206690 0.872798 0.609066 0.258979
H24   H     H_    0.144041 0.831547 0.614068 0.270402
H25   H     H_    0.169335 0.889351 0.468716 0.263008
O20   O     O_3   0.743637 0.287380 0.579181 -0.550738
C56   C     C_3   0.745459 0.202900 0.482602 0.078554
H26   H     H_    0.764394 0.235259 0.395694 0.155460
H27   H     H_    0.708385 0.175356 0.456323 0.180841
C57   C     C_3   0.773264 0.099424 0.532301 -0.308185
H28   H     H_    0.810623 0.125367 0.556992 0.227090
H29   H     H_    0.755202 0.067068 0.620266 0.247896
C58   C     C_3   0.775634 0.003818 0.432936 -0.896045
H30   H     H_    0.738674 0.974845 0.408658 0.263762
H31   H     H_    0.796102 0.930257 0.472081 0.277117
H32   H     H_    0.794271 0.033628 0.344745 0.254637
O21   O     O_3   0.130023 0.285004 0.193738 -0.650217
H33   H     H_    0.113116 0.214056 0.169433 0.328492
O22   O     O_3   0.872958 0.556047 0.824397 -0.673205
H34   H     H_    0.893492 0.543357 0.900233 0.351399
O23   O     O_3   0.123791 0.455669 0.853442 -0.656296
H35   H     H_    0.138044 0.533110 0.852150 0.360084
O24   O     O_3   0.878659 0.421254 0.146411 -0.700270
H36   H     H_    0.864321 0.343946 0.143611 0.364829
O25   O     O_3   0.978386 0.456301 0.155664 -0.681809
H37   H     H_    0.956594 0.471619 0.083143 0.380527
O26   O     O_3   0.024307 0.415831 0.848176 -0.670132
H38   H     H_    0.046432 0.405742 0.921057 0.379236
O27   O     O_3   0.974724 0.589725 0.798891 -0.692868
H39   H     H_    0.953149 0.649711 0.834863 0.332831
O28   O     O_3   0.027310 0.281088 0.197782 -0.697501
H40   H     H_    0.045313 0.284180 0.115640 0.352636

loop_
_geom_bond_atom_site_label_1
_geom_bond_atom_site_label_2
_geom_bond_distance
_ccdc_geom_bond_type
C12   O18   1.385458 S    
O17   C47   1.418600 S    
C2    C42   1.422638 S    
C19   C23   1.412766 A    
O19   C53   1.416811 S    
O3    C2    1.274765 A    
C10   O20   1.383501 S    
C14   O16   1.384045 S    
O24   H36   0.991838 S    
C48   H7    1.111698 S    
C11   C17   1.405010 A    
C5    O9    1.349342 S    
C7    N1    1.368337 A    
C47   H6    1.115228 S    
O1    C1    1.274068 A    
C19   C21   1.409979 A    
O27   H39   0.990748 S    
C32   C36   1.415639 A    
C50   H12   1.111024 S    
C26   O22   1.382550 S    
C50   C51   1.529399 S    
O20   C56   1.412696 S    
C42   C44   1.198349 T    
C53   C54   1.531863 S    
N1    C17   1.441538 S    
C55   H25   1.110839 S    
C7    C23   1.412366 A    
N3    C45   1.196346 T    
O7    Cu1   1.938699 S    
C57   H28   1.111861 S    
C5    C21   1.408675 A    
C20   C24   1.414111 A    
N4    C46   1.196344 T    
C57   H29   1.111725 S    
C55   H23   1.110635 S    
C28   C37   1.407581 A    
C10   C18   1.402876 A    
Cu1   N4    1.969549 S    
C39   O27   1.384242 S    
C47   C48   1.530250 S    
C53   H20   1.115779 S    
C34   C36   1.416064 A    
C56   H26   1.113666 S    
C27   O23   1.375123 S    
O3    Cu1   1.919927 S    
O6    C4    1.276053 A    
C31   C37   1.418674 A    
C58   H32   1.110920 S    
C5    N1    1.366534 A    
C12   C18   1.405426 A    
C43   C44   1.400244 S    
C6    N2    1.364488 A    
Cu1   Cu2   2.621322 S    
O4    Cu2   1.919928 S    
C56   H27   1.114017 S    
O2    C2    1.274085 A    
C49   H11   1.109182 S    
O5    C3    1.277723 A    
C31   C34   1.426440 A    
C13   O15   1.383191 S    
C50   H13   1.116550 S    
C9    C13   1.406682 A    
C47   H5    1.111029 S    
C11   C15   1.414535 A    
O14   H2    0.989623 S    
C12   C16   1.414903 A    
O18   C50   1.416837 S    
C49   H10   1.110310 S    
O8    Cu2   1.938702 S    
C52   H16   1.111099 S    
O4    C1    1.274747 A    
C31   C35   1.418102 A    
C33   C35   1.416893 A    
C33   C39   1.418156 A    
Cu2   N3    1.969548 S    
C34   C40   1.422108 A    
C13   C29   1.418704 A    
C32   C38   1.418656 A    
C25   C40   1.417622 A    
C26   C39   1.413831 A    
C52   H17   1.110415 S    
C27   C38   1.408777 A    
C54   H21   1.111949 S    
C51   C52   1.526238 S    
O5    Cu1   1.942612 S    
C6    O10   1.349430 S    
C53   H19   1.110711 S    
C48   H8    1.107635 S    
C55   H24   1.110534 S    
C57   C58   1.526707 S    
O23   H35   0.991934 S    
C20   C35   1.419475 A    
C37   O25   1.385454 S    
C16   O14   1.382906 S    
C4    C30   1.465327 S    
C32   C33   1.425011 A    
C54   H22   1.108512 S    
C51   H15   1.110997 S    
C10   C14   1.401830 A    
O25   H37   0.989851 S    
C56   C57   1.527993 S    
C8    N2    1.364917 A    
C3    C29   1.471768 S    
O1    Cu1   1.918598 S    
O28   H40   0.989914 S    
C58   H30   1.111029 S    
C48   C49   1.525226 S    
C15   O13   1.383934 S    
O6    Cu2   1.942609 S    
C8    O12   1.347823 S    
C16   C30   1.407645 A    
C14   C30   1.419494 A    
C49   H9    1.110848 S    
C23   C27   1.414814 A    
O22   H34   0.991357 S    
C9    O19   1.386055 S    
C38   O26   1.385303 S    
C28   O24   1.374861 S    
C1    C41   1.422498 S    
C20   C22   1.414496 A    
O16   H4    0.987720 S    
O21   H33   0.990261 S    
C52   H18   1.110791 S    
C21   C25   1.408825 A    
O15   H3    0.988437 S    
O2    Cu2   1.918599 S    
O7    C4    1.277311 A    
N2    C18   1.436846 S    
C40   O28   1.381837 S    
C41   C43   1.198303 T    
O8    C3    1.279563 A    
C45   C46   1.507074 S    
C22   C26   1.411193 A    
C24   C28   1.413579 A    
C54   C55   1.525826 S    
C8    C24   1.410983 A    
C51   H14   1.111055 S    
O13   H1    0.990236 S    
C15   C29   1.409874 A    
C9    C17   1.407118 A    
C19   C36   1.416449 A    
C25   O21   1.381305 S    
C11   O17   1.387621 S    
O26   H38   0.989335 S    
C6    C22   1.411278 A    
C58   H31   1.110516 S    
C7    O11   1.348678 S    
