data_mof_unit_4378.cif
_audit_creation_date              2012-12-10T19:03:07-0500
_audit_creation_method            fapswitch 2.2
_symmetry_space_group_name_H-M    P1
_symmetry_Int_Tables_number       1
_space_group_crystal_system       triclinic
_cell_length_a                    10.805329
_cell_length_b                    10.855896
_cell_length_c                    9.536324
_cell_angle_alpha                 91.526319
_cell_angle_beta                  89.855723
_cell_angle_gamma                 91.14706
_cell_volume                      1118.0021917

loop_
_atom_site_label
_atom_site_type_symbol
_atom_type_description
_atom_site_fract_x
_atom_site_fract_y
_atom_site_fract_z
_atom_type_partial_charge
C1    C     C_R   0.494087 0.262323 0.498020 0.799495
C2    C     C_3   0.878995 0.488368 0.499295 -0.048222
C3    C     C_3   0.927045 0.624532 0.493439 -0.382121
C4    C     C_3   0.932138 0.416689 0.364678 -0.031568
C5    C     C_R   0.472804 0.068280 0.621156 0.081297
C6    C     C_R   0.475267 0.129239 0.494673 -0.126992
C7    C     C_R   0.454609 0.058955 0.369199 0.147872
C8    C     C_R   0.456054 0.929639 0.374346 -0.255760
C9    C     C_R   0.477091 0.870660 0.501829 -0.134186
C10   C     C_R   0.471768 0.941887 0.625753 0.121216
C11   C     C_3   0.549641 0.946347 0.755260 -0.486117
C12   C     C_R   0.260238 0.498618 0.500071 0.762220
C13   C     C_3   0.552024 0.085354 0.747771 -0.438404
C14   C     C_R   0.595487 0.553883 0.075071 0.279415
C15   C     C_R   0.411816 0.436630 0.072792 -0.074150
C16   C     C_R   0.411531 0.436998 0.923796 -0.081484
C17   C     C_R   0.596819 0.551557 0.927589 0.226792
C18   C     C_3   0.638266 0.682244 0.924124 -0.523031
C19   C     C_3   0.634941 0.686143 0.082769 -0.492423
C20   C     C_R   0.495421 0.737887 0.501390 0.806943
C21   C     C_R   0.740031 0.491327 0.499529 0.770256
C22   C     C_3   0.075023 0.431782 0.632856 -0.389334
C23   C     C_3   0.931275 0.423245 0.637122 0.333508
C24   C     C_3   0.071417 0.633947 0.493741 0.334033
C25   C     C_3   0.075447 0.417035 0.373260 -0.465129
C26   C     C_3   0.122807 0.497827 0.499947 -0.009459
Cu1   Cu    Cu3+1 0.499990 0.499980 0.640670 0.919916
Cu2   Cu    Cu3+1 0.500010 0.500020 0.359330 0.927291
H1    H     H_    0.111597 0.478178 0.729910 0.181346
H2    H     H_    0.888593 0.666415 0.398585 0.152120
H3    H     H_    0.445669 0.875982 0.277752 0.155046
H4    H     H_    0.495945 0.916780 0.848336 0.190531
H5    H     H_    0.642080 0.904886 0.739185 0.199711
H6    H     H_    0.502534 0.131759 0.836202 0.202207
H7    H     H_    0.645237 0.124370 0.723612 0.203279
H8    H     H_    0.339266 0.387177 0.127368 0.131998
H9    H     H_    0.116446 0.338659 0.634649 0.154535
H10   H     H_    0.338658 0.387967 0.866677 0.133808
H11   H     H_    0.732533 0.694258 0.879412 0.188350
H12   H     H_    0.565656 0.736718 0.877077 0.223672
H13   H     H_    0.727726 0.701416 0.130424 0.182776
H14   H     H_    0.561874 0.746959 0.125551 0.209196
H15   H     H_    0.887263 0.682378 0.579299 0.149915
H16   H     H_    0.120223 0.447711 0.275128 0.179039
H17   H     H_    0.106669 0.320544 0.384234 0.148263
H18   H     H_    0.900691 0.319368 0.371849 0.153265
N1    N     N_R   0.500800 0.500930 0.147930 -0.185648
N2    N     N_R   0.500800 0.500890 0.852020 -0.182866
O1    O     O_R   0.500000 0.319640 0.618810 -0.587916
O2    O     O_R   0.500010 0.319680 0.381230 -0.556665
O3    O     O_R   0.317690 0.499960 0.618790 -0.595930
O4    O     O_R   0.317700 0.500000 0.381210 -0.602622
O5    O     O_R   0.499990 0.680320 0.618770 -0.577375
O6    O     O_R   0.500000 0.680360 0.381190 -0.588098
O7    O     O_R   0.682300 0.500000 0.618790 -0.589818
O8    O     O_R   0.682310 0.500040 0.381210 -0.573389
C27   C     C_3   0.889727 0.457416 0.215764 -0.338318
C28   C     C_3   0.812805 0.356284 0.139774 -0.834385
H19   H     H_    0.869598 0.273166 0.121679 0.238561
H20   H     H_    0.729607 0.330380 0.201595 0.280024
H21   H     H_    0.782486 0.389261 0.036970 0.226676
H22   H     H_    0.838036 0.543730 0.219711 0.213659
H23   H     H_    0.968400 0.478495 0.144822 0.190946
C29   C     C_3   0.117159 0.701521 0.359146 -0.353459
C30   C     C_3   0.085023 0.838621 0.357642 -0.836216
H24   H     H_    0.984009 0.852422 0.368242 0.245288
H25   H     H_    0.133789 0.890718 0.443486 0.268068
H26   H     H_    0.115816 0.877722 0.256626 0.227776
H27   H     H_    0.219295 0.698067 0.350195 0.208418
H28   H     H_    0.077794 0.656029 0.263245 0.181721
N3    N     N_3   0.437924 0.117543 0.237313 -0.566038
H29   H     H_    0.350906 0.157980 0.240136 0.204765
H30   H     H_    0.435631 0.052311 0.154619 0.201572
C31   C     C_3   0.889726 0.283354 0.640283 -0.393479
C32   C     C_3   0.911452 0.221459 0.780617 -0.831583
H31   H     H_    0.004130 0.246134 0.824065 0.256385
H32   H     H_    0.839072 0.247874 0.857378 0.250261
H33   H     H_    0.905071 0.119755 0.765129 0.233100
H34   H     H_    0.789880 0.272913 0.614437 0.181530
H35   H     H_    0.941214 0.228170 0.560706 0.179483
N4    N     N_3   0.892607 0.484132 0.770336 -0.589056
H36   H     H_    0.892062 0.579629 0.765795 0.197520
H37   H     H_    0.806342 0.452687 0.804789 0.252273
N5    N     N_3   0.112451 0.709835 0.616416 -0.592742
H38   H     H_    0.078707 0.675370 0.710357 0.207277
H39   H     H_    0.209044 0.714305 0.621809 0.219368

loop_
_geom_bond_atom_site_label_1
_geom_bond_atom_site_label_2
_ccdc_geom_bond_type
Cu1   N2    S    
Cu2   N1    S    
C22   H1    S    
C11   C13   S    
C17   N2    A    
C15   N1    A    
C18   H11   S    
C16   N2    A    
C4    C25   S    
Cu2   O8    S    
C7    C8    A    
C4    H18   S    
C3    H15   S    
C24   C26   S    
C13   H7    S    
C7    N3    S    
C5    C6    A    
Cu1   O7    S    
C28   H20   S    
C15   C16   A    
C18   C19   S    
C18   H12   S    
C12   O4    A    
Cu2   O2    S    
C8    C9    A    
C30   H25   S    
C4    C27   S    
C29   H28   S    
C1    O2    A    
C5    C13   S    
C19   H14   S    
C28   H21   S    
C24   C29   S    
C31   H35   S    
C14   C17   A    
C3    C24   S    
C25   H16   S    
C5    C10   A    
N4    H37   S    
Cu1   O3    S    
C27   H23   S    
C31   C32   S    
C1    C6    S    
C27   H22   S    
N5    H38   S    
C20   O6    A    
C21   O7    A    
Cu2   O6    S    
C25   C26   S    
C22   H9    S    
N4    H36   S    
C12   C26   S    
C3    H2    S    
C2    C4    S    
C32   H31   S    
C9    C20   S    
C11   H5    S    
C30   H26   S    
C2    C21   S    
C17   C18   S    
C29   H27   S    
C32   H32   S    
C6    C7    A    
C11   H4    S    
C31   H34   S    
C28   H19   S    
C23   C31   S    
C25   H17   S    
C15   H8    S    
C2    C23   S    
C12   O3    A    
N3    H30   S    
C9    C10   A    
C23   N4    S    
C8    H3    S    
C14   C19   S    
N5    H39   S    
C20   O5    A    
C21   O8    A    
Cu1   O5    S    
C14   N1    A    
C29   C30   S    
C2    C3    S    
C24   N5    S    
C13   H6    S    
Cu2   O4    S    
C27   C28   S    
C32   H33   S    
C10   C11   S    
C19   H13   S    
N3    H29   S    
C30   H24   S    
C22   C26   S    
Cu1   Cu2   S    
C22   C23   S    
C1    O1    A    
Cu1   O1    S    
C16   H10   S    
