data_mof_unit_2598.cif
_audit_creation_date              2013-03-05T16:15:19-0500
_audit_creation_method            fapswitch 2.2
_symmetry_space_group_name_H-M    P1
_symmetry_Int_Tables_number       1
_space_group_crystal_system       triclinic
_cell_length_a                    27.735968
_cell_length_b                    10.660431
_cell_length_c                    9.515598
_cell_angle_alpha                 90.764112
_cell_angle_beta                  88.758772
_cell_angle_gamma                 91.55983
_cell_volume                      2811.61580628

loop_
_atom_site_label
_atom_site_type_symbol
_atom_site_description
_atom_site_fract_x
_atom_site_fract_y
_atom_site_fract_z
_atom_type_partial_charge
O1    O     O_R   0.500020 0.316850 0.620870 -0.600062
O2    O     O_R   0.499980 0.683150 0.379130 -0.581508
O3    O     O_R   0.500000 0.316860 0.379090 -0.544700
O4    O     O_R   0.500000 0.683140 0.620910 -0.527542
C1    C     C_R   0.499007 0.259884 0.499199 0.821228
C2    C     C_R   0.499682 0.740083 0.500427 0.851355
O5    O     O_R   0.430270 0.500020 0.620880 -0.563386
O6    O     O_R   0.569730 0.499980 0.379120 -0.524027
O7    O     O_R   0.430250 0.500030 0.379090 -0.517112
O8    O     O_R   0.569750 0.499970 0.620910 -0.580868
C3    C     C_R   0.407510 0.494962 0.500899 0.836732
C4    C     C_R   0.592495 0.496489 0.498867 0.811786
Cu1   Cu    Cu3+1 0.500010 0.499990 0.643150 1.041164
Cu2   Cu    Cu3+1 0.499990 0.500010 0.356850 1.069250
C5    C     C_R   0.178213 0.368720 0.445794 0.640548
C6    C     C_R   0.819878 0.546473 0.457310 0.621964
O9    O     O_2   0.204633 0.266929 0.415722 -0.501536
O10   O     O_2   0.794289 0.652303 0.453873 -0.536290
N1    N     N_R   0.200710 0.479005 0.485800 -0.436736
N2    N     N_R   0.796432 0.432200 0.469648 -0.429371
C7    C     C_R   0.175221 0.585444 0.510025 0.587204
C8    C     C_R   0.821289 0.323003 0.464736 0.604868
C9    C     C_R   0.279323 0.544836 0.390466 -0.193345
C10   C     C_R   0.715586 0.380316 0.385146 -0.157237
C11   C     C_R   0.329501 0.553667 0.395836 0.205934
C12   C     C_R   0.665157 0.390530 0.394372 0.237410
C13   C     C_R   0.326543 0.416027 0.600681 0.147989
C14   C     C_R   0.676017 0.529656 0.600332 0.105238
C15   C     C_R   0.275780 0.427853 0.607597 0.326726
C16   C     C_R   0.723714 0.487673 0.609772 0.327416
C17   C     C_R   0.252320 0.484105 0.495645 0.166619
C18   C     C_R   0.744898 0.429378 0.490851 0.154605
C19   C     C_R   0.100740 0.468769 0.462922 -0.042726
C20   C     C_R   0.896815 0.443716 0.449816 -0.039316
C21   C     C_R   0.127755 0.360603 0.437643 -0.030139
C22   C     C_R   0.870379 0.554509 0.450919 -0.017746
C23   C     C_R   0.103937 0.247022 0.405068 -0.117126
C24   C     C_R   0.894781 0.670887 0.447681 -0.124761
C25   C     C_R   0.124873 0.582812 0.496836 -0.031431
C26   C     C_R   0.871951 0.326723 0.452722 -0.027009
C27   C     C_R   0.353953 0.488877 0.501038 -0.133270
C28   C     C_R   0.645300 0.474672 0.496436 -0.192457
H1    H     H_    0.123946 0.162896 0.382876 0.191543
H2    H     H_    0.875256 0.757465 0.445252 0.189157
C29   C     C_R   0.974354 0.337833 0.438338 0.045009
C30   C     C_R   0.023190 0.574314 0.471040 0.044515
C31   C     C_R   0.972369 0.568775 0.456510 0.044916
C32   C     C_R   0.025590 0.345275 0.431602 0.043204
C33   C     C_R   0.948035 0.450087 0.447561 0.075493
C34   C     C_R   0.049663 0.462816 0.454790 0.077458
C35   C     C_R   0.948341 0.221738 0.439413 -0.192383
C36   C     C_R   0.048492 0.687388 0.504784 -0.195705
C37   C     C_R   0.898164 0.216563 0.447483 -0.130663
C38   C     C_R   0.098304 0.691114 0.518309 -0.128668
O11   O     O_2   0.797200 0.211660 0.474062 -0.522268
O12   O     O_2   0.198545 0.693280 0.546844 -0.513166
C39   C     C_R   0.053825 0.239046 0.403066 -0.194798
C40   C     C_R   0.944807 0.678155 0.451158 -0.195505
H3    H     H_    0.732788 0.331372 0.298309 0.184966
H4    H     H_    0.260841 0.589778 0.306344 0.181747
H5    H     H_    0.879983 0.125357 0.450488 0.187203
H6    H     H_    0.115928 0.779750 0.545780 0.191743
H7    H     H_    0.965816 0.132688 0.439619 0.137093
H8    H     H_    0.030570 0.774176 0.526566 0.141198
H9    H     H_    0.038222 0.148572 0.375563 0.140335
H10   H     H_    0.960977 0.771158 0.446817 0.137406
C41   C     C_3   0.501841 0.044357 0.632000 -0.167959
C42   C     C_3   0.494798 0.955140 0.365117 -0.174064
C43   C     C_3   0.538682 0.964277 0.551536 0.420987
C44   C     C_3   0.457861 0.035863 0.444660 0.369299
H11   H     H_    0.505618 0.081472 0.740920 0.220445
H12   H     H_    0.491214 0.917528 0.256334 0.215522
C45   C     C_3   0.498490 0.876723 0.499597 -0.156831
C46   C     C_3   0.498218 0.123150 0.497719 -0.153230
C47   C     C_3   0.460369 0.955989 0.577653 -0.285114
C48   C     C_3   0.535985 0.043770 0.419010 -0.248923
H13   H     H_    0.429024 0.918581 0.640045 0.194624
H14   H     H_    0.567370 0.079312 0.355787 0.179191
C49   C     C_3   0.474799 0.592047 0.055091 -0.213658
C50   C     C_3   0.525528 0.408091 0.945453 -0.263211
C51   C     C_3   0.457205 0.487784 0.954962 0.327181
C52   C     C_3   0.542842 0.513439 0.045827 0.317350
H15   H     H_    0.453647 0.668503 0.104356 0.190250
H16   H     H_    0.546736 0.331555 0.896445 0.204662
N3    N     N_3   0.500040 0.499970 0.858290 -0.278746
N4    N     N_3   0.499960 0.500030 0.141710 -0.280917
C53   C     C_3   0.517821 0.602934 0.951527 0.335552
C54   C     C_3   0.482051 0.397505 0.048853 0.309134
N5    N     N_2   0.349125 0.326519 0.687801 -0.347499
H17   H     H_    0.385770 0.317974 0.675109 0.282428
C55   C     C_3   0.325089 0.204839 0.707173 -0.377568
H18   H     H_    0.352189 0.130206 0.712914 0.205626
H19   H     H_    0.300812 0.180677 0.618776 0.229363
H20   H     H_    0.304330 0.204185 0.808051 0.267133
N6    N     N_2   0.660867 0.631754 0.688951 -0.355717
H21   H     H_    0.625467 0.655668 0.681866 0.314956
C56   C     C_3   0.692045 0.743522 0.685895 -0.356520
H22   H     H_    0.696800 0.777611 0.576526 0.238123
H23   H     H_    0.728001 0.726069 0.728581 0.233005
H24   H     H_    0.675871 0.818451 0.752243 0.265652
N7    N     N_R   0.407536 0.480881 0.908807 0.142977
O13   O     O_R   0.388433 0.581458 0.860885 -0.329201
O14   O     O_R   0.379188 0.389957 0.952954 -0.281731
N8    N     N_R   0.591676 0.535047 0.095478 0.178753
O15   O     O_R   0.626132 0.465375 0.046827 -0.304378
O16   O     O_R   0.602604 0.638532 0.162977 -0.270360
N9    N     N_R   0.537075 0.721433 0.896812 0.160956
O17   O     O_R   0.583210 0.745674 0.898597 -0.285570
O18   O     O_R   0.507893 0.812764 0.877381 -0.331580
N10   N     N_R   0.460598 0.282821 0.106202 0.171412
O19   O     O_R   0.421686 0.287776 0.184390 -0.225183
O20   O     O_R   0.479645 0.175107 0.077416 -0.341108
N11   N     N_R   0.249191 0.391469 0.732797 0.129018
O21   O     O_R   0.208088 0.330294 0.726256 -0.343601
O22   O     O_R   0.265894 0.422704 0.855518 -0.275807
N12   N     N_R   0.749266 0.500743 0.740541 0.129669
O23   O     O_R   0.795018 0.478212 0.746958 -0.349308
O24   O     O_R   0.725110 0.513857 0.858440 -0.270960
N13   N     N_2   0.634121 0.317471 0.304010 -0.375362
H25   H     H_    0.601897 0.288843 0.350700 0.236325
C57   C     C_3   0.654103 0.221367 0.212561 -0.527189
H26   H     H_    0.672138 0.149942 0.275536 0.224198
H27   H     H_    0.679793 0.263785 0.134511 0.263373
H28   H     H_    0.624619 0.174027 0.153046 0.236347
N14   N     N_2   0.355233 0.625465 0.292141 -0.396332
H29   H     H_    0.338711 0.627254 0.196077 0.294752
C58   C     C_3   0.370786 0.749253 0.339256 -0.558332
H30   H     H_    0.394569 0.792499 0.257106 0.247923
H31   H     H_    0.391589 0.744344 0.437326 0.195182
H32   H     H_    0.339067 0.809168 0.358193 0.251679
N15   N     N_R   0.584149 0.923469 0.604977 0.130856
O25   O     O_R   0.612679 0.859800 0.522717 -0.395986
O26   O     O_R   0.599435 0.966185 0.725092 -0.314175
N16   N     N_R   0.413405 0.076835 0.383544 0.155126
O27   O     O_R   0.400701 0.035606 0.260222 -0.295900
O28   O     O_R   0.386992 0.158091 0.449773 -0.385175

loop_
_geom_bond_atom_site_label_1
_geom_bond_atom_site_label_2
_geom_bond_distance
_ccdc_geom_bond_type
C1    C46   1.457098 S    
C16   C18   1.408649 A    
N7    O13   1.301034 A    
C13   C15   1.417036 A    
C45   C47   1.543211 S    
N6    H21   1.024969 S    
C50   H16   1.110526 S    
N1    C17   1.436051 S    
N8    O16   1.301070 A    
C56   H22   1.110882 S    
C32   C39   1.414339 A    
C31   C33   1.420146 A    
C16   N12   1.448545 S    
O5    C3    1.316277 A    
C19   C25   1.408839 A    
C46   C48   1.540018 S    
C14   N6    1.434347 S    
O1    C1    1.300676 A    
N1    C7    1.367504 A    
C10   C12   1.406653 A    
N4    C54   1.478419 S    
C25   C38   1.396892 A    
C29   C35   1.415547 A    
C52   C53   1.510914 S    
C30   C36   1.414928 A    
O4    Cu1   1.966706 S    
N12   O23   1.300802 A    
C43   C48   1.532995 S    
C5    C21   1.403581 A    
C10   C18   1.394444 A    
C11   N14   1.424329 S    
N10   O19   1.299391 A    
C57   H28   1.110923 S    
C4    C28   1.488828 S    
C31   C40   1.413646 A    
C24   C40   1.388682 A    
C37   H5    1.083469 S    
C40   H10   1.077921 S    
C44   C46   1.526082 S    
N9    O17   1.298938 A    
C43   C45   1.520860 S    
N5    C55   1.454316 S    
C41   H11   1.110516 S    
C6    N2    1.370417 A    
C54   N10   1.452821 S    
N3    C53   1.482798 S    
N7    O14   1.299717 A    
Cu1   Cu2   2.724330 S    
C50   C54   1.542452 S    
N9    O18   1.300552 A    
O2    C2    1.296850 A    
C49   C53   1.533958 S    
N8    O15   1.299838 A    
C56   H23   1.106279 S    
C36   C38   1.389786 A    
C51   N3    1.490643 S    
N13   C57   1.449228 S    
C9    H4    1.083718 S    
C43   N15   1.449736 S    
C35   H7    1.077617 S    
C12   N13   1.436881 S    
Cu2   N4    2.047208 S    
C50   C52   1.538185 S    
C36   H8    1.077724 S    
C11   C27   1.418615 A    
C55   H18   1.111953 S    
C49   C51   1.530913 S    
C51   N7    1.454641 S    
C38   H6    1.083472 S    
N15   O26   1.300025 A    
C19   C34   1.420105 A    
C52   N4    1.488185 S    
N11   O22   1.301482 A    
C42   H12   1.110578 S    
C35   C37   1.391781 A    
C9    C17   1.392896 A    
C23   H1    1.083435 S    
O1    Cu1   1.961024 S    
C5    N1    1.369287 A    
O7    Cu2   1.941292 S    
C58   H31   1.110312 S    
C24   H2    1.083502 S    
C50   N3    1.493928 S    
C55   H19   1.112020 S    
O7    C3    1.308568 A    
C13   C27   1.427010 A    
C7    C25   1.404260 A    
C29   C33   1.419356 A    
O6    C4    1.316064 A    
C8    C26   1.406848 A    
C41   C46   1.545018 S    
C47   H13   1.110147 S    
C57   H26   1.111279 S    
C8    O11   1.349165 S    
O3    Cu2   1.966704 S    
O8    C4    1.310113 A    
O4    C2    1.304703 A    
N2    C8    1.368735 A    
N14   H29   1.031997 S    
C20   C26   1.408938 A    
C41   C47   1.559399 S    
C58   H30   1.108824 S    
C56   H24   1.109798 S    
C12   C28   1.425359 A    
C2    C45   1.458048 S    
C44   N16   1.454827 S    
N11   O21   1.300159 A    
N2    C18   1.438741 S    
C29   C32   1.421243 A    
C5    O9    1.349922 S    
C15   N11   1.439548 S    
C30   C31   1.418861 A    
C20   C33   1.420130 A    
O6    Cu2   1.950447 S    
C14   C28   1.428504 A    
C21   C23   1.397822 A    
C6    O10   1.350262 S    
C48   H14   1.108473 S    
O3    C1    1.300828 A    
O8    Cu1   1.941292 S    
C7    O12   1.349590 S    
N16   O28   1.297757 A    
N13   H25   1.029997 S    
N6    C56   1.453276 S    
N16   O27   1.300059 A    
C42   C48   1.553808 S    
C30   C34   1.418998 A    
C22   C24   1.397356 A    
C42   C45   1.544566 S    
C58   H32   1.111321 S    
C14   C16   1.413137 A    
C15   C17   1.409302 A    
C6    C22   1.401029 A    
C55   H20   1.108612 S    
C49   H15   1.110041 S    
C10   H3    1.080567 S    
C32   C34   1.420590 A    
C19   C21   1.407374 A    
N12   O24   1.302066 A    
C13   N5    1.437415 S    
C20   C22   1.406847 A    
C9    C11   1.394359 A    
O2    Cu2   1.961023 S    
N10   O20   1.300389 A    
C57   H27   1.110079 S    
C51   C54   1.511634 S    
O5    Cu1   1.950447 S    
C53   N9    1.456312 S    
C42   C44   1.536238 S    
C26   C37   1.397696 A    
C3    C27   1.485095 S    
Cu1   N3    2.047208 S    
C44   C47   1.538557 S    
N14   C58   1.445720 S    
C52   N8    1.455557 S    
C41   C43   1.534689 S    
N5    H17   1.027295 S    
C49   N4    1.487399 S    
C23   C39   1.390713 A    
N15   O25   1.299155 A    
C39   H9    1.077719 S    
