data_mof_unit_4093.cif
_audit_creation_date              2012-12-11T16:04:09-0500
_audit_creation_method            fapswitch 2.2
_symmetry_space_group_name_H-M    P1
_symmetry_Int_Tables_number       1
_space_group_crystal_system       triclinic
_cell_length_a                    19.873655
_cell_length_b                    19.925408
_cell_length_c                    20.04065
_cell_angle_alpha                 107.364752
_cell_angle_beta                  111.024248
_cell_angle_gamma                 110.06052
_cell_volume                      6101.37543617

loop_
_atom_site_label
_atom_site_type_symbol
_atom_type_description
_atom_site_fract_x
_atom_site_fract_y
_atom_site_fract_z
_atom_type_partial_charge
C1    C     C_R   0.069231 0.344323 0.076214 -0.062440
C2    C     C_R   0.069530 0.532968 0.236158 0.340518
C3    C     C_3   0.610209 0.139516 0.460611 0.185223
C4    C     C_3   0.596449 0.196779 0.428634 -0.888362
C5    C     C_3   0.640086 0.867820 0.362308 0.292597
C6    C     C_3   0.671494 0.808503 0.365169 -0.894215
C7    C     C_3   0.049102 0.075405 0.979443 -0.842186
C8    C     C_3   0.841783 0.013114 0.049257 -1.008809
C9    C     C_3   0.832520 0.026684 0.913048 0.299662
C10   C     C_3   0.840055 0.036446 0.843167 -0.944756
C11   C     C_3   0.026634 0.176982 0.286654 0.308351
C12   C     C_3   0.967641 0.182330 0.316907 -0.903176
C13   C     C_R   0.234564 0.721535 0.154331 0.533350
C14   C     C_3   0.151595 0.996912 0.243926 0.292005
C15   C     C_3   0.234202 0.042237 0.323969 -0.911682
C16   C     C_3   0.158086 0.150174 0.126316 -1.022503
C17   C     C_3   0.987876 0.981421 0.214059 -0.952345
C18   C     C_3   0.240969 0.367180 0.042356 0.298719
C19   C     C_3   0.231407 0.306672 0.074699 -0.943320
C20   C     C_3   0.157665 0.684016 0.836271 0.239924
C21   C     C_3   0.247316 0.754031 0.884596 -0.927088
C22   C     C_R   0.927033 0.502084 0.773644 -0.211299
C23   C     C_R   0.767442 0.422137 0.991380 0.257878
C24   C     C_R   0.279416 0.723241 0.227109 -0.096600
C25   C     C_R   0.718368 0.441842 0.942259 -0.043979
C26   C     C_R   0.999539 0.518486 0.242399 0.046169
C27   C     C_R   0.999282 0.743722 0.023340 -0.141541
C28   C     C_3   0.394534 0.340361 0.830300 -0.279388
C29   C     C_3   0.379852 0.340708 0.901407 0.623298
C30   C     C_R   0.993322 0.551890 0.773195 -0.079648
C31   C     C_1   0.278350 0.459008 0.958483 -0.040944
C32   C     C_1   0.631985 0.412030 0.912483 -0.007414
C33   C     C_3   0.388091 0.418927 0.844134 -0.396553
C34   C     C_R   0.806730 0.264631 0.834853 -0.117187
C35   C     C_3   0.374066 0.417796 0.914930 -0.044585
C36   C     C_3   0.482502 0.471850 0.907393 0.508290
C37   C     C_3   0.489141 0.394788 0.894307 0.000692
C38   C     C_3   0.468245 0.470043 0.976752 0.418121
C39   C     C_3   0.474266 0.392941 0.964854 -0.536003
C40   C     C_1   0.318885 0.437960 0.935685 0.067857
C41   C     C_R   0.785014 0.257808 0.758667 0.088254
C42   C     C_1   0.563055 0.396727 0.896767 0.050334
C43   C     C_3   0.898106 0.536555 0.505987 -0.624021
C44   C     C_3   0.022041 0.509406 0.554966 0.681845
C45   C     C_3   0.024840 0.505849 0.476618 0.226052
C46   C     C_R   0.205359 0.536694 0.968844 0.240718
C47   C     C_1   0.998017 0.539996 0.315007 -0.020760
C48   C     C_3   0.985998 0.567075 0.577112 0.213830
C49   C     C_3   0.900899 0.526582 0.427302 0.467168
C50   C     C_3   0.993727 0.560856 0.448511 0.013207
C51   C     C_3   0.044330 0.650953 0.517244 -0.395937
C52   C     C_R   0.231092 0.484867 0.986795 -0.150659
C53   C     C_3   0.045001 0.653751 0.595324 -0.473600
C54   C     C_1   0.996631 0.553702 0.376080 0.028713
C55   C     C_1   0.982405 0.571393 0.648755 0.015225
C56   C     C_1   0.985166 0.566442 0.707046 -0.074911
C57   C     C_3   0.514846 0.895453 0.498661 0.467214
C58   C     C_R   0.806250 0.333958 0.764613 -0.136125
C59   C     C_3   0.478939 0.977268 0.429538 -0.598889
C60   C     C_3   0.546495 0.055762 0.511979 1.002718
C61   C     C_1   0.738264 0.183486 0.685885 -0.073310
C62   C     C_3   0.499735 0.907919 0.422202 0.019684
C63   C     C_R   0.230451 0.655186 0.225765 -0.175058
C64   C     C_3   0.595766 0.972969 0.575811 0.015595
C65   C     C_3   0.623492 0.043642 0.553469 0.026538
C66   C     C_3   0.653115 0.013026 0.494001 -0.718711
C67   C     C_3   0.579277 0.932338 0.415527 0.391614
C68   C     C_1   0.691064 0.119767 0.625294 0.014445
C69   C     C_1   0.427939 0.834994 0.349619 0.012181
C70   C     C_R   0.201471 0.463851 0.035209 0.492271
C71   C     C_1   0.362135 0.780838 0.292051 -0.065725
C72   C     C_3   0.066482 0.077908 0.062925 0.498022
C73   C     C_3   0.909015 0.009760 0.026700 0.791878
C74   C     C_R   0.764476 0.485395 0.917232 0.358599
C75   C     C_3   0.915772 0.934921 0.029671 -0.569724
C76   C     C_1   0.002120 0.818710 0.055999 -0.050717
C77   C     C_3   0.000862 0.087592 0.088647 -0.037474
C78   C     C_3   0.062911 0.997368 0.057956 -0.478470
C79   C     C_3   0.006509 0.958398 0.088310 0.057016
C80   C     C_3   0.039370 0.020745 0.179224 0.649961
C81   C     C_3   0.032021 0.097482 0.177293 0.251593
C82   C     C_R   0.065837 0.580592 0.845762 0.530222
C83   C     C_1   0.004732 0.882409 0.076875 -0.064729
C84   C     C_1   0.000127 0.159880 0.087921 0.020732
C85   C     C_R   0.929942 0.469691 0.165535 -0.212620
C86   C     C_1   0.000290 0.214932 0.076119 -0.082163
C87   C     C_R   0.930681 0.274074 0.003849 -0.130907
C88   C     C_R   0.000075 0.273854 0.051262 0.052148
C89   C     C_3   0.724658 0.475774 0.833044 -0.887041
C90   C     C_3   0.151256 0.804569 0.063632 -0.887754
C91   C     C_3   0.829114 0.702795 0.921129 0.288541
C92   C     C_3   0.738104 0.662672 0.855857 -0.940738
C93   C     C_3   0.151516 0.554325 0.302389 -1.077038
C94   C     C_3   0.346441 0.824291 0.163509 0.258734
C95   C     C_3   0.366875 0.864374 0.114299 -0.934906
C96   C     C_R   0.068713 0.736331 0.036796 0.230742
C97   C     C_3   0.733458 0.349054 0.002390 -1.035447
C98   C     C_3   0.340568 0.212041 0.887346 0.284544
C99   C     C_3   0.277093 0.141459 0.886224 -0.906523
C100  C     C_3   0.588020 0.568173 0.100468 0.290013
C101  C     C_3   0.624914 0.645336 0.178310 -0.920418
C102  C     C_3   0.515489 0.598507 0.917050 0.267090
C103  C     C_3   0.579477 0.672415 0.922690 -0.919747
C104  C     C_3   0.135776 0.494321 0.632928 0.328297
C105  C     C_3   0.227131 0.545010 0.700997 -0.998229
C106  C     C_3   0.962687 0.421252 0.535785 -1.207061
C107  C     C_R   0.929215 0.666448 0.969662 0.485502
C108  C     C_3   0.168170 0.586622 0.516872 0.341807
C109  C     C_3   0.244385 0.578092 0.528999 -0.966330
C110  C     C_3   0.780059 0.519041 0.339550 0.294918
C111  C     C_3   0.745347 0.568768 0.310783 -0.910895
C112  C     C_3   0.590747 0.993636 0.654143 -0.852581
C113  C     C_3   0.403931 0.803147 0.499210 0.293668
C114  C     C_3   0.325742 0.789399 0.503361 -0.908857
C115  C     C_3   0.524004 0.137252 0.608097 0.364380
C116  C     C_3   0.498361 0.136032 0.670885 -1.000838
C117  C     C_3   0.242179 0.590073 0.938061 -0.867960
H1    H     H_    0.131088 0.368809 0.126234 0.160164
H2    H     H_    0.024319 0.696564 0.617542 0.179972
H3    H     H_    0.199143 0.564012 0.872043 0.229972
H4    H     H_    0.301983 0.594300 0.946042 0.221184
H5    H     H_    0.589657 0.082945 0.407525 0.093343
H6    H     H_    0.678042 0.170516 0.505208 0.125118
H7    H     H_    0.617421 0.255422 0.479785 0.256348
H8    H     H_    0.632687 0.209001 0.398199 0.208165
H9    H     H_    0.529112 0.168697 0.383865 0.257067
H10   H     H_    0.694766 0.929067 0.388813 0.086474
H11   H     H_    0.596139 0.846982 0.297445 0.088359
H12   H     H_    0.618174 0.746440 0.337948 0.261994
H13   H     H_    0.796962 0.216145 0.850588 0.098961
H14   H     H_    0.704072 0.806813 0.330338 0.214951
H15   H     H_    0.715889 0.828145 0.429327 0.254659
H16   H     H_    0.101748 0.079089 0.969926 0.221194
H17   H     H_    0.994461 0.017572 0.926203 0.268864
H18   H     H_    0.041616 0.127123 0.976164 0.236639
H19   H     H_    0.778111 0.964226 0.997811 0.222059
H20   H     H_    0.847064 0.001346 0.100831 0.275239
H21   H     H_    0.844990 0.072873 0.064894 0.245891
H22   H     H_    0.850200 0.086799 0.958784 0.095985
H23   H     H_    0.765958 0.983040 0.888198 0.109118
H24   H     H_    0.109882 0.678679 0.644480 0.194173
H25   H     H_    0.823688 0.977522 0.795966 0.265518
H26   H     H_    0.796862 0.056464 0.815129 0.214124
H27   H     H_    0.904779 0.083045 0.865994 0.258901
H28   H     H_    0.059981 0.235573 0.288049 0.097238
H29   H     H_    0.072688 0.167343 0.328341 0.100480
H30   H     H_    0.933947 0.124734 0.316714 0.252939
H31   H     H_    0.003671 0.233638 0.380007 0.210925
H32   H     H_    0.921489 0.192809 0.276786 0.259944
H33   H     H_    0.162475 0.969746 0.194621 0.106743
H34   H     H_    0.106661 0.947689 0.246518 0.110198
H35   H     H_    0.014602 0.685145 0.497590 0.225529
H36   H     H_    0.226366 0.070084 0.375564 0.258911
H37   H     H_    0.255754 0.999286 0.332749 0.213998
H38   H     H_    0.282259 0.090973 0.323378 0.260084
H39   H     H_    0.186366 0.146973 0.183138 0.268398
H40   H     H_    0.200504 0.149827 0.102319 0.260530
H41   H     H_    0.161096 0.209836 0.142695 0.251845
H42   H     H_    0.978504 0.919939 0.201944 0.212186
H43   H     H_    0.020294 0.020431 0.280991 0.254553
H44   H     H_    0.924436 0.972855 0.186623 0.248463
H45   H     H_    0.307241 0.399169 0.058938 0.140733
H46   H     H_    0.878183 0.581602 0.523463 0.219433
H47   H     H_    0.198364 0.331457 0.974858 0.106741
H48   H     H_    0.164788 0.269270 0.054349 0.255131
H49   H     H_    0.252705 0.265498 0.050621 0.234461
H50   H     H_    0.269260 0.339296 0.142357 0.264806
H51   H     H_    0.117021 0.708114 0.812584 0.119910
H52   H     H_    0.151494 0.635075 0.785516 0.138437
H53   H     H_    0.291216 0.733271 0.908778 0.256643
H54   H     H_    0.261518 0.776892 0.844321 0.218797
H55   H     H_    0.255999 0.804527 0.935750 0.265349
H56   H     H_    0.108775 0.684768 0.530563 0.133321
H57   H     H_    0.471058 0.988071 0.376685 0.138002
H58   H     H_    0.416556 0.957507 0.423975 0.234335
H59   H     H_    0.565946 0.943211 0.361763 0.016543
H60   H     H_    0.704166 0.002319 0.525316 0.226944
H61   H     H_    0.865925 0.445666 0.150466 0.148746
H62   H     H_    0.526958 0.843476 0.490090 0.009312
H63   H     H_    0.645687 0.956673 0.590263 0.120480
H64   H     H_    0.683566 0.058258 0.478146 0.153831
H65   H     H_    0.038465 0.952507 0.994164 0.180634
H66   H     H_    0.795697 0.348787 0.715555 0.109293
H67   H     H_    0.893612 0.889170 0.967054 0.202226
H68   H     H_    0.872860 0.901412 0.046528 0.170324
H69   H     H_    0.095859 0.152204 0.216634 0.077958
H70   H     H_    0.126526 0.007389 0.092998 0.186440
H71   H     H_    0.866968 0.233726 0.985076 0.094196
H72   H     H_    0.365906 0.286352 0.770774 0.142163
H73   H     H_    0.254346 0.631468 0.264336 0.152255
H74   H     H_    0.688462 0.410076 0.787506 0.209444
H75   H     H_    0.681067 0.499482 0.826046 0.260544
H76   H     H_    0.772301 0.506977 0.819740 0.258622
H77   H     H_    0.144003 0.853497 0.052030 0.216698
H78   H     H_    0.193790 0.831795 0.130017 0.232016
H79   H     H_    0.176630 0.782111 0.026778 0.311410
H80   H     H_    0.867874 0.732927 0.898798 0.088358
H81   H     H_    0.839330 0.748575 0.977184 0.120649
H82   H     H_    0.697074 0.632012 0.875673 0.282492
H83   H     H_    0.509293 0.381035 0.012766 0.156142
H84   H     H_    0.724590 0.709583 0.845719 0.220060
H85   H     H_    0.724873 0.617299 0.797698 0.257242
H86   H     H_    0.191227 0.621389 0.341384 0.255537
H87   H     H_    0.140959 0.526791 0.340871 0.271834
H88   H     H_    0.182644 0.528069 0.275894 0.252057
H89   H     H_    0.396071 0.809759 0.188410 0.119285
H90   H     H_    0.346990 0.868823 0.213365 0.085371
H91   H     H_    0.320909 0.882789 0.089404 0.257879
H92   H     H_    0.430013 0.919660 0.154162 0.211612
H93   H     H_    0.366431 0.821538 0.063599 0.266966
H94   H     H_    0.862024 0.480014 0.732646 0.133022
H95   H     H_    0.716939 0.363882 0.050078 0.243096
H96   H     H_    0.676599 0.297403 0.944346 0.254615
H97   H     H_    0.779889 0.329184 0.019770 0.252698
H98   H     H_    0.403639 0.233770 0.937876 0.092044
H99   H     H_    0.338113 0.189188 0.828113 0.088622
H100  H     H_    0.213351 0.117508 0.835728 0.260151
H101  H     H_    0.292037 0.091803 0.877089 0.209508
H102  H     H_    0.278601 0.162188 0.944987 0.252621
H103  H     H_    0.621605 0.583425 0.068310 0.122518
H104  H     H_    0.598518 0.522976 0.117751 0.098223
H105  H     H_    0.351812 0.429732 0.795872 0.160241
H106  H     H_    0.593943 0.631676 0.212796 0.267629
H107  H     H_    0.692839 0.669798 0.217029 0.217713
H108  H     H_    0.615772 0.692096 0.163392 0.257030
H109  H     H_    0.511554 0.619104 0.972881 0.129802
H110  H     H_    0.454007 0.574006 0.862591 0.096666
H111  H     H_    0.580882 0.655149 0.865374 0.260523
H112  H     H_    0.562381 0.720572 0.931913 0.213793
H113  H     H_    0.642460 0.696927 0.974805 0.261685
H114  H     H_    0.131272 0.457266 0.576005 0.145931
H115  H     H_    0.102033 0.453570 0.651538 0.108315
H116  H     H_    0.865191 0.460057 0.382694 -0.037476
H117  H     H_    0.232426 0.574839 0.760521 0.256280
H118  H     H_    0.254600 0.505170 0.703811 0.220884
H119  H     H_    0.263095 0.592940 0.690383 0.272586
H120  H     H_    0.898137 0.394578 0.485676 0.245794
H121  H     H_    0.983662 0.378577 0.514509 0.250541
H122  H     H_    0.960268 0.420979 0.590178 0.278244
H123  H     H_    0.180796 0.625273 0.577661 0.136562
H124  H     H_    0.160751 0.616760 0.478478 0.093330
H125  H     H_    0.237758 0.546409 0.469171 0.262832
H126  H     H_    0.301507 0.639289 0.565466 0.214563
H127  H     H_    0.849738 0.478540 0.494439 0.155529
H128  H     H_    0.251460 0.542199 0.561274 0.268591
H129  H     H_    0.747941 0.494370 0.369380 0.086919
H130  H     H_    0.766496 0.467757 0.285171 0.080498
H131  H     H_    0.775245 0.592951 0.279388 0.255273
H132  H     H_    0.676866 0.529743 0.267538 0.210078
H133  H     H_    0.757637 0.620474 0.363644 0.261948
H134  H     H_    0.583266 0.942594 0.668249 0.211929
H135  H     H_    0.649073 0.048923 0.707367 0.220131
H136  H     H_    0.537060 0.001817 0.648248 0.315891
H137  H     H_    0.445891 0.797826 0.549341 0.082585
H138  H     H_    0.975539 0.443090 0.426123 0.079064
H139  H     H_    0.384841 0.755072 0.439306 0.088812
H140  H     H_    0.282508 0.793697 0.453349 0.260272
H141  H     H_    0.293555 0.727948 0.496738 0.205612
H142  H     H_    0.342646 0.835894 0.562888 0.259218
H143  H     H_    0.485791 0.153945 0.567626 0.133855
H144  H     H_    0.591010 0.184590 0.641276 0.108939
H145  H     H_    0.539334 0.125299 0.715975 0.257486
H146  H     H_    0.504578 0.195638 0.703766 0.224203
H147  H     H_    0.432411 0.087175 0.640335 0.276732
H148  H     H_    0.257205 0.652744 0.974522 0.307171
N1    N     N_R   0.043550 0.386750 0.043430 -0.048169
N2    N     N_R   0.843320 0.343600 0.886740 -0.041122
N3    N     N_R   0.156920 0.543410 0.000250 -0.080575
N4    N     N_R   0.843210 0.386780 0.843560 -0.043312
N5    N     N_R   0.157030 0.500230 0.043430 -0.104992
N6    N     N_R   0.043140 0.543420 0.886740 -0.080580
N7    N     N_R   0.957090 0.343580 0.000250 -0.046750
N8    N     N_R   0.156790 0.613220 0.156440 -0.075605
N9    N     N_R   0.842970 0.499770 0.956570 -0.080297
N10   N     N_R   0.956860 0.456580 0.113260 -0.054211
N11   N     N_R   0.042910 0.656420 0.999750 -0.078332
N12   N     N_R   0.956450 0.613250 0.956570 -0.110024
N13   N     N_R   0.043310 0.499740 0.156440 -0.060721
N14   N     N_R   0.156680 0.656400 0.113260 -0.084317
N15   N     N_R   0.843080 0.456590 0.999750 -0.077228
N16   N     N_R   0.956690 0.500260 0.843560 -0.072917
Ni1   Ni    Ni4+2 0.099270 0.499990 0.099040 0.218647
Ni2   Ni    Ni4+2 0.900730 0.500010 0.900960 0.199503
Ni3   Ni    Ni4+2 0.900990 0.400990 0.000000 0.191989
Ni4   Ni    Ni4+2 0.099010 0.599010 0.000000 0.267703
O1    O     O_3   0.845379 0.643611 0.936557 -0.640184
O2    O     O_3   0.509019 0.058920 0.561264 -0.637775
O3    O     O_3   0.565123 0.126638 0.500516 -0.689823
O4    O     O_3   0.598602 0.869074 0.406614 -0.625560
O5    O     O_3   0.882815 0.994881 0.944421 -0.645414
O6    O     O_3   0.979807 0.111950 0.206076 -0.634069
O7    O     O_3   0.126648 0.053373 0.233097 -0.666686
O8    O     O_3   0.221297 0.424142 0.079080 -0.658866
O9    O     O_3   0.138654 0.656238 0.887803 -0.641590
O10   O     O_3   0.267862 0.751791 0.112154 -0.636183
O11   O     O_3   0.320675 0.274417 0.899080 -0.637647
O12   O     O_3   0.501873 0.538121 0.051961 -0.631386
O13   O     O_3   0.540521 0.539707 0.910324 -0.637591
O14   O     O_3   0.104401 0.547038 0.623822 -0.651603
O15   O     O_3   0.097497 0.508252 0.476398 -0.622656
O16   O     O_3   0.867120 0.569447 0.394550 -0.612765
O17   O     O_3   0.444250 0.881587 0.507868 -0.595048

loop_
_geom_bond_atom_site_label_1
_geom_bond_atom_site_label_2
_ccdc_geom_bond_type
C110  H130  S    
N7    Ni3   S    
C48   C55   S    
C39   H83   S    
C63   H73   S    
C103  H112  S    
C97   H95   S    
C80   C81   S    
N3    Ni4   S    
C8    H19   S    
C20   O9    S    
C105  H117  S    
C94   H89   S    
C41   C61   S    
C31   C52   S    
C98   H98   S    
C59   H57   S    
C93   H88   S    
C28   H72   S    
C112  H136  S    
C57   C62   S    
C98   C99   S    
C31   C40   T    
C111  H133  S    
C5    C6    S    
C58   N4    A    
C13   N14   A    
N8    N14   A    
C4    H8    S    
C57   C64   S    
N9    N15   A    
N8    Ni1   S    
C45   C50   S    
C12   H30   S    
C101  H108  S    
C36   C37   S    
C84   C86   T    
C41   C58   A    
C25   C74   A    
C59   H58   S    
C115  H143  S    
C26   C85   A    
C9    O5    S    
C64   H63   S    
C9    H23   S    
C86   C88   S    
C70   N5    A    
C109  H126  S    
C21   H53   S    
C29   C35   S    
C46   C52   A    
C102  H109  S    
C33   C36   S    
C108  C109  S    
C4    H7    S    
C8    H21   S    
C18   C19   S    
C10   H25   S    
C70   O8    S    
C37   C42   S    
C17   H43   S    
C93   H87   S    
C117  H4    S    
C110  C111  S    
C8    C73   S    
C15   H37   S    
C72   C78   S    
C115  H144  S    
C91   H81   S    
C18   H47   S    
C63   N8    A    
C94   C95   S    
C90   H78   S    
C108  H123  S    
C115  O2    S    
C85   H61   S    
C106  H120  S    
C16   C72   S    
C14   H34   S    
C16   H39   S    
C49   H116  S    
C112  H135  S    
C73   O5    S    
C19   H49   S    
C27   C107  A    
C52   C70   A    
C92   H82   S    
C82   N6    A    
C114  H142  S    
C15   H38   S    
C3    H5    S    
C10   H26   S    
C108  H124  S    
C33   H105  S    
C101  H106  S    
C103  H113  S    
C11   O6    S    
C66   C67   S    
N12   Ni2   S    
C109  H128  S    
C59   C60   S    
C113  H139  S    
C97   H96   S    
C43   H127  S    
C105  H118  S    
C29   C39   S    
C27   C96   A    
C75   H68   S    
C34   C41   A    
C19   H50   S    
C6    H12   S    
C17   H42   S    
C75   H67   S    
C9    H22   S    
C76   C83   T    
C104  C105  S    
C3    H6    S    
N6    Ni4   S    
C62   C69   S    
N11   Ni4   S    
C108  O15   S    
C3    O3    S    
C20   H51   S    
C66   H60   S    
C43   C49   S    
C13   O10   S    
C69   C71   T    
N9    Ni2   S    
C107  O1    S    
C16   H41   S    
C95   H92   S    
C45   O15   S    
C99   H100  S    
C34   N2    A    
N10   N13   A    
C116  H145  S    
C79   C80   S    
C7    H17   S    
C6    H15   S    
C82   O9    S    
C117  H3    S    
C7    C72   S    
C57   H62   S    
C78   C79   S    
C11   H28   S    
C104  H114  S    
N2    Ni3   S    
C18   O8    S    
C77   C84   S    
C103  H111  S    
C21   H54   S    
C30   C56   S    
C90   C96   S    
C74   N9    A    
C17   C80   S    
N6    N16   A    
C3    C4    S    
C60   O3    S    
C13   C24   A    
C58   H66   S    
C78   H65   S    
C94   O10   S    
C30   C82   A    
C7    H18   S    
C72   C77   S    
C116  H147  S    
C87   N7    A    
C114  H141  S    
C60   C65   S    
C36   O13   S    
C90   H77   S    
C99   H101  S    
C77   C81   S    
C67   H59   S    
C23   N15   A    
C65   C68   S    
C89   H76   S    
C22   H94   S    
C5    H10   S    
C55   C56   T    
C50   C51   S    
C89   H74   S    
C44   O14   S    
C111  H131  S    
C2    C26   A    
C10   H27   S    
C57   O17   S    
N5    Ni1   S    
C109  H125  S    
N10   Ni3   S    
C81   O6    S    
C34   H13   S    
C102  O13   S    
C17   H44   S    
C26   C47   S    
C45   H138  S    
C47   C54   T    
C62   C67   S    
C101  H107  S    
C46   N3    A    
C23   C97   S    
C66   H64   S    
C99   H102  S    
C28   C33   S    
C113  O17   S    
C24   C63   A    
C97   H97   S    
C14   O7    S    
C38   O12   S    
C96   N11   A    
C105  H119  S    
N16   Ni2   S    
C73   C75   S    
C106  H121  S    
C27   C76   S    
C107  N12   A    
C20   C21   S    
N14   Ni4   S    
C81   H69   S    
C91   C92   S    
C92   H85   S    
C44   C45   S    
C74   C89   S    
C112  H134  S    
C113  C114  S    
C9    C10   S    
C95   H91   S    
C98   H99   S    
C28   C29   S    
C59   C62   S    
C32   C42   T    
C113  H137  S    
C22   C30   A    
C16   H40   S    
C14   C15   S    
C95   H93   S    
C12   H32   S    
C8    H20   S    
C2    C93   S    
C98   O11   S    
C94   H90   S    
N15   Ni3   S    
N3    N5    A    
C29   O11   S    
C22   N16   A    
C5    O4    S    
C2    N13   A    
C51   H56   S    
C11   C12   S    
C53   H2    S    
C11   H29   S    
C7    H16   S    
C87   H71   S    
C44   C106  S    
C48   C53   S    
C111  H132  S    
C21   H55   S    
C51   H35   S    
C67   O4    S    
C6    H14   S    
C60   O2    S    
C4    H9    S    
C106  H122  S    
C43   C48   S    
C64   C65   S    
C12   H31   S    
C49   O16   S    
C35   C40   S    
C1    N1    A    
C28   C37   S    
C50   C54   S    
C116  H146  S    
N1    N7    A    
C36   C38   S    
C79   C83   S    
N2    N4    A    
C61   C68   T    
N1    Ni1   S    
C115  C116  S    
C38   C39   S    
C100  H103  S    
C100  H104  S    
C1    C88   A    
C104  O14   S    
C5    H11   S    
C110  H129  S    
C102  H110  S    
C33   C35   S    
C89   H75   S    
C20   H52   S    
C53   H24   S    
C1    H1    S    
C65   C66   S    
C102  C103  S    
C93   H86   S    
C114  H140  S    
C80   O7    S    
C15   H36   S    
C64   C112  S    
C104  H115  S    
C14   H33   S    
C91   H80   S    
C85   N10   A    
C18   H45   S    
C23   C25   A    
C90   H79   S    
N11   N12   A    
C46   C117  S    
C87   C88   A    
C37   C39   S    
C49   C50   S    
N13   Ni1   S    
C110  O16   S    
C73   C77   S    
C35   C38   S    
N4    Ni2   S    
C91   O1    S    
C100  C101  S    
C78   H70   S    
C19   H48   S    
C51   C53   S    
C100  O12   S    
C75   C79   S    
C117  H148  S    
C92   H84   S    
C44   C48   S    
C24   C71   S    
C25   C32   S    
C43   H46   S    
