data_mof_unit_463.cif
_audit_creation_date              2012-12-10T20:02:23-0500
_audit_creation_method            fapswitch 2.2
_symmetry_space_group_name_H-M    P1
_symmetry_Int_Tables_number       1
_space_group_crystal_system       triclinic
_cell_length_a                    18.324824
_cell_length_b                    18.308948
_cell_length_c                    18.352248
_cell_angle_alpha                 119.969022
_cell_angle_beta                  120.068459
_cell_angle_gamma                 89.998741
_cell_volume                      4351.4671095

loop_
_atom_site_label
_atom_site_type_symbol
_atom_type_description
_atom_site_fract_x
_atom_site_fract_y
_atom_site_fract_z
_atom_type_partial_charge
C1    C     C_R   0.138950 0.140473 0.780334 0.805001
C2    C     C_R   0.730702 0.825002 0.504314 0.063924
C3    C     C_3   0.765107 0.528276 0.166083 -0.941647
C4    C     C_1   0.935745 0.657623 0.620405 0.190947
C5    C     C_R   0.860892 0.577321 0.529194 0.069655
C6    C     C_R   0.859830 0.859696 0.219824 0.794882
C7    C     C_R   0.872378 0.494135 0.503406 -0.254229
C8    C     C_R   0.801296 0.414829 0.415801 0.085716
C9    C     C_R   0.717591 0.418358 0.355440 -0.198187
C10   C     C_R   0.705542 0.500825 0.380396 -0.229851
C11   C     C_R   0.777091 0.581164 0.466187 0.133728
C12   C     C_R   0.711222 0.781448 0.052790 0.079252
C13   C     C_R   0.803542 0.798551 0.108063 -0.074806
C14   C     C_R   0.645040 0.891388 0.409997 -0.193529
C15   C     C_R   0.840274 0.752756 0.053987 -0.213333
C16   C     C_R   0.786566 0.699078 0.946256 -0.229286
C17   C     C_R   0.695574 0.690331 0.891638 -0.073271
C18   C     C_R   0.859933 0.140040 0.499246 0.810253
C19   C     C_R   0.658052 0.727904 0.946109 0.064932
C20   C     C_3   0.601626 0.786357 0.939208 -0.263984
C21   C     C_3   0.660881 0.846229 0.057437 -0.281062
C22   C     C_R   0.195951 0.748904 0.530195 0.043081
C23   C     C_R   0.199467 0.807676 0.503865 -0.042256
C24   C     C_R   0.262852 0.816939 0.484568 -0.213277
C25   C     C_R   0.615709 0.962811 0.410275 0.394230
C26   C     C_R   0.317057 0.763069 0.484801 -0.222108
C27   C     C_R   0.308815 0.700340 0.505425 -0.044893
C28   C     C_R   0.251263 0.697579 0.533558 0.058005
C29   C     C_3   0.180757 0.619438 0.493546 -0.265772
C30   C     C_R   0.140182 0.860143 0.500138 0.789766
C31   C     C_3   0.117797 0.674642 0.484138 -0.259156
C32   C     C_R   0.211339 0.159466 0.947068 0.120504
C33   C     C_R   0.186285 0.197766 0.892188 -0.186512
C34   C     C_R   0.204042 0.292057 0.948359 -0.020459
C35   C     C_R   0.258722 0.344537 0.056120 -0.255878
C36   C     C_R   0.645914 0.044147 0.504218 0.427363
C37   C     C_R   0.295081 0.304891 0.108942 -0.098711
C38   C     C_R   0.264301 0.212112 0.053076 0.029442
C39   C     C_3   0.312233 0.147757 0.060215 -0.343562
C40   C     C_3   0.253346 0.088161 0.941461 0.288626
C41   C     C_R   0.231930 0.286691 0.572087 0.038131
C42   C     C_R   0.138271 0.139988 0.498157 0.795327
C43   C     C_R   0.186891 0.196065 0.491022 -0.087558
C44   C     C_R   0.190031 0.162495 0.404549 -0.032677
C45   C     C_R   0.247418 0.217034 0.408639 -0.260899
C46   C     C_R   0.301826 0.304129 0.497524 -0.061452
C47   C     C_R   0.678567 0.769740 0.504111 -0.271556
C48   C     C_R   0.290582 0.338940 0.577014 0.042724
C49   C     C_3   0.356824 0.385235 0.691437 0.300567
C50   C     C_3   0.289304 0.330320 0.685551 -0.452732
C51   C     C_R   0.842261 0.288762 0.561775 0.055884
C52   C     C_R   0.804358 0.195887 0.492627 -0.043318
C53   C     C_R   0.711967 0.158030 0.414335 -0.133641
C54   C     C_R   0.859546 0.860979 0.500709 0.849358
C55   C     C_R   0.657957 0.211901 0.415429 -0.162705
C56   C     C_R   0.695857 0.303898 0.495276 -0.048871
C57   C     C_R   0.788868 0.341407 0.564755 0.062806
C58   C     C_R   0.696089 0.693287 0.497392 -0.111581
C59   C     C_3   0.849249 0.403749 0.680033 0.307411
C60   C     C_3   0.909560 0.346690 0.675840 -0.503952
C61   C     C_R   0.360717 0.640650 0.500654 0.803680
C62   C     C_R   0.640053 0.359830 0.500043 0.810209
C63   C     C_R   0.640101 0.640362 0.780080 0.785392
C64   C     C_R   0.359099 0.359974 0.219941 0.824303
C65   C     C_R   0.360709 0.359922 0.500627 0.807998
C66   C     C_R   0.708340 0.055005 0.597536 -0.441442
C67   C     C_R   0.640067 0.639602 0.499682 0.821627
C68   C     C_R   0.735497 0.983610 0.597821 0.444719
C69   C     C_R   0.763925 0.667713 0.484959 -0.086328
C70   C     C_R   0.704412 0.901610 0.504094 -0.087940
C71   C     C_3   0.576460 0.146623 0.552277 0.106691
C72   C     C_3   0.483155 0.080036 0.489857 -0.417646
C73   C     C_3   0.432199 0.118838 0.537272 -0.898487
C74   C     C_1   0.814951 0.329785 0.385825 0.126507
C75   C     C_1   0.507744 0.738103 0.888331 0.251543
C76   C     C_1   0.617088 0.850296 0.107578 0.262093
C77   C     C_1   0.156842 0.536780 0.396245 0.233985
C78   C     C_1   0.045341 0.642444 0.377488 0.235747
C79   C     C_1   0.171115 0.338425 0.899924 0.224969
C80   C     C_R   0.813907 0.721063 0.479963 0.427194
C81   C     C_1   0.295002 0.113658 0.109796 0.316976
C82   C     C_3   0.751284 0.981516 0.728689 0.101872
C83   C     C_3   0.779475 0.068901 0.829685 -0.330347
C84   C     C_3   0.736880 0.055424 0.877228 -0.966061
C85   C     C_3   0.230419 0.941896 0.893958 0.106980
C86   C     C_3   0.216106 0.879954 0.789813 -0.321681
C87   C     C_3   0.256632 0.806534 0.787143 -0.955887
C88   C     C_1   0.136946 0.072930 0.311556 0.217226
C89   C     C_3   0.506364 0.421263 0.748918 0.096736
C90   C     C_3   0.553055 0.369866 0.700561 -0.406718
C91   C     C_R   0.801830 0.802998 0.497542 -0.155172
C92   C     C_3   0.617275 0.429645 0.707601 -0.880524
C93   C     C_1   0.616129 0.808417 0.313597 0.271567
C94   C     C_3   0.861952 0.464096 0.832208 0.084662
C95   C     C_3   0.842044 0.434763 0.886995 -0.340555
C96   C     C_3   0.888369 0.510688 0.000576 -0.938548
C97   C     C_3   0.474044 0.907243 0.263914 0.098048
C98   C     C_3   0.414941 0.935533 0.194569 -0.317430
C99   C     C_3   0.316041 0.883419 0.131310 -0.950357
C100  C     C_3   0.831310 0.661773 0.347982 0.071034
C101  C     C_3   0.806843 0.560407 0.277307 -0.319866
H1    H     H_    0.662076 0.357326 0.287695 0.134641
H2    H     H_    0.197896 0.608310 0.553680 0.155365
H3    H     H_    0.094875 0.691326 0.534617 0.174100
H4    H     H_    0.275774 0.416655 0.098351 0.180125
H5    H     H_    0.384491 0.174434 0.095498 0.113783
H6    H     H_    0.290093 0.080148 0.905998 0.051508
H7    H     H_    0.250842 0.190781 0.343175 0.185355
H8    H     H_    0.369166 0.458453 0.739449 0.079177
H9    H     H_    0.312516 0.282796 0.705708 0.215416
H10   H     H_    0.258270 0.371057 0.723203 0.171334
H11   H     H_    0.680930 0.086736 0.355049 0.202183
H12   H     H_    0.640959 0.502018 0.330532 0.135612
H13   H     H_    0.586533 0.180886 0.356486 0.172067
H14   H     H_    0.878144 0.473176 0.707334 0.073317
H15   H     H_    0.974204 0.381982 0.698313 0.179932
H16   H     H_    0.915200 0.311272 0.712167 0.224788
H17   H     H_    0.623989 0.786690 0.509675 0.144143
H18   H     H_    0.936983 0.491123 0.550755 0.138476
H19   H     H_    0.568227 0.209099 0.558609 0.178566
H20   H     H_    0.617547 0.165401 0.632469 0.117988
H21   H     H_    0.443647 0.061915 0.409997 0.242073
H22   H     H_    0.489992 0.018537 0.487021 0.196602
H23   H     H_    0.910851 0.760941 0.094567 0.179693
H24   H     H_    0.473199 0.145067 0.620154 0.265378
H25   H     H_    0.369568 0.065751 0.496359 0.262653
H26   H     H_    0.413641 0.173135 0.528857 0.278353
H27   H     H_    0.771732 0.931029 0.744383 0.169418
H28   H     H_    0.676583 0.954597 0.673895 0.101781
H29   H     H_    0.853503 0.094358 0.885265 0.242184
H30   H     H_    0.758796 0.119792 0.814926 0.209411
H31   H     H_    0.662764 0.031579 0.823686 0.260042
H32   H     H_    0.758675 0.119937 0.950290 0.271635
H33   H     H_    0.757829 0.005867 0.894412 0.266781
H34   H     H_    0.816944 0.667515 0.906155 0.166350
H35   H     H_    0.197881 0.901460 0.905590 0.174376
H36   H     H_    0.303257 0.970180 0.957518 0.108401
H37   H     H_    0.143305 0.848913 0.727011 0.258262
H38   H     H_    0.248166 0.919012 0.776504 0.214147
H39   H     H_    0.247637 0.763315 0.712424 0.269688
H40   H     H_    0.329432 0.836287 0.849611 0.268454
H41   H     H_    0.223239 0.764466 0.796482 0.271976
H42   H     H_    0.553879 0.461207 0.834254 0.148492
H43   H     H_    0.487345 0.469173 0.728105 0.161894
H44   H     H_    0.589677 0.337674 0.738976 0.216467
H45   H     H_    0.608424 0.818807 0.904365 0.140882
H46   H     H_    0.502128 0.316800 0.617791 0.228270
H47   H     H_    0.579263 0.453419 0.659200 0.257574
H48   H     H_    0.652854 0.390102 0.677069 0.284052
H49   H     H_    0.666728 0.487378 0.788809 0.249285
H50   H     H_    0.844823 0.525609 0.844476 0.148434
H51   H     H_    0.935155 0.479405 0.867186 0.135009
H52   H     H_    0.768898 0.412415 0.849323 0.233920
H53   H     H_    0.865469 0.377260 0.880924 0.223692
H54   H     H_    0.961953 0.533668 0.040538 0.271464
H55   H     H_    0.873587 0.486798 0.038265 0.274816
H56   H     H_    0.702306 0.913294 0.091173 0.144278
H57   H     H_    0.863668 0.567766 0.008205 0.265076
H58   H     H_    0.452960 0.916696 0.314555 0.102916
H59   H     H_    0.463322 0.835020 0.214314 0.157302
H60   H     H_    0.426306 0.008207 0.242799 0.231288
H61   H     H_    0.433358 0.923669 0.141278 0.227777
H62   H     H_    0.303151 0.810522 0.082327 0.264485
H63   H     H_    0.275280 0.904288 0.080460 0.269896
H64   H     H_    0.295304 0.896979 0.183060 0.270154
H65   H     H_    0.881571 0.695406 0.347814 0.160047
H66   H     H_    0.770515 0.680150 0.314706 0.125655
H67   H     H_    0.268954 0.864039 0.467021 0.162086
H68   H     H_    0.867506 0.541148 0.305530 0.239350
H69   H     H_    0.757772 0.526522 0.278458 0.227041
H70   H     H_    0.700983 0.541622 0.134800 0.264675
H71   H     H_    0.751433 0.455155 0.117749 0.265454
H72   H     H_    0.810845 0.562735 0.161490 0.275988
H73   H     H_    0.736970 0.119191 0.670298 0.179802
H74   H     H_    0.363825 0.769082 0.466879 0.157878
N1    N     N_1   0.825958 0.261394 0.361308 -0.220303
N2    N     N_1   0.995752 0.721992 0.693422 -0.200354
N3    N     N_1   0.434097 0.700154 0.848218 -0.221291
N4    N     N_1   0.582449 0.853547 0.146710 -0.168496
N5    N     N_1   0.138248 0.472075 0.320182 -0.213136
N6    N     N_1   0.989920 0.617406 0.293670 -0.236120
N7    N     N_1   0.144837 0.375789 0.861461 -0.218384
N8    N     N_1   0.281610 0.087197 0.149039 -0.224890
N9    N     N_1   0.094486 0.001236 0.236979 -0.190254
N10   N     N_1   0.593337 0.741831 0.236854 -0.225668
O1    O     O_3   0.000000 0.000000 0.500000 -0.493517
O2    O     O_R   0.384160 0.323450 0.268320 -0.640461
O3    O     O_R   0.384130 0.444860 0.560610 -0.658416
O4    O     O_R   0.115780 0.055050 0.731580 -0.617132
O5    O     O_R   0.555060 0.615780 0.439210 -0.648099
O6    O     O_R   0.384140 0.323430 0.439180 -0.641076
O7    O     O_R   0.676490 0.615760 0.560640 -0.633514
O8    O     O_R   0.676470 0.615740 0.731500 -0.643143
O9    O     O_R   0.384180 0.444900 0.268330 -0.645557
O10   O     O_R   0.384150 0.615750 0.560620 -0.638046
O11   O     O_R   0.555030 0.323430 0.439190 -0.652501
O12   O     O_R   0.823480 0.055090 0.439280 -0.643284
O13   O     O_R   0.823490 0.884220 0.268410 -0.641413
O14   O     O_R   0.944920 0.176520 0.560720 -0.633243
O15   O     O_R   0.115810 0.884200 0.439290 -0.641420
O16   O     O_R   0.115820 0.176530 0.560730 -0.636242
O17   O     O_R   0.944890 0.884180 0.560700 -0.599781
O18   O     O_R   0.115830 0.055100 0.439300 -0.640463
O19   O     O_R   0.823460 0.884190 0.439270 -0.656174
O20   O     O_3   0.619601 0.114510 0.502022 -0.603955
O21   O     O_3   0.796473 0.995575 0.690440 -0.621988
O22   O     O_3   0.189757 0.007990 0.895625 -0.587360
O23   O     O_R   0.115790 0.884180 0.560710 -0.653190
O24   O     O_3   0.433325 0.358311 0.716680 -0.624128
O25   O     O_3   0.809113 0.395526 0.725381 -0.626277
O26   O     O_3   0.564444 0.957817 0.320172 -0.615061
O27   O     O_3   0.870199 0.689635 0.450840 -0.647793
O28   O     O_R   0.115790 0.176500 0.731590 -0.639553
O29   O     O_R   0.944940 0.884220 0.268420 -0.637585
O30   O     O_3   0.499960 0.499960 0.499910 -0.483006
O31   O     O_R   0.384170 0.615770 0.439200 -0.642871
O32   O     O_R   0.676480 0.444870 0.560630 -0.633847
O33   O     O_R   0.555020 0.615730 0.731490 -0.651499
Zn1   Zn    Zn3+2 0.869870 0.956630 0.413250 0.983392
Zn2   Zn    Zn3+2 0.043380 0.130130 0.586750 0.979325
Zn3   Zn    Zn3+2 0.043390 0.956630 0.413260 0.971437
Zn4   Zn    Zn3+2 0.043360 0.956610 0.586740 0.997041
Zn5   Zn    Zn3+2 0.630090 0.543330 0.586660 0.960351
Zn6   Zn    Zn3+2 0.456570 0.543320 0.586650 0.955743
Zn7   Zn    Zn3+2 0.456580 0.369830 0.413160 0.964505
Zn8   Zn    Zn3+2 0.456590 0.543350 0.413170 0.966185

loop_
_geom_bond_atom_site_label_1
_geom_bond_atom_site_label_2
_ccdc_geom_bond_type
O32   Zn5   S    
C39   H5    S    
C96   H57   S    
C55   C56   A    
C92   H47   S    
C41   C43   A    
O17   Zn4   S    
C30   O15   A    
C95   C96   S    
C62   O11   A    
C4    N2    T    
C76   N4    T    
O30   Zn6   S    
C37   C64   S    
C29   H2    S    
C97   C98   S    
C67   O5    A    
C18   C52   S    
C7    C8    A    
C45   C46   A    
C44   C45   A    
C74   N1    T    
C12   C13   A    
C21   C76   S    
C84   H33   S    
C26   C27   A    
C90   H46   S    
C71   H19   S    
C100  H66   S    
O15   Zn3   S    
C97   H58   S    
C63   O33   A    
C27   C28   A    
C28   C29   S    
C24   H67   S    
C95   H53   S    
C24   C26   A    
C5    C11   A    
C90   H44   S    
C38   C39   S    
O2    Zn7   S    
C36   C66   A    
C3    H71   S    
C88   N9    T    
C96   H54   S    
C66   C68   A    
C94   H51   S    
C15   C16   A    
C98   C99   S    
C50   H9    S    
C56   C57   A    
O18   Zn3   S    
C100  H65   S    
C34   C35   A    
C25   O26   S    
C75   N3    T    
C50   H10   S    
C27   C61   S    
C3    H72   S    
C47   H17   S    
C65   O6    A    
C16   C17   A    
C6    C13   S    
C64   O9    A    
C23   C24   A    
C63   O8    A    
C101  H68   S    
C51   C57   A    
C61   O31   A    
C32   C38   A    
C9    C10   A    
C61   O10   A    
C14   C93   S    
C73   H26   S    
C45   H7    S    
C80   O27   S    
C72   H21   S    
C3    C101  S    
O1    Zn4   S    
C40   O22   S    
C59   C60   S    
O6    Zn7   S    
C22   C28   A    
C14   C70   A    
C42   O18   A    
C94   C95   S    
C98   H61   S    
O28   Zn2   S    
O4    Zn4   S    
C1    O28   A    
C5    C7    A    
C53   C55   A    
C46   C48   A    
C84   H32   S    
C77   N5    T    
C22   C31   S    
O19   Zn1   S    
C1    C33   S    
C51   C52   A    
C97   H59   S    
C7    H18   S    
C101  H69   S    
C39   C81   S    
C46   C65   S    
C15   H23   S    
C39   C40   S    
C6    O13   A    
C67   O7    A    
C8    C9    A    
C89   O24   S    
C25   C36   A    
C94   H50   S    
C85   C86   S    
O1    Zn2   S    
C12   C21   S    
C100  O27   S    
O31   Zn8   S    
C20   C75   S    
C95   H52   S    
C43   C44   A    
C23   C30   S    
C85   O22   S    
C83   H30   S    
C37   C38   A    
C35   H4    S    
O29   Zn3   S    
C34   C79   S    
C90   C92   S    
C83   C84   S    
C6    O29   A    
O8    Zn5   S    
O10   Zn6   S    
C30   O23   A    
C99   H64   S    
C18   O12   A    
C8    C74   S    
C33   C34   A    
C29   C77   S    
C60   H16   S    
C87   H40   S    
C82   H28   S    
C82   H27   S    
C62   O32   A    
C9    H1    S    
C10   H12   S    
C86   H38   S    
C83   H29   S    
C40   H6    S    
C99   H62   S    
O3    Zn6   S    
C53   H11   S    
C68   C70   A    
C48   C49   S    
O1    Zn3   S    
C94   O25   S    
C13   C15   A    
C72   H22   S    
C92   H49   S    
C49   C50   S    
C20   H45   S    
C60   H15   S    
C42   C43   S    
C81   N8    T    
C73   H24   S    
C85   H36   S    
C41   C50   S    
C82   O21   S    
C98   H60   S    
C52   C53   A    
C86   C87   S    
C31   C78   S    
C49   H8    S    
C87   H39   S    
O11   Zn7   S    
C97   O26   S    
C35   C37   A    
O5    Zn8   S    
C21   H56   S    
C71   H20   S    
O14   Zn2   S    
O7    Zn5   S    
C4    C5    S    
C69   C80   A    
O30   Zn5   S    
C11   C69   S    
C58   C69   A    
O33   Zn6   S    
C55   H13   S    
C89   H42   S    
C2    C47   A    
C89   H43   S    
O1    Zn1   S    
C92   H48   S    
C78   N6    T    
C32   C33   A    
O9    Zn8   S    
C19   C20   S    
O30   Zn8   S    
C54   C91   S    
C29   C31   S    
C79   N7    T    
C54   O17   A    
C14   C25   A    
C31   H3    S    
C47   C58   A    
C68   O21   S    
C3    H70   S    
C96   H55   S    
C26   H74   S    
C80   C91   A    
C72   C73   S    
C54   O19   A    
C12   C19   A    
C100  C101  S    
C17   C19   A    
C41   C48   A    
C84   H31   S    
C56   C62   S    
C36   O20   S    
C32   C40   S    
C87   H41   S    
C2    C91   A    
O12   Zn1   S    
C44   C88   S    
C65   O3    A    
C64   O2    A    
C57   C59   S    
C10   C11   A    
C86   H37   S    
C85   H35   S    
C99   H63   S    
C58   C67   S    
C71   O20   S    
C71   C72   S    
C20   C21   S    
C59   H14   S    
C82   C83   S    
C49   O24   S    
C18   O14   A    
C22   C23   A    
C66   H73   S    
C42   O16   A    
C51   C60   S    
O30   Zn7   S    
C89   C90   S    
C2    C70   S    
C16   H34   S    
O23   Zn4   S    
C17   C63   S    
C73   H25   S    
C59   O25   S    
C93   N10   T    
O16   Zn2   S    
O13   Zn1   S    
C1    O4    A    
