data_mof_unit_3153.cif
_audit_creation_date              2012-12-11T15:24:45-0500
_audit_creation_method            fapswitch 2.2
_symmetry_space_group_name_H-M    P1
_symmetry_Int_Tables_number       1
_space_group_crystal_system       triclinic
_cell_length_a                    23.042752
_cell_length_b                    6.934146
_cell_length_c                    20.746419
_cell_angle_alpha                 90.000042
_cell_angle_beta                  93.034608
_cell_angle_gamma                 90.000019
_cell_volume                      3310.25195784

loop_
_atom_site_label
_atom_site_type_symbol
_atom_type_description
_atom_site_fract_x
_atom_site_fract_y
_atom_site_fract_z
_atom_type_partial_charge
O1    O     O_R   0.188030 0.379840 0.189340 -0.516809
O2    O     O_R   0.811970 0.620160 0.810660 -0.516809
O3    O     O_R   0.311970 0.879840 0.310660 -0.516807
O4    O     O_R   0.688030 0.120160 0.689340 -0.516811
O5    O     O_R   0.307090 0.708420 0.185790 -0.540378
O6    O     O_R   0.692910 0.291580 0.814210 -0.540379
O7    O     O_R   0.192910 0.208420 0.314210 -0.540379
O8    O     O_R   0.807090 0.791580 0.685790 -0.540380
C1    C     C_R   0.326746 0.540824 0.170672 0.740187
C2    C     C_R   0.673254 0.459176 0.829328 0.740185
C3    C     C_R   0.173254 0.040824 0.329328 0.740183
C4    C     C_R   0.826746 0.959176 0.670672 0.740193
O9    O     O_R   0.188180 0.709480 0.181650 -0.540227
O10   O     O_R   0.811820 0.290520 0.818350 -0.540227
O11   O     O_R   0.311820 0.209480 0.318350 -0.540226
O12   O     O_R   0.688180 0.790520 0.681650 -0.540230
O13   O     O_R   0.192210 0.880960 0.306500 -0.534261
O14   O     O_R   0.807790 0.119040 0.693500 -0.534258
O15   O     O_R   0.307790 0.380960 0.193500 -0.534259
O16   O     O_R   0.692210 0.619040 0.806500 -0.534260
C5    C     C_R   0.169850 0.539490 0.162925 0.749530
C6    C     C_R   0.830150 0.460510 0.837075 0.749532
C7    C     C_R   0.330150 0.039490 0.337075 0.749526
C8    C     C_R   0.669849 0.960509 0.662925 0.749536
O17   O     O_3   0.251460 0.546730 0.290970 -0.352176
O18   O     O_3   0.748540 0.453270 0.709030 -0.352181
O19   O     O_3   0.248540 0.046730 0.209030 -0.352178
O20   O     O_3   0.751460 0.953270 0.790970 -0.352179
V1    V     V_3+5 0.249730 0.821120 0.242400 1.558805
V2    V     V_3+5 0.750270 0.178880 0.757600 1.558802
V3    V     V_3+5 0.250270 0.321120 0.257600 1.558806
V4    V     V_3+5 0.749730 0.678880 0.742400 1.558801
C9    C     C_R   0.580179 0.830759 0.608653 -0.161976
C10   C     C_R   0.419816 0.169252 0.391355 -0.161954
C11   C     C_R   0.919818 0.330754 0.891350 -0.161965
C12   C     C_R   0.080182 0.669246 0.108649 -0.161963
C13   C     C_R   0.622858 0.972808 0.610609 -0.153925
C14   C     C_R   0.377140 0.027192 0.389394 -0.153935
C15   C     C_R   0.877141 0.472808 0.889392 -0.153930
C16   C     C_R   0.122859 0.527192 0.110608 -0.153931
C17   C     C_R   0.619589 0.123920 0.564493 0.280595
C18   C     C_R   0.380411 0.876073 0.435508 0.280603
C19   C     C_R   0.880411 0.623924 0.935507 0.280600
C20   C     C_R   0.119589 0.376075 0.064493 0.280599
C21   C     C_R   0.570253 0.137028 0.519049 0.022881
C22   C     C_R   0.429743 0.862983 0.480958 0.022886
C23   C     C_R   0.929746 0.637023 0.980955 0.022883
C24   C     C_R   0.070255 0.362978 0.019045 0.022885
C25   C     C_R   0.525378 0.994456 0.521157 -0.046816
C26   C     C_R   0.474617 0.005556 0.478851 -0.046814
C27   C     C_R   0.974619 0.494451 0.978846 -0.046816
C28   C     C_R   0.025381 0.505550 0.021153 -0.046816
C29   C     C_R   0.531593 0.838782 0.565106 0.036575
C30   C     C_R   0.468402 0.161232 0.434903 0.036594
C31   C     C_R   0.968405 0.338776 0.934898 0.036586
C32   C     C_R   0.031595 0.661225 0.065101 0.036586
C33   C     C_R   0.563124 0.288855 0.472719 0.268906
C34   C     C_R   0.436869 0.711169 0.527293 0.268926
C35   C     C_R   0.936872 0.788843 0.027287 0.268915
C36   C     C_R   0.063128 0.211158 0.972712 0.268915
C37   C     C_R   0.511608 0.304460 0.433435 0.186547
C38   C     C_R   0.488384 0.695563 0.566578 0.186542
C39   C     C_R   0.988388 0.804449 0.066572 0.186546
C40   C     C_R   0.011612 0.195552 0.933427 0.186544
H1    H     H_    0.584528 0.716979 0.644114 0.192562
H2    H     H_    0.415466 0.283036 0.355895 0.192569
H3    H     H_    0.915469 0.216972 0.855890 0.192565
H4    H     H_    0.084531 0.783030 0.144109 0.192566
C41   C     C_3   0.036897 0.134671 0.519168 0.356546
C42   C     C_3   0.963103 0.865329 0.480832 0.356547
C43   C     C_3   0.463103 0.634671 0.980832 0.356546
C44   C     C_3   0.536897 0.365329 0.019168 0.356547
C45   C     C_3   0.023260 0.955182 0.559544 -0.223969
C46   C     C_3   0.976740 0.044818 0.440456 -0.223967
C47   C     C_3   0.476740 0.455181 0.940456 -0.223967
C48   C     C_3   0.523260 0.544818 0.059544 -0.223968
H5    H     H_    0.042580 0.921505 0.608397 0.138234
H6    H     H_    0.957420 0.078495 0.391603 0.138234
H7    H     H_    0.457420 0.421504 0.891603 0.138236
H8    H     H_    0.542580 0.578495 0.108397 0.138231
H9    H     H_    0.050655 0.687846 0.494926 0.163806
H10   H     H_    0.949345 0.312154 0.505073 0.163806
H11   H     H_    0.449345 0.187846 0.005073 0.163806
H12   H     H_    0.550655 0.812154 0.994926 0.163806
C49   C     C_1   0.872224 0.968247 0.625010 -0.153795
C50   C     C_1   0.127776 0.031753 0.374990 -0.153802
C51   C     C_1   0.627776 0.468247 0.874990 -0.153797
C52   C     C_1   0.372224 0.531753 0.125010 -0.153802
C53   C     C_3   0.971874 0.171288 0.502172 -0.201160
C54   C     C_3   0.028126 0.828712 0.497828 -0.201163
C55   C     C_3   0.528126 0.671288 0.997828 -0.201162
C56   C     C_3   0.471874 0.328712 0.002171 -0.201162
C57   C     C_3   0.957857 0.988621 0.541529 0.064160
C58   C     C_3   0.042143 0.011379 0.458471 0.064160
C59   C     C_3   0.542143 0.488621 0.958471 0.064160
C60   C     C_3   0.457857 0.511379 0.041529 0.064161
C61   C     C_1   0.910665 0.976515 0.587234 -0.014543
C62   C     C_1   0.089335 0.023485 0.412766 -0.014546
C63   C     C_1   0.589335 0.476515 0.912766 -0.014543
C64   C     C_1   0.410665 0.523485 0.087234 -0.014546
Br1   Br    Br    0.684971 0.301681 0.565581 -0.528023
Br2   Br    Br    0.315042 0.698253 0.434403 -0.527991
Br3   Br    Br    0.815036 0.801716 0.934411 -0.528007
Br4   Br    Br    0.184962 0.198279 0.065590 -0.528006
N1    N     N_2   0.607833 0.426251 0.464063 -0.459910
H13   H     H_    0.594729 0.568364 0.464984 0.299484
C65   C     C_3   0.645066 0.382367 0.411863 -0.428781
H14   H     H_    0.681294 0.487967 0.412124 0.203091
H15   H     H_    0.620413 0.390475 0.364509 0.207903
H16   H     H_    0.663863 0.235523 0.418101 0.204578
N2    N     N_2   0.392153 0.573807 0.535963 -0.459908
H17   H     H_    0.405249 0.431683 0.535058 0.299494
C66   C     C_3   0.354919 0.617774 0.588154 -0.428810
H18   H     H_    0.318691 0.512174 0.587912 0.203081
H19   H     H_    0.336121 0.764610 0.581889 0.204572
H20   H     H_    0.379572 0.609741 0.635510 0.207895
N3    N     N_2   0.892160 0.926220 0.035951 -0.459912
H21   H     H_    0.905260 0.068338 0.035038 0.299490
C67   C     C_3   0.854926 0.882292 0.088146 -0.428800
H22   H     H_    0.818698 0.987889 0.087893 0.203088
H23   H     H_    0.879579 0.890364 0.135500 0.207900
H24   H     H_    0.836130 0.735451 0.081894 0.204575
N4    N     N_2   0.107840 0.073781 0.964049 -0.459912
H25   H     H_    0.094740 0.931664 0.964960 0.299491
C68   C     C_3   0.145074 0.117710 0.911854 -0.428805
H26   H     H_    0.181299 0.012103 0.912102 0.203085
H27   H     H_    0.163874 0.264543 0.918109 0.204579
H28   H     H_    0.120421 0.109656 0.864499 0.207899
Br5   Br    Br    0.501727 0.526518 0.376693 -0.627305
Br6   Br    Br    0.498259 0.473521 0.623328 -0.627298
Br7   Br    Br    0.998266 0.026497 0.123318 -0.627300
Br8   Br    Br    0.001735 0.973503 0.876681 -0.627300
N5    N     N_2   0.078268 0.282617 0.539239 -0.522985
H29   H     H_    0.120637 0.234363 0.540997 0.263078
C69   C     C_3   0.064024 0.388627 0.596283 -0.546671
H30   H     H_    0.096330 0.505529 0.605500 0.201787
H31   H     H_    0.064900 0.291293 0.638868 0.201601
H32   H     H_    0.020353 0.455629 0.589349 0.212827
N6    N     N_2   0.921732 0.717383 0.460761 -0.522984
H33   H     H_    0.879363 0.765637 0.459003 0.263080
C70   C     C_3   0.935976 0.611373 0.403717 -0.546669
H34   H     H_    0.903670 0.494471 0.394499 0.201789
H35   H     H_    0.979647 0.544371 0.410651 0.212826
H36   H     H_    0.935099 0.708707 0.361132 0.201601
N7    N     N_2   0.421731 0.782616 0.960761 -0.522985
H37   H     H_    0.379363 0.734362 0.959002 0.263079
C71   C     C_3   0.435976 0.888626 0.903717 -0.546668
H38   H     H_    0.403670 0.005528 0.894499 0.201788
H39   H     H_    0.435099 0.791292 0.861132 0.201603
H40   H     H_    0.479647 0.955628 0.910651 0.212826
N8    N     N_2   0.578268 0.217384 0.039239 -0.522984
H41   H     H_    0.620637 0.265638 0.040997 0.263079
C72   C     C_3   0.564024 0.111374 0.096282 -0.546672
H42   H     H_    0.596330 0.994472 0.105500 0.201788
H43   H     H_    0.520353 0.044372 0.089348 0.212827
H44   H     H_    0.564901 0.208708 0.138868 0.201599

loop_
_geom_bond_atom_site_label_1
_geom_bond_atom_site_label_2
_ccdc_geom_bond_type
C34   C38   A    
C69   H32   S    
C33   N1    S    
C25   C29   A    
O1    C5    A    
C54   C58   S    
O19   V1    S    
O13   V1    S    
C46   C58   S    
O3    C7    A    
N2    H17   S    
C45   C57   S    
C44   C48   S    
O15   V3    S    
C10   H2    S    
N7    H37   S    
C20   Br4   S    
C47   C59   S    
C69   H30   S    
O7    C3    A    
H11   C56   S    
N1    C65   S    
C21   C33   A    
O5    C1    A    
C26   C30   A    
H10   C53   S    
C4    C49   S    
C46   C53   S    
O9    V1    S    
C71   H39   S    
C45   C54   S    
C14   C18   A    
C24   C28   A    
N3    C67   S    
C1    C52   S    
C44   C56   S    
C59   C63   S    
N4    C68   S    
C58   C62   S    
C3    C50   S    
O1    V3    S    
O2    V4    S    
C18   C22   A    
O3    V1    S    
C38   Br6   S    
C12   C16   A    
C71   H38   S    
C44   C59   S    
C1    O15   A    
C40   Br8   S    
C2    O16   A    
O2    C6    A    
C68   H28   S    
C65   H14   S    
C41   C45   S    
O14   V2    S    
H12   C55   S    
C21   C25   A    
C72   H43   S    
O5    V1    S    
C25   C26   A    
C37   Br5   S    
C66   H20   S    
O11   C7    A    
N8    H41   S    
C42   N6    S    
C35   N3    S    
C22   C34   A    
O17   V1    S    
C65   H15   S    
C42   C54   S    
O10   V2    S    
C41   C53   S    
C18   Br2   S    
N7    C71   S    
C24   C36   A    
C51   C63   T    
C67   H23   S    
C56   C60   S    
C9    C29   A    
C2    C51   S    
O7    V3    S    
C9    H1    S    
C27   C28   A    
O8    V4    S    
N4    H25   S    
C71   H40   S    
C41   C58   S    
C70   H36   S    
O18   V4    S    
C15   C19   A    
C43   C60   S    
C11   C31   A    
C53   C57   S    
C9    C13   A    
C34   N2    S    
C36   N4    S    
C11   C15   A    
C42   C46   S    
C12   C32   A    
C29   C38   A    
O20   V4    S    
O8    C4    A    
C44   N8    S    
C31   C40   A    
C42   C57   S    
C8    C13   S    
C32   C39   A    
O9    C5    A    
N2    C66   S    
C72   H44   S    
O11   V3    S    
C52   C64   T    
C47   C56   S    
H9    C54   S    
C43   N7    S    
C10   C30   A    
C39   Br7   S    
O19   V3    S    
N5    H29   S    
C65   H16   S    
C57   C61   S    
C68   H27   S    
C66   H18   S    
O16   V4    S    
C67   H24   S    
C69   H31   S    
C3    O13   A    
C41   N5    S    
O6    V2    S    
C10   C14   A    
O17   V3    S    
C48   H8    S    
O6    C2    A    
C23   C27   A    
N6    H33   S    
C12   H4    S    
C33   C37   A    
C30   C37   A    
O12   V4    S    
C7    C14   S    
N1    H13   S    
C22   C26   A    
C35   C39   A    
C36   C40   A    
O10   C6    A    
C70   H35   S    
C17   C21   A    
C70   H34   S    
C48   C60   S    
C43   C47   S    
N6    C70   S    
C68   H26   S    
C5    C16   S    
C47   H7    S    
O4    C8    A    
C6    C15   S    
C60   C64   S    
O20   V2    S    
C17   Br1   S    
C27   C31   A    
N8    C72   S    
C13   C17   A    
C50   C62   T    
C19   Br3   S    
C49   C61   T    
C11   H3    S    
C48   C55   S    
C23   C35   A    
C28   C32   A    
C16   C20   A    
C43   C55   S    
C55   C59   S    
O12   C8    A    
C67   H22   S    
C46   H6    S    
C4    O14   A    
N5    C69   S    
C45   H5    S    
C72   H42   S    
N3    H21   S    
C19   C23   A    
O4    V2    S    
C20   C24   A    
C66   H19   S    
O18   V2    S    
