data_mof_unit_4939.cif
_audit_creation_date              2013-03-05T16:23:19-0500
_audit_creation_method            fapswitch 2.2
_symmetry_space_group_name_H-M    P1
_symmetry_Int_Tables_number       1
_space_group_crystal_system       triclinic
_cell_length_a                    27.6935
_cell_length_b                    10.482137
_cell_length_c                    9.776714
_cell_angle_alpha                 89.383044
_cell_angle_beta                  89.275209
_cell_angle_gamma                 90.698426
_cell_volume                      2837.44636013

loop_
_atom_site_label
_atom_site_type_symbol
_atom_site_description
_atom_site_fract_x
_atom_site_fract_y
_atom_site_fract_z
_atom_type_partial_charge
O1    O     O_R   0.500000 0.313960 0.616610 -0.621281
O2    O     O_R   0.500000 0.686040 0.383390 -0.621289
O3    O     O_R   0.500020 0.313950 0.383350 -0.622032
O4    O     O_R   0.499980 0.686050 0.616650 -0.622034
C1    C     C_R   0.500115 0.257575 0.500737 0.868819
C2    C     C_R   0.499886 0.742425 0.499263 0.868810
O5    O     O_R   0.428750 0.500030 0.616610 -0.621209
O6    O     O_R   0.571250 0.499970 0.383390 -0.621220
O7    O     O_R   0.428770 0.500020 0.383360 -0.622473
O8    O     O_R   0.571230 0.499980 0.616640 -0.622473
C3    C     C_R   0.406105 0.499241 0.500859 0.863752
C4    C     C_R   0.593894 0.500765 0.499140 0.863748
Zn1   Zn    Zn3+2 0.499990 0.500010 0.655740 0.944430
Zn2   Zn    Zn3+2 0.500010 0.499990 0.344260 0.944424
C5    C     C_R   0.176021 0.381471 0.541225 0.503180
C6    C     C_R   0.823974 0.618646 0.458769 0.503187
O9    O     O_2   0.199643 0.271751 0.565170 -0.552720
O10   O     O_2   0.800351 0.728364 0.434823 -0.552700
N1    N     N_R   0.201394 0.491300 0.513158 -0.358210
N2    N     N_R   0.798603 0.508813 0.486824 -0.358225
C7    C     C_R   0.178988 0.605117 0.493204 0.518384
C8    C     C_R   0.821010 0.394997 0.506774 0.518390
C9    C     C_R   0.277339 0.488764 0.384130 -0.105655
C10   C     C_R   0.722661 0.511614 0.615840 -0.105699
C11   C     C_R   0.327533 0.492063 0.380789 -0.215222
C12   C     C_R   0.672466 0.508277 0.619190 -0.215228
C13   C     C_R   0.328207 0.495556 0.629332 -0.219720
C14   C     C_R   0.671791 0.504216 0.370663 -0.219730
C15   C     C_R   0.278085 0.491716 0.632248 -0.101294
C16   C     C_R   0.721913 0.508085 0.367738 -0.101327
C17   C     C_R   0.252738 0.488685 0.509798 0.324696
C18   C     C_R   0.747259 0.511420 0.490176 0.324786
C19   C     C_R   0.101493 0.497764 0.517136 -0.054749
C20   C     C_R   0.898504 0.502357 0.482857 -0.054747
C21   C     C_R   0.125514 0.382730 0.544324 -0.003355
C22   C     C_R   0.874482 0.617391 0.455675 -0.003365
C23   C     C_R   0.098677 0.273506 0.579391 -0.147110
C24   C     C_R   0.901318 0.726619 0.420616 -0.147109
C25   C     C_R   0.128574 0.610728 0.497042 -0.074120
C26   C     C_R   0.871424 0.389390 0.502940 -0.074125
C27   C     C_R   0.353316 0.495893 0.503518 -0.040654
C28   C     C_R   0.646683 0.504141 0.496475 -0.040636
H1    H     H_    0.347148 0.499040 0.725418 0.155755
H2    H     H_    0.652849 0.500498 0.274589 0.155781
H3    H     H_    0.258845 0.492709 0.729357 0.135729
H4    H     H_    0.741152 0.506878 0.270637 0.135682
H5    H     H_    0.116160 0.186289 0.610980 0.189373
H6    H     H_    0.883835 0.813836 0.389032 0.189372
C29   C     C_R   0.973307 0.381887 0.506724 0.019809
C30   C     C_R   0.026690 0.618237 0.493269 0.019808
C31   C     C_R   0.976089 0.616234 0.471911 0.066349
C32   C     C_R   0.023907 0.383890 0.528087 0.066350
C33   C     C_R   0.949514 0.500157 0.488518 0.029441
C34   C     C_R   0.050483 0.499966 0.511477 0.029439
C35   C     C_R   0.945073 0.267000 0.497268 0.190640
C36   C     C_R   0.054925 0.733122 0.502718 0.190639
C37   C     C_R   0.894888 0.272695 0.508551 -0.142357
C38   C     C_R   0.105110 0.727424 0.491428 -0.142355
O11   O     O_2   0.794466 0.287687 0.528944 -0.551783
O12   O     O_2   0.205532 0.712426 0.471031 -0.551804
C39   C     C_R   0.048648 0.275800 0.576659 -0.224337
C40   C     C_R   0.951347 0.724326 0.423346 -0.224335
H7    H     H_    0.653970 0.508454 0.717455 0.155521
H8    H     H_    0.346030 0.492105 0.282520 0.155512
H9    H     H_    0.742509 0.513471 0.710542 0.135605
H10   H     H_    0.257492 0.487144 0.289420 0.135641
H11   H     H_    0.873983 0.184481 0.509967 0.201379
H12   H     H_    0.126016 0.815637 0.490006 0.201383
H13   H     H_    0.029889 0.192374 0.616147 0.174380
H14   H     H_    0.970105 0.807754 0.383860 0.174379
C41   C     C_3   0.502722 0.038397 0.630556 -0.146586
C42   C     C_3   0.497278 0.961602 0.369444 -0.146591
C43   C     C_3   0.540943 0.957708 0.556159 -0.168889
C44   C     C_3   0.459057 0.042292 0.443841 -0.168892
H15   H     H_    0.574229 0.918319 0.601564 0.142347
H16   H     H_    0.425772 0.081681 0.398436 0.142354
H17   H     H_    0.505211 0.073151 0.737088 0.138354
H18   H     H_    0.494789 0.926848 0.262912 0.138357
C45   C     C_3   0.499827 0.877581 0.497875 0.021364
C46   C     C_3   0.500174 0.122419 0.502125 0.021363
C47   C     C_3   0.461588 0.955567 0.572120 -0.171403
C48   C     C_3   0.538412 0.044433 0.427880 -0.171400
H19   H     H_    0.430340 0.914527 0.630506 0.141957
H20   H     H_    0.569661 0.085472 0.369494 0.141951
C49   C     C_3   0.512849 0.389966 0.049732 -0.122640
C50   C     C_3   0.487151 0.610034 0.950268 -0.122645
C51   C     C_3   0.542588 0.475293 0.949729 -0.122306
C52   C     C_3   0.457412 0.524706 0.050270 -0.122280
H21   H     H_    0.578437 0.455448 0.903101 0.130989
H22   H     H_    0.421563 0.544551 0.096898 0.130961
H23   H     H_    0.523292 0.297289 0.096014 0.134074
H24   H     H_    0.476709 0.702712 0.903986 0.134076
N3    N     N_3   0.499960 0.500030 0.863290 -0.085924
N4    N     N_3   0.500040 0.499970 0.136710 -0.085924
C53   C     C_3   0.470576 0.415705 0.954852 0.280923
C54   C     C_3   0.529424 0.584294 0.045149 0.280890
C55   C     C_3   0.435728 0.315671 0.900999 -0.876927
H25   H     H_    0.417056 0.266890 0.988369 0.218936
H26   H     H_    0.408412 0.361514 0.835612 0.249809
H27   H     H_    0.455742 0.243861 0.841269 0.245545
C56   C     C_3   0.564278 0.684313 0.099006 -0.876911
H28   H     H_    0.582948 0.733102 0.011637 0.218922
H29   H     H_    0.544270 0.756118 0.158756 0.245558
H30   H     H_    0.591596 0.638452 0.164373 0.249845
C57   C     C_3   0.964637 0.140315 0.451172 -0.961370
H31   H     H_    0.940371 0.097163 0.374152 0.248419
H32   H     H_    0.000232 0.150611 0.398773 0.257601
H33   H     H_    0.966267 0.073260 0.539524 0.246777
C58   C     C_3   0.035363 0.859810 0.548814 -0.961367
H34   H     H_    0.059631 0.902962 0.625829 0.248421
H35   H     H_    0.033731 0.926863 0.460461 0.246778
H36   H     H_    0.999770 0.849516 0.601221 0.257597

loop_
_geom_bond_atom_site_label_1
_geom_bond_atom_site_label_2
_geom_bond_distance
_ccdc_geom_bond_type
C56   H28   1.109711 S    
C13   C15   1.388078 A    
C36   C58   1.511390 S    
O7    Zn2   2.004827 S    
N1    C17   1.422461 S    
C55   H25   1.109711 S    
C49   H23   1.110311 S    
O5    C3    1.300781 A    
C57   H32   1.108700 S    
C30   C34   1.421578 A    
C44   H16   1.110369 S    
C35   C57   1.511390 S    
O1    C1    1.283387 A    
C9    H10   1.082948 S    
N1    C7    1.364759 A    
C10   C12   1.390030 A    
C42   C45   1.528793 S    
C32   C39   1.412177 A    
C58   H35   1.109458 S    
C50   C52   1.541755 S    
C40   H14   1.077134 S    
O4    Zn1   1.983153 S    
C4    C28   1.461791 S    
C55   H26   1.107380 S    
C42   H18   1.109791 S    
C23   H5    1.083540 S    
C24   H6    1.083539 S    
O6    C4    1.300768 A    
C52   C53   1.527462 S    
N3    C53   1.480469 S    
C44   C46   1.526463 S    
C54   C56   1.519266 S    
C43   H15   1.110370 S    
O2    C2    1.283387 A    
C31   C40   1.412180 A    
C37   H11   1.084824 S    
O8    C4    1.301964 A    
C5    C21   1.398903 A    
C41   C46   1.528792 S    
C47   H19   1.110355 S    
C32   C34   1.421036 A    
C49   C51   1.541745 S    
C57   H33   1.109457 S    
C52   N4    1.484261 S    
C7    O12   1.350234 S    
C42   C44   1.542851 S    
C58   H36   1.108701 S    
C11   C27   1.404701 A    
C8    O11   1.350236 S    
C45   C47   1.526757 S    
C29   C35   1.432269 A    
C25   C38   1.392963 A    
C14   H2    1.082455 S    
C30   C36   1.432269 A    
C15   H3    1.083016 S    
C31   C33   1.421040 A    
C11   H8    1.083044 S    
C9    C17   1.397291 A    
C5    N1    1.364916 A    
C12   H7    1.083035 S    
C10   C18   1.397281 A    
C50   N3    1.483912 S    
C49   N4    1.483907 S    
C13   C27   1.405258 A    
C7    C25   1.398138 A    
C6    N2    1.364908 A    
C29   C32   1.419329 A    
C8    C26   1.398130 A    
C51   C54   1.527462 S    
C30   C31   1.419337 A    
C43   C45   1.526461 S    
C6    O10   1.349771 S    
C19   C25   1.404544 A    
C1    C46   1.416665 S    
N4    C54   1.480467 S    
O7    C3    1.301962 A    
O3    Zn2   1.983155 S    
C50   C54   1.527607 S    
C10   H9    1.082933 S    
C38   H12   1.084824 S    
C52   H22   1.110112 S    
C56   H30   1.107393 S    
C48   H20   1.110355 S    
C35   C37   1.394832 A    
C20   C26   1.404548 A    
O4    C2    1.285234 A    
O1    Zn1   1.991412 S    
C44   C47   1.543833 S    
C22   C24   1.394653 A    
C43   C48   1.543833 S    
C41   H17   1.109790 S    
C55   H27   1.107359 S    
C12   C28   1.404697 A    
C41   C43   1.542851 S    
N2    C18   1.422439 S    
C39   H13   1.077135 S    
C19   C34   1.414896 A    
C5    O9    1.349772 S    
O6    Zn2   2.014384 S    
C26   C37   1.392962 A    
C21   C23   1.394653 A    
C16   H4    1.083003 S    
N2    C8    1.364750 A    
O3    C1    1.285233 A    
O8    Zn1   2.004830 S    
C23   C39   1.386584 A    
C53   C55   1.519258 S    
C57   H31   1.111723 S    
C51   H21   1.110113 S    
C14   C16   1.388081 A    
C15   C17   1.395867 A    
C50   H24   1.110311 S    
C58   H34   1.111722 S    
C6    C22   1.398905 A    
C16   C18   1.395857 A    
C49   C53   1.527603 S    
C2    C45   1.416663 S    
C29   C33   1.421575 A    
C51   N3    1.484259 S    
C14   C28   1.405258 A    
C19   C21   1.408637 A    
C46   C48   1.526758 S    
C36   C38   1.394838 A    
C3    C27   1.461798 S    
C20   C22   1.408640 A    
C9    C11   1.390026 A    
O2    Zn2   1.991410 S    
C13   H1    1.082454 S    
O5    Zn1   2.014379 S    
C20   C33   1.414899 A    
C56   H29   1.107352 S    
Zn1   N3    2.029148 S    
C41   C47   1.543033 S    
Zn2   N4    2.029149 S    
C42   C48   1.543034 S    
C24   C40   1.386588 A    
