data_mof_unit_2024.cif
_audit_creation_date              2012-12-11T17:08:24-0500
_audit_creation_method            fapswitch 2.2
_symmetry_space_group_name_H-M    P1
_symmetry_Int_Tables_number       1
_space_group_crystal_system       triclinic
_cell_length_a                    6.957075
_cell_length_b                    14.521505
_cell_length_c                    16.078754
_cell_angle_alpha                 89.96933
_cell_angle_beta                  89.951736
_cell_angle_gamma                 90.043435
_cell_volume                      1624.39021007

loop_
_atom_site_label
_atom_site_type_symbol
_atom_type_description
_atom_site_fract_x
_atom_site_fract_y
_atom_site_fract_z
_atom_type_partial_charge
O1    O     O_R   0.505700 0.583890 0.413310 -0.539221
O2    O     O_R   0.175960 0.594920 0.586080 -0.547039
O3    O     O_R   0.005660 0.416110 0.586690 -0.532984
C1    C     C_R   0.344743 0.616915 0.614861 0.680888
O4    O     O_R   0.175980 0.594920 0.413930 -0.547786
O5    O     O_R   0.005680 0.416110 0.413310 -0.519486
C2    C     C_R   0.344748 0.616858 0.385251 0.693848
O6    O     O_R   0.505680 0.583890 0.586690 -0.541493
O7    O     O_3   0.339200 0.441330 0.500000 -0.342114
V1    V     V_3+5 0.064350 0.510880 0.500000 1.431009
O8    O     O_R   0.675960 0.405080 0.413920 -0.538978
C3    C     C_R   0.845076 0.382950 0.385236 0.713048
O9    O     O_R   0.675940 0.405080 0.586070 -0.542505
C4    C     C_R   0.844602 0.382979 0.614773 0.699875
V2    V     V_3+5 0.564340 0.489120 0.500000 1.440104
O10   O     O_3   0.839360 0.558670 0.500000 -0.380530
C5    C     C_R   0.008257 0.251913 0.688917 0.120525
C6    C     C_R   0.852425 0.312340 0.681237 -0.113273
C7    C     C_R   0.700368 0.302150 0.738394 -0.178258
H1    H     H_    0.577438 0.347369 0.735065 0.130491
C8    C     C_R   0.712136 0.238290 0.804261 -0.175951
H2    H     H_    0.596807 0.235377 0.849289 0.130405
C9    C     C_R   0.876931 0.183249 0.815236 -0.108827
C10   C     C_R   0.020319 0.189039 0.754286 0.094237
C11   C     C_3   0.230639 0.204731 0.764126 -0.424443
C12   C     C_3   0.217580 0.272818 0.692567 -0.384914
H3    H     H_    0.316190 0.142354 0.748874 0.174371
H4    H     H_    0.265359 0.237765 0.824610 0.173311
H5    H     H_    0.294781 0.249614 0.635765 0.192740
H6    H     H_    0.245628 0.345245 0.711373 0.162796
C13   C     C_R   0.734840 0.178874 0.244790 0.076012
C14   C     C_R   0.882486 0.182256 0.185548 -0.094057
C15   C     C_R   0.030586 0.246909 0.198870 -0.184496
H7    H     H_    0.150417 0.251013 0.156134 0.123815
C16   C     C_R   0.018863 0.311362 0.264271 -0.105028
H8    H     H_    0.130226 0.363059 0.269788 0.121006
C17   C     C_R   0.859406 0.312683 0.318637 -0.091326
C18   C     C_R   0.723956 0.241939 0.309800 0.019532
C19   C     C_3   0.509768 0.244870 0.305969 -0.163676
C20   C     C_3   0.521840 0.175795 0.234526 -0.460998
H9    H     H_    0.454488 0.313606 0.287175 0.143889
H10   H     H_    0.476013 0.204918 0.173796 0.174748
H11   H     H_    0.462215 0.106424 0.248717 0.158930
C21   C     C_R   0.506674 0.682363 0.741715 0.101397
C22   C     C_R   0.352671 0.682337 0.685573 -0.109814
C23   C     C_R   0.201296 0.744365 0.701103 -0.177930
H12   H     H_    0.079032 0.746749 0.659791 0.132157
C24   C     C_R   0.212501 0.808536 0.766643 -0.176767
H13   H     H_    0.097944 0.858156 0.773984 0.127690
C25   C     C_R   0.375726 0.812845 0.818455 -0.112536
C26   C     C_R   0.518191 0.746107 0.806344 0.112104
C27   C     C_3   0.729225 0.758051 0.794801 -0.405003
C28   C     C_3   0.716797 0.688209 0.724684 -0.402869
H14   H     H_    0.812589 0.732962 0.849225 0.184438
H15   H     H_    0.766233 0.828543 0.773107 0.164266
H16   H     H_    0.747388 0.717947 0.662342 0.169239
C29   C     C_R   0.485502 0.756822 0.315710 0.093725
C30   C     C_R   0.351483 0.685165 0.317053 -0.137436
C31   C     C_R   0.216083 0.682025 0.252034 -0.161910
H17   H     H_    0.108215 0.628137 0.252752 0.154396
C32   C     C_R   0.229248 0.742189 0.182497 -0.016558
C33   C     C_R   0.375106 0.811464 0.180561 -0.173927
C34   C     C_R   0.494792 0.819026 0.250293 0.094006
C35   C     C_3   0.708454 0.826097 0.256498 -0.391777
C36   C     C_3   0.698031 0.757111 0.327728 -0.385707
H18   H     H_    0.755616 0.895785 0.276584 0.155778
H19   H     H_    0.782506 0.799112 0.200462 0.215340
H20   H     H_    0.740205 0.787025 0.388653 0.158691
O11   O     O_R   0.229000 0.916070 0.913330 -0.542897
O12   O     O_R   0.558770 0.905070 0.086080 -0.530471
O13   O     O_R   0.729000 0.083900 0.086690 -0.535663
C37   C     C_R   0.389187 0.880820 0.112936 0.683319
O14   O     O_R   0.558720 0.905070 0.913930 -0.538083
O15   O     O_R   0.728960 0.083900 0.913310 -0.540736
C38   C     C_R   0.389661 0.883099 0.885105 0.689890
O16   O     O_R   0.229050 0.916070 0.086710 -0.546957
O17   O     O_3   0.395460 0.058650 0.000020 -0.370705
V3    V     V_3+5 0.670340 0.989120 0.000000 1.412603
O18   O     O_R   0.058670 0.094960 0.913900 -0.540322
C39   C     C_R   0.889704 0.117139 0.885289 0.692524
O19   O     O_R   0.058720 0.094960 0.086050 -0.542659
C40   C     C_R   0.889969 0.116852 0.114889 0.699341
V4    V     V_3+5 0.170330 0.010930 0.999970 1.390937
O20   O     O_3   0.895340 0.941350 0.999980 -0.369808
C41   C     C_2   0.419629 0.205927 0.383342 0.413887
H21   H     H_    0.465295 0.139548 0.407330 0.033053
O21   O     O_2   0.294746 0.248747 0.419916 -0.527794
H22   H     H_    0.792221 0.622556 0.738712 0.169785
C42   C     C_2   0.102537 0.725150 0.109608 0.340121
H23   H     H_    0.128023 0.759543 0.050793 0.065838
O22   O     O_2   0.969537 0.670345 0.113666 -0.545255
H24   H     H_    0.765228 0.689697 0.312607 0.190860

loop_
_geom_bond_atom_site_label_1
_geom_bond_atom_site_label_2
_ccdc_geom_bond_type
C36   H24   S    
O12   V3    S    
C4    C6    S    
C7    H1    S    
C37   O16   A    
O19   C40   A    
C19   H9    S    
O17   V3    S    
C21   C22   A    
C11   H4    S    
C17   C18   A    
C5    C12   S    
C16   C17   A    
O5    C3    A    
C18   C19   S    
O17   V4    S    
V2    O10   S    
C13   C20   S    
C5    C6    A    
C6    C7    A    
C3    C17   S    
O8    V2    S    
C21   C28   S    
C20   H11   S    
C13   C14   A    
C32   C42   S    
O14   V3    S    
O1    V2    S    
C9    C39   S    
C42   O22   D    
O7    V1    S    
C2    C30   S    
C27   H15   S    
C1    O6    A    
O13   C40   A    
C20   H10   S    
C31   H17   S    
O15   C39   A    
O9    C4    A    
O14   C38   A    
O16   V4    S    
O19   V4    S    
C27   H14   S    
C29   C34   A    
C1    C22   S    
C41   O21   D    
C23   C24   A    
C31   C32   A    
C5    C10   A    
C26   C27   S    
C35   H19   S    
C10   C11   S    
C19   C20   S    
O4    C2    A    
C25   C26   A    
C11   C12   S    
C41   H21   S    
O18   C39   A    
C16   H8    S    
C35   H18   S    
O2    C1    A    
C33   C34   A    
O11   V4    S    
V3    O20   S    
V4    O20   S    
C9    C10   A    
C36   H20   S    
C15   H7    S    
C33   C37   S    
O3    C4    A    
C21   C26   A    
C24   H13   S    
C12   H6    S    
O6    V2    S    
C8    C9    A    
C19   C41   S    
O2    V1    S    
C27   C28   S    
C28   H16   S    
C23   H12   S    
C7    C8    A    
O1    C2    A    
C29   C36   S    
O5    V1    S    
O8    C3    A    
C11   H3    S    
C14   C40   S    
C13   C18   A    
C14   C15   A    
O9    V2    S    
C30   C31   A    
O4    V1    S    
O3    V1    S    
V1    O10   S    
C25   C38   S    
C35   C36   S    
O18   V4    S    
C29   C30   A    
C24   C25   A    
C15   C16   A    
O11   C38   A    
C28   H22   S    
O7    V2    S    
C32   C33   A    
C34   C35   S    
C22   C23   A    
C12   H5    S    
O15   V3    S    
O12   C37   A    
C42   H23   S    
C8    H2    S    
O13   V3    S    
