data_mof_unit_4942.cif
_audit_creation_date              2012-12-10T19:33:20-0500
_audit_creation_method            fapswitch 2.2
_symmetry_space_group_name_H-M    P1
_symmetry_Int_Tables_number       1
_space_group_crystal_system       triclinic
_cell_length_a                    27.679531
_cell_length_b                    15.733463
_cell_length_c                    14.929251
_cell_angle_alpha                 90.232488
_cell_angle_beta                  89.518226
_cell_angle_gamma                 89.82484
_cell_volume                      6501.29789629

loop_
_atom_site_label
_atom_site_type_symbol
_atom_type_description
_atom_site_fract_x
_atom_site_fract_y
_atom_site_fract_z
_atom_type_partial_charge
C1    C     C_R   0.499849 0.337567 0.499855 0.900128
C2    C     C_R   0.872917 0.418742 0.484500 -0.193924
C3    C     C_3   0.993738 0.427019 0.259623 -0.393203
C4    C     C_3   0.995152 0.466077 0.166269 -0.926980
C5    C     C_3   0.984284 0.747031 0.461683 0.128742
C6    C     C_3   0.028518 0.709366 0.413072 -0.399082
C7    C     C_3   0.037680 0.753521 0.323788 -0.915987
C8    C     C_3   0.604590 0.002858 0.354526 0.138715
C9    C     C_3   0.632470 0.040205 0.275287 -0.345477
C10   C     C_3   0.664574 0.973454 0.229996 -0.960760
C11   C     C_3   0.451987 0.901792 0.690965 0.117202
C12   C     C_3   0.416700 0.836057 0.728124 -0.347991
C13   C     C_R   0.353179 0.493657 0.502246 -0.348531
C14   C     C_3   0.435962 0.795417 0.813507 -0.872525
C15   C     C_R   0.647547 0.503889 0.498465 -0.361002
C16   C     C_R   0.974735 0.413237 0.486754 -0.083025
C17   C     C_R   0.025701 0.548494 0.563686 -0.094178
C18   C     C_R   0.976222 0.559115 0.543987 -0.026145
C19   C     C_R   0.025638 0.415961 0.477442 -0.025916
C20   C     C_R   0.950053 0.488062 0.513336 -0.083127
C21   C     C_R   0.051053 0.480187 0.523272 -0.084416
C22   C     C_R   0.947894 0.338494 0.472342 0.559433
C23   C     C_R   0.500633 0.662355 0.500185 0.876081
C24   C     C_R   0.050374 0.602344 0.623386 0.566578
C25   C     C_R   0.897471 0.340589 0.472195 0.368374
C26   C     C_R   0.100355 0.596441 0.632345 0.399945
C27   C     C_R   0.405807 0.499082 0.500351 1.014826
C28   C     C_R   0.594423 0.501151 0.499576 0.955121
C29   C     C_R   0.051643 0.360818 0.419556 0.412301
C30   C     C_R   0.952944 0.639123 0.547277 0.423253
C31   C     C_3   0.548816 0.974509 0.532353 0.379399
C32   C     C_3   0.460983 0.024757 0.474457 0.520156
C33   C     C_3   0.539418 0.028577 0.448380 0.264478
C34   C     C_R   0.101905 0.478706 0.525191 -0.194511
C35   C     C_3   0.470489 0.970648 0.558081 0.336151
C36   C     C_1   0.500419 0.248892 0.499787 -0.126604
C37   C     C_1   0.503647 0.750746 0.500771 -0.151206
C38   C     C_3   0.512078 0.029519 0.586382 0.233706
C39   C     C_3   0.497354 0.970992 0.420203 0.242672
C40   C     C_3   0.502871 0.083210 0.502250 -0.231854
C41   C     C_3   0.506653 0.916224 0.503464 -0.263398
C42   C     C_1   0.501311 0.173784 0.500624 0.196043
C43   C     C_1   0.505940 0.825683 0.501886 0.155671
C44   C     C_3   0.526988 0.436643 0.968991 0.471686
C45   C     C_R   0.899349 0.492423 0.507260 -0.196117
C46   C     C_3   0.471947 0.564929 0.031030 0.456299
C47   C     C_3   0.544830 0.509841 0.029575 0.461506
C48   C     C_3   0.454140 0.491883 0.970505 0.452078
C49   C     C_3   0.481631 0.427541 0.029219 0.237046
C50   C     C_3   0.517251 0.574173 0.970750 0.246169
C51   C     C_R   0.178437 0.421105 0.473778 0.626357
C52   C     C_R   0.824645 0.572424 0.517759 0.642231
C53   C     C_3   0.499398 0.500402 0.090319 -0.375481
C54   C     C_3   0.499494 0.501245 0.909713 -0.386174
C55   C     C_1   0.499746 0.500117 0.189966 0.304418
C56   C     C_R   0.127730 0.416883 0.475040 -0.162964
C57   C     C_1   0.499760 0.500684 0.810042 0.363496
C58   C     C_R   0.177297 0.542949 0.569811 0.582100
C59   C     C_R   0.822542 0.425326 0.477506 0.580380
C60   C     C_R   0.280605 0.445007 0.578699 0.411828
C61   C     C_R   0.723554 0.492175 0.578262 0.407612
C62   C     C_R   0.330847 0.447161 0.571375 0.450678
C63   C     C_R   0.673165 0.493572 0.579063 0.469681
C64   C     C_R   0.325133 0.534090 0.436342 0.410961
C65   C     C_R   0.673319 0.517921 0.417475 0.416652
C66   C     C_R   0.274716 0.533114 0.445761 -0.292740
C67   C     C_R   0.875249 0.570502 0.523429 -0.158563
C68   C     C_R   0.723730 0.514770 0.417541 -0.284362
C69   C     C_R   0.252874 0.487515 0.515054 0.081915
C70   C     C_R   0.748506 0.502914 0.497283 0.065828
C71   C     C_3   0.334188 0.556312 0.283336 0.127148
C72   C     C_3   0.361785 0.476018 0.254126 -0.366869
C73   C     C_3   0.350214 0.451556 0.157667 -0.827537
C74   C     C_3   0.654588 0.613244 0.306157 0.103516
C75   C     C_3   0.608788 0.664411 0.327785 -0.284899
C76   C     C_3   0.611940 0.754646 0.291393 -0.990670
C77   C     C_3   0.479117 0.996576 0.271575 0.159268
C78   C     C_R   0.102276 0.355345 0.425055 0.359945
C79   C     C_3   0.497375 0.967056 0.179729 -0.361080
C80   C     C_3   0.483659 0.029257 0.106127 -0.963889
C81   C     C_3   0.553966 0.036100 0.720053 0.144027
C82   C     C_3   0.550273 0.067823 0.816748 -0.364625
C83   C     C_3   0.592969 0.037240 0.872058 -0.925753
C84   C     C_3   0.556374 0.699504 0.004744 0.185793
C85   C     C_3   0.559300 0.792609 0.976625 -0.340099
C86   C     C_3   0.586441 0.845089 0.045946 -1.008165
C87   C     C_3   0.455617 0.292231 0.993706 0.170808
C88   C     C_3   0.418602 0.225919 0.022925 -0.363925
C89   C     C_R   0.902340 0.644210 0.542944 0.336887
C90   C     C_3   0.412672 0.156962 0.951655 -0.922487
C91   C     C_3   0.118731 0.212766 0.406905 0.136818
C92   C     C_3   0.154201 0.191804 0.482078 -0.344982
C93   C     C_3   0.146507 0.101829 0.517050 -0.909003
C94   C     C_3   0.877566 0.749448 0.638166 0.164183
C95   C     C_3   0.851648 0.835264 0.643123 -0.316639
C96   C     C_3   0.847630 0.867545 0.739417 -0.949305
C97   C     C_3   0.751750 0.400263 0.683109 0.107661
C98   C     C_3   0.787904 0.392317 0.759382 -0.325320
C99   C     C_3   0.791803 0.300881 0.792223 -0.944709
C100  C     C_R   0.126802 0.540094 0.576339 -0.214899
C101  C     C_3   0.261004 0.439018 0.727132 0.119479
C102  C     C_3   0.228625 0.393730 0.795037 -0.344535
C103  C     C_3   0.230599 0.436666 0.886796 -0.942013
C104  C     C_3   0.865301 0.222674 0.536698 0.152647
C105  C     C_3   0.838632 0.139722 0.517552 -0.279022
C106  C     C_3   0.830396 0.088320 0.602778 -0.990440
C107  C     C_3   0.135784 0.601211 0.770645 0.147493
C108  C     C_3   0.094408 0.599398 0.839499 -0.336267
C109  C     C_3   0.109788 0.555322 0.925598 -0.981445
C110  C     C_3   0.032966 0.358701 0.269957 0.123725
F1    F     F_    0.593345 0.944992 0.560087 -0.678593
F2    F     F_    0.025877 0.655624 0.679509 -0.634860
F3    F     F_    0.416242 0.052338 0.445837 -0.618750
F4    F     F_    0.591677 0.518034 0.059785 -0.623305
F5    F     F_    0.407260 0.482466 0.940862 -0.635284
F6    F     F_    0.555773 0.370887 0.937441 -0.619004
F7    F     F_    0.443567 0.631384 0.062196 -0.632594
F8    F     F_    0.649722 0.484772 0.658785 -0.611465
F9    F     F_    0.357784 0.401570 0.629930 -0.627845
F10   F     F_    0.969963 0.261404 0.466479 -0.637298
H1    H     H_    0.252077 0.568430 0.400238 0.173755
H2    H     H_    0.659372 0.610569 0.232228 0.192587
H3    H     H_    0.044928 0.822178 0.334665 0.270077
H4    H     H_    0.584013 0.946790 0.330163 0.164694
H5    H     H_    0.630790 0.981785 0.406014 0.203518
H6    H     H_    0.606523 0.065388 0.225438 0.236355
H7    H     H_    0.655283 0.093635 0.299033 0.249339
H8    H     H_    0.690847 0.947169 0.278513 0.273363
H9    H     H_    0.684844 0.002936 0.173720 0.282085
H10   H     H_    0.642204 0.921027 0.202867 0.271891
H11   H     H_    0.456609 0.953011 0.741645 0.177131
H12   H     H_    0.487381 0.869374 0.679448 0.122571
H13   H     H_    0.686808 0.647164 0.332939 0.123365
H14   H     H_    0.381415 0.867165 0.743043 0.246811
H15   H     H_    0.410909 0.785573 0.677032 0.241099
H16   H     H_    0.470758 0.762280 0.799666 0.280513
H17   H     H_    0.409538 0.748191 0.839005 0.294276
H18   H     H_    0.441536 0.844610 0.865979 0.254641
H19   H     H_    0.577122 0.632244 0.297580 0.252378
H20   H     H_    0.603381 0.667593 0.401552 0.209145
H21   H     H_    0.641632 0.789826 0.324520 0.275977
H22   H     H_    0.577369 0.788554 0.304835 0.286241
H23   H     H_    0.618593 0.753202 0.217979 0.264989
H24   H     H_    0.495711 0.059615 0.286221 0.159834
H25   H     H_    0.439196 0.004341 0.269928 0.197890
H26   H     H_    0.537340 0.961446 0.181613 0.224268
H27   H     H_    0.743739 0.522147 0.355391 0.186605
H28   H     H_    0.482043 0.903574 0.163860 0.255812
H29   H     H_    0.443747 0.035121 0.102193 0.277704
H30   H     H_    0.497668 0.005640 0.040651 0.271291
H31   H     H_    0.499624 0.092690 0.119534 0.275049
H32   H     H_    0.588403 0.059177 0.689883 0.202756
H33   H     H_    0.553703 0.965278 0.720856 0.150705
H34   H     H_    0.549293 0.138473 0.817658 0.261147
H35   H     H_    0.516237 0.044024 0.847592 0.211405
H36   H     H_    0.594825 0.966720 0.871424 0.265622
H37   H     H_    0.588555 0.059421 0.942374 0.272128
H38   H     H_    0.343987 0.608437 0.236670 0.194230
H39   H     H_    0.627273 0.063196 0.844579 0.279156
H40   H     H_    0.593617 0.674925 0.015108 0.193864
H41   H     H_    0.535845 0.696434 0.069313 0.157666
H42   H     H_    0.578179 0.797549 0.910843 0.237622
H43   H     H_    0.522151 0.818652 0.969499 0.235797
H44   H     H_    0.569601 0.837185 0.113065 0.267794
H45   H     H_    0.585109 0.913363 0.027899 0.281287
H46   H     H_    0.624824 0.824552 0.048752 0.277095
H47   H     H_    0.490725 0.259941 0.979993 0.190810
H48   H     H_    0.442445 0.322091 0.930768 0.173948
H49   H     H_    0.294673 0.546797 0.275727 0.120934
H50   H     H_    0.430344 0.196311 0.086587 0.236388
H51   H     H_    0.383144 0.257484 0.034986 0.240707
H52   H     H_    0.399572 0.185173 0.888204 0.289320
H53   H     H_    0.385922 0.109387 0.975149 0.271767
H54   H     H_    0.447648 0.124141 0.938824 0.261959
H55   H     H_    0.124940 0.167227 0.350898 0.167942
H56   H     H_    0.080879 0.202312 0.430348 0.177616
H57   H     H_    0.191843 0.197455 0.456392 0.279344
H58   H     H_    0.149174 0.237440 0.538422 0.224274
H59   H     H_    0.109357 0.095038 0.544788 0.269273
H60   H     H_    0.401147 0.487591 0.259076 0.256816
H61   H     H_    0.172763 0.088518 0.571080 0.284051
H62   H     H_    0.152121 0.054682 0.462330 0.270404
H63   H     H_    0.914312 0.756890 0.666950 0.180286
H64   H     H_    0.856810 0.702484 0.678779 0.152123
H65   H     H_    0.871895 0.882498 0.602411 0.228593
H66   H     H_    0.814784 0.828856 0.614934 0.257617
H67   H     H_    0.826850 0.821903 0.781106 0.276107
H68   H     H_    0.828563 0.929741 0.740553 0.275458
H69   H     H_    0.884146 0.876167 0.768326 0.271996
H70   H     H_    0.764309 0.358936 0.626637 0.137851
H71   H     H_    0.352129 0.422286 0.298850 0.225685
H72   H     H_    0.715793 0.377833 0.706958 0.204508
H73   H     H_    0.824034 0.413817 0.735689 0.217178
H74   H     H_    0.776289 0.433787 0.816105 0.256123
H75   H     H_    0.756175 0.278301 0.817121 0.282684
H76   H     H_    0.818121 0.297542 0.847824 0.274252
H77   H     H_    0.804543 0.258640 0.737176 0.251783
H78   H     H_    0.248645 0.506299 0.721949 0.150699
H79   H     H_    0.298769 0.437868 0.752065 0.215757
H80   H     H_    0.190733 0.394268 0.770951 0.215766
H81   H     H_    0.240518 0.326499 0.801476 0.251776
H82   H     H_    0.310975 0.438856 0.150608 0.252421
H83   H     H_    0.267957 0.434436 0.913337 0.293719
H84   H     H_    0.206247 0.403035 0.934216 0.268503
H85   H     H_    0.218686 0.503958 0.882062 0.261521
H86   H     H_    0.842995 0.261977 0.583657 0.120415
H87   H     H_    0.900384 0.207155 0.568976 0.158505
H88   H     H_    0.803131 0.154289 0.486800 0.247666
H89   H     H_    0.860162 0.100841 0.469268 0.238172
H90   H     H_    0.865443 0.072534 0.634491 0.273119
H91   H     H_    0.811621 0.028130 0.585970 0.278258
H92   H     H_    0.807553 0.124682 0.650991 0.268941
H93   H     H_    0.370559 0.393175 0.138853 0.289261
H94   H     H_    0.167325 0.633162 0.801473 0.181507
H95   H     H_    0.147742 0.535119 0.754353 0.107968
H96   H     H_    0.082835 0.665499 0.855413 0.263475
H97   H     H_    0.063159 0.564551 0.811275 0.235999
H98   H     H_    0.120404 0.488445 0.911347 0.271984
H99   H     H_    0.079158 0.555281 0.974119 0.276677
H100  H     H_    0.140681 0.589267 0.956300 0.271921
H101  H     H_    0.028458 0.310598 0.216025 0.178624
H102  H     H_    0.069494 0.386971 0.259571 0.140606
H103  H     H_    0.957605 0.398360 0.271540 0.248644
H104  H     H_    0.360924 0.503383 0.111335 0.310362
H105  H     H_    0.999223 0.478505 0.309593 0.211907
H106  H     H_    0.030819 0.496085 0.153480 0.262427
H107  H     H_    0.966642 0.515585 0.161174 0.271869
H108  H     H_    0.988552 0.416613 0.114538 0.268662
H109  H     H_    0.989428 0.816745 0.468539 0.180418
H110  H     H_    0.951252 0.738256 0.420340 0.139943
H111  H     H_    0.060942 0.716379 0.455876 0.250050
H112  H     H_    0.022666 0.640675 0.399834 0.212142
H113  H     H_    0.005894 0.746302 0.279490 0.264484
H114  H     H_    0.069612 0.724365 0.290075 0.270298
N1    N     N_R   0.201550 0.483602 0.520058 -0.317193
N2    N     N_R   0.799931 0.500505 0.496175 -0.322347
N3    N     N_1   0.500020 0.500000 0.268010 -0.114929
N4    N     N_1   0.499980 0.500000 0.731990 -0.082736
O1    O     O_R   0.500000 0.376780 0.574460 -0.591479
O2    O     O_2   0.799903 0.644978 0.533945 -0.516581
O3    O     O_2   0.795976 0.357588 0.452587 -0.530338
O4    O     O_2   0.202156 0.605604 0.610498 -0.540183
O5    O     O_3   0.347611 0.582700 0.370644 -0.605504
O6    O     O_3   0.649416 0.528615 0.337084 -0.580253
O7    O     O_3   0.490857 0.933746 0.335109 -0.623475
O8    O     O_3   0.514616 0.068512 0.671648 -0.621755
O9    O     O_3   0.534067 0.652134 0.936190 -0.602426
O10   O     O_3   0.461534 0.351964 0.063554 -0.612317
O11   O     O_3   0.126912 0.295692 0.373239 -0.595095
O12   O     O_R   0.500000 0.623220 0.425540 -0.618124
O13   O     O_3   0.880274 0.723212 0.547659 -0.604153
O14   O     O_3   0.748945 0.486375 0.657351 -0.602359
O15   O     O_3   0.258020 0.396557 0.643781 -0.611316
O16   O     O_3   0.872780 0.266037 0.455067 -0.559361
O17   O     O_3   0.122663 0.648900 0.694126 -0.556436
O18   O     O_3   0.028088 0.315927 0.352894 -0.586023
O19   O     O_3   0.979670 0.713472 0.549280 -0.586240
O20   O     O_3   0.573884 0.066134 0.390843 -0.620622
O21   O     O_3   0.432897 0.937151 0.611842 -0.569221
O22   O     O_R   0.500010 0.376780 0.425520 -0.615543
O23   O     O_R   0.499990 0.623220 0.574480 -0.622821
O24   O     O_R   0.428750 0.500010 0.574460 -0.574074
O25   O     O_R   0.571250 0.499990 0.425540 -0.585893
O26   O     O_R   0.428760 0.500020 0.425520 -0.610950
O27   O     O_R   0.571240 0.499980 0.574480 -0.550762
O28   O     O_2   0.204799 0.364843 0.425391 -0.515809
Zn1   Zn    Zn3+2 0.499990 0.500000 0.599450 1.073426
Zn2   Zn    Zn3+2 0.500010 0.500000 0.400550 1.013626

loop_
_geom_bond_atom_site_label_1
_geom_bond_atom_site_label_2
_ccdc_geom_bond_type
C61   C70   A    
C44   C49   S    
C47   F4    S    
C87   C88   S    
C7    H113  S    
C28   O25   A    
C34   C56   A    
C101  C102  S    
C6    H112  S    
C74   H13   S    
C80   H31   S    
C30   O19   S    
C96   H68   S    
C105  C106  S    
C36   C42   T    
C59   N2    A    
C86   H46   S    
C46   C53   S    
C11   H12   S    
C97   C98   S    
C84   H40   S    
C38   O8    S    
C104  O16   S    
C87   O10   S    
C39   C41   S    
C64   O5    S    
C85   C86   S    
C1    O1    A    
C80   H30   S    
C107  H94   S    
C90   H53   S    
C95   H65   S    
C9    H7    S    
C84   O9    S    
C51   N1    A    
N4    Zn1   S    
C19   C21   A    
C102  H81   S    
C24   C26   A    
O23   Zn1   S    
C23   O12   A    
C26   O17   S    
C16   C19   A    
C5    C6    S    
C4    H107  S    
C66   C69   A    
C22   F10   S    
C3    C110  S    
C15   C65   A    
C51   O28   S    
C99   H75   S    
C67   C89   A    
C56   C78   A    
C108  C109  S    
C98   H74   S    
C60   C62   A    
C51   C56   A    
C104  H87   S    
C58   O4    S    
C81   H33   S    
C103  H84   S    
C60   O15   S    
C3    H103  S    
C109  H98   S    
C83   H39   S    
C39   O7    S    
C93   H61   S    
C29   O18   S    
C97   H72   S    
C87   H47   S    
C29   C78   A    
C14   H18   S    
C110  O18   S    
C8    C9    S    
C12   H15   S    
C24   F2    S    
C33   O20   S    
C45   C67   A    
C34   C100  A    
C107  C108  S    
C71   H49   S    
C18   C30   A    
C104  H86   S    
C32   F3    S    
C47   C50   S    
C89   O13   S    
C9    C10   S    
C3    H105  S    
C72   H71   S    
C18   C20   A    
C57   N4    T    
C44   C47   S    
O26   Zn2   S    
C47   C53   S    
C1    O22   A    
C74   O6    S    
C76   H21   S    
C77   C79   S    
C7    H114  S    
C88   H51   S    
C12   H14   S    
C6    H111  S    
C94   O13   S    
C85   H42   S    
C41   C43   S    
C96   H67   S    
C73   H93   S    
O25   Zn2   S    
C86   H45   S    
C94   H64   S    
C30   C89   A    
C10   H8    S    
C104  C105  S    
C75   H20   S    
C81   C82   S    
C97   O14   S    
C53   C55   S    
C2    C45   A    
C93   H59   S    
C80   H29   S    
C65   O6    S    
C46   C48   S    
C17   C24   A    
C88   H50   S    
C74   C75   S    
C13   C62   A    
O1    Zn1   S    
C33   C40   S    
C32   C35   S    
C35   O21   S    
C79   H26   S    
C35   C38   S    
C58   C100  A    
C84   C85   S    
C58   N1    A    
C95   H66   S    
C7    H3    S    
O24   Zn1   S    
C63   F8    S    
C2    C59   A    
C8    H4    S    
C83   H36   S    
C23   C37   S    
C27   O24   A    
C99   H76   S    
C22   C25   A    
C17   C21   A    
C28   O27   A    
C46   F7    S    
C11   O21   S    
C96   H69   S    
C37   C43   T    
C48   C54   S    
C75   C76   S    
C10   H10   S    
C109  H99   S    
C102  H80   S    
C26   C100  A    
C33   C39   S    
C93   H62   S    
C87   H48   S    
C83   H37   S    
C14   H17   S    
C16   C20   A    
C65   C68   A    
C106  H92   S    
C99   H77   S    
C5    O19   S    
C17   C18   A    
C66   H1    S    
C91   H55   S    
C94   C95   S    
C70   N2    S    
C55   N3    T    
O27   Zn1   S    
C44   F6    S    
C62   F9    S    
C108  H96   S    
C68   H27   S    
C92   H58   S    
C48   F5    S    
C108  H97   S    
C48   C49   S    
C74   H2    S    
C12   C14   S    
C82   C83   S    
C4    H106  S    
N3    Zn2   S    
C85   H43   S    
C5    H109  S    
C79   H28   S    
C86   H44   S    
C94   H63   S    
C82   H35   S    
C105  H89   S    
C90   H52   S    
C50   O9    S    
C110  H102  S    
C77   H25   S    
C91   C92   S    
C32   C40   S    
C52   N2    A    
C105  H88   S    
C91   O11   S    
C71   H38   S    
C90   H54   S    
C101  O15   S    
C97   H70   S    
C31   C33   S    
C16   C22   A    
C31   C41   S    
C73   H104  S    
C23   O23   A    
C101  H78   S    
C81   O8    S    
C61   C63   A    
C20   C45   A    
C52   C67   A    
C72   C73   S    
C106  H90   S    
C11   H11   S    
C11   C12   S    
C101  H79   S    
C6    C7    S    
C21   C34   A    
C81   H32   S    
C73   H82   S    
C46   C50   S    
C9    H6    S    
C31   C38   S    
C15   C63   A    
C59   O3    S    
C72   H60   S    
O22   Zn2   S    
C88   C90   S    
C69   N1    S    
C77   H24   S    
C71   O5    S    
C71   C72   S    
C50   C54   S    
C109  H100  S    
C75   H19   S    
C38   C40   S    
C15   C28   S    
C13   C64   A    
C14   H16   S    
C60   C69   A    
C61   O14   S    
C49   C53   S    
C106  H91   S    
C25   O16   S    
C40   C42   S    
C92   C93   S    
C107  O17   S    
C2    C25   A    
C77   O7    S    
C4    H108  S    
C8    O20   S    
C102  C103  S    
C35   C41   S    
C103  H83   S    
C10   H9    S    
C49   O10   S    
C103  H85   S    
C92   H57   S    
C52   O2    S    
O12   Zn2   S    
C79   C80   S    
C82   H34   S    
C76   H23   S    
C44   C54   S    
C8    H5    S    
C91   H56   S    
C107  H95   S    
C98   H73   S    
C68   C70   A    
C98   C99   S    
C27   O26   A    
C95   C96   S    
C32   C39   S    
C78   O11   S    
C31   F1    S    
C5    H110  S    
C13   C27   S    
C110  H101  S    
C76   H22   S    
C84   H41   S    
C3    C4    S    
C1    C36   S    
C64   C66   A    
C54   C57   S    
C19   C29   A    
