data_mof_unit_3445.cif
_audit_creation_date              2013-03-05T16:44:15-0500
_audit_creation_method            fapswitch 2.2
_symmetry_space_group_name_H-M    P1
_symmetry_Int_Tables_number       1
_space_group_crystal_system       triclinic
_cell_length_a                    23.142808
_cell_length_b                    10.674294
_cell_length_c                    9.830858
_cell_angle_alpha                 89.332268
_cell_angle_beta                  89.512977
_cell_angle_gamma                 90.041379
_cell_volume                      2428.29422087

loop_
_atom_site_label
_atom_site_type_symbol
_atom_site_description
_atom_site_fract_x
_atom_site_fract_y
_atom_site_fract_z
_atom_type_partial_charge
O1    O     O_R   0.500010 0.316790 0.614690 -0.630459
O2    O     O_R   0.500000 0.316760 0.385350 -0.640478
C1    C     C_R   0.496547 0.260281 0.500822 0.898396
O3    O     O_R   0.416160 0.499980 0.614700 -0.606031
O4    O     O_R   0.416150 0.499940 0.385360 -0.611159
C2    C     C_R   0.389278 0.503575 0.500853 1.011052
Zn1   Zn    Zn3+2 0.500000 0.500020 0.653130 1.014469
Zn2   Zn    Zn3+2 0.500000 0.499980 0.346870 1.033802
O5    O     O_R   0.500000 0.683240 0.614650 -0.572057
O6    O     O_R   0.499990 0.683210 0.385310 -0.544634
O7    O     O_R   0.583850 0.500060 0.614640 -0.598543
O8    O     O_R   0.583840 0.500020 0.385300 -0.628029
C3    C     C_R   0.497966 0.740559 0.498364 0.999614
C4    C     C_R   0.610838 0.498742 0.499155 0.953901
C5    C     C_R   0.882656 0.539867 0.385125 0.670395
N1    N     N_R   0.853987 0.451484 0.461540 -0.334538
C6    C     C_R   0.882194 0.353264 0.521675 0.637221
C7    C     C_R   0.941706 0.338459 0.501432 -0.032086
C8    C     C_R   0.972259 0.430527 0.425806 -0.002136
C9    C     C_R   0.942547 0.530589 0.365109 -0.099886
C10   C     C_R   0.970901 0.234114 0.554219 -0.103772
C11   C     C_R   0.030141 0.222902 0.535053 -0.089702
C12   C     C_R   0.061208 0.318913 0.468906 -0.016092
C13   C     C_R   0.032570 0.423134 0.413001 -0.050723
C14   C     C_R   0.064292 0.516872 0.341133 -0.157495
C15   C     C_R   0.033132 0.613759 0.271517 0.435810
C16   C     C_R   0.972810 0.618375 0.285544 -0.171518
C17   C     C_R   0.121061 0.314943 0.460432 0.600116
N2    N     N_R   0.151261 0.423242 0.434472 -0.335731
C18   C     C_R   0.125557 0.510180 0.349633 0.632410
O9    O     O_2   0.853297 0.636469 0.329120 -0.482808
O10   O     O_2   0.852724 0.271001 0.601147 -0.474675
H1    H     H_    0.948186 0.161202 0.610514 0.217114
H2    H     H_    0.052090 0.142338 0.578579 0.219806
O11   O     O_2   0.147409 0.202835 0.467047 -0.465840
O12   O     O_2   0.159237 0.586259 0.273241 -0.428600
H3    H     H_    0.949068 0.692902 0.235894 0.241959
C19   C     C_R   0.229698 0.572792 0.507272 0.222448
C20   C     C_R   0.289910 0.594241 0.518702 0.260098
C21   C     C_R   0.327131 0.490824 0.504537 -0.246390
C22   C     C_R   0.305691 0.369645 0.518099 -0.354319
H4    H     H_    0.335406 0.292633 0.535314 0.199625
C23   C     C_R   0.246703 0.349791 0.531715 0.354964
C24   C     C_R   0.208690 0.447595 0.491484 -0.008093
C25   C     C_R   0.756729 0.381211 0.398556 0.461505
C26   C     C_R   0.697070 0.394410 0.409778 -0.266011
H5    H     H_    0.668878 0.334389 0.351748 0.198421
C27   C     C_R   0.673049 0.484605 0.495036 -0.159425
C28   C     C_R   0.708386 0.563049 0.570208 -0.244455
H6    H     H_    0.689728 0.634583 0.633855 0.225805
C29   C     C_R   0.768252 0.552165 0.560264 0.321762
C30   C     C_R   0.792626 0.459982 0.475531 0.044154
C31   C     C_R   0.481896 0.062282 0.622519 0.058017
C32   C     C_R   0.483869 0.130276 0.501729 -0.121982
C33   C     C_R   0.473331 0.070237 0.378801 -0.256414
H7    H     H_    0.468685 0.124467 0.285823 0.203805
C34   C     C_R   0.474576 0.940485 0.372514 0.417921
C35   C     C_R   0.487630 0.872427 0.494756 -0.165927
C36   C     C_R   0.486500 0.935556 0.618609 0.039697
C37   C     C_3   0.521419 0.930512 0.747197 0.307761
C38   C     C_3   0.515168 0.072460 0.751274 -0.478778
H8    H     H_    0.498774 0.881502 0.832600 0.155733
H9    H     H_    0.487574 0.104539 0.837096 0.200991
H10   H     H_    0.556072 0.125998 0.736968 0.249663
C39   C     C_R   0.449195 0.501930 0.072277 0.308652
N3    N     N_R   0.499610 0.499140 0.142800 -0.114150
C40   C     C_R   0.550277 0.507439 0.070911 -0.049455
H11   H     H_    0.590911 0.511482 0.124030 0.174350
C41   C     C_R   0.550280 0.507255 0.926984 -0.056927
H12   H     H_    0.590965 0.510782 0.872432 0.191587
N4    N     N_R   0.499610 0.499180 0.857150 -0.125605
C42   C     C_R   0.449192 0.502104 0.929459 0.214588
C43   C     C_3   0.402605 0.405725 0.925616 -0.478762
C44   C     C_3   0.402615 0.405519 0.080047 -0.482878
H13   H     H_    0.362077 0.443673 0.881451 0.234713
H14   H     H_    0.417627 0.315932 0.881246 0.222139
H15   H     H_    0.362057 0.443359 0.124849 0.241631
H16   H     H_    0.417600 0.315610 0.125838 0.219085
N5    N     N_R   0.804032 0.639841 0.630074 0.232800
O13   O     O_R   0.844111 0.600795 0.712072 -0.321833
O14   O     O_R   0.794234 0.759379 0.617372 -0.288593
S1    S     S_3+6 0.465824 0.874649 0.207842 0.058941
O15   O     O_2   0.420391 0.773766 0.212781 -0.210998
O16   O     O_2   0.447565 0.972528 0.105721 -0.326960
O17   O     O_3   0.528832 0.812053 0.155752 -0.531127
H17   H     H_    0.555086 0.884333 0.142510 0.372397
S2    S     S_3+6 0.595563 0.884982 0.726115 0.035246
O18   O     O_2   0.630936 0.944162 0.835762 -0.226555
O19   O     O_2   0.600629 0.745260 0.738767 -0.319338
O20   O     O_3   0.620584 0.932784 0.572915 -0.557231
H18   H     H_    0.659850 0.896791 0.565942 0.408709
S3    S     S_3+6 0.065486 0.736618 0.173201 0.127668
O21   O     O_2   0.101972 0.683691 0.060606 -0.173759
O22   O     O_2   0.019802 0.819161 0.111249 -0.277218
O23   O     O_3   0.106616 0.824248 0.275071 -0.433174
H19   H     H_    0.111544 0.905398 0.226543 0.405656
N6    N     N_R   0.189787 0.674774 0.522021 0.258644
O24   O     O_R   0.195258 0.775728 0.447496 -0.192137
O25   O     O_R   0.147792 0.667138 0.610730 -0.313083
S4    S     S_3+6 0.318875 0.744922 0.558012 0.092839
O26   O     O_2   0.339959 0.805905 0.428649 -0.208343
O27   O     O_2   0.275000 0.829327 0.623359 -0.167444
O28   O     O_3   0.374789 0.731139 0.665456 -0.579596
H20   H     H_    0.357325 0.726951 0.757664 0.376746
N7    N     N_R   0.228637 0.250670 0.622396 0.263626
O29   O     O_R   0.190201 0.272695 0.716673 -0.324054
O30   O     O_R   0.256168 0.144228 0.624474 -0.265777
S5    S     S_3+6 0.784756 0.268056 0.285123 0.084234
O31   O     O_2   0.801041 0.152678 0.365018 -0.222883
O32   O     O_2   0.740083 0.233722 0.181995 -0.243438
O33   O     O_3   0.843571 0.324421 0.203162 -0.543026
H21   H     H_    0.864289 0.249365 0.169498 0.400444

loop_
_geom_bond_atom_site_label_1
_geom_bond_atom_site_label_2
_geom_bond_distance
_ccdc_geom_bond_type
S2    O18   1.503737 D    
C22   H4    1.084834 S    
Zn2   N3    2.006405 S    
C7    C10   1.399986 A    
C43   H13   1.111621 S    
C43   C44   1.518166 S    
C8    C9    1.401022 A    
C33   H7    1.082391 S    
C28   H6    1.080747 S    
N6    O24   1.301493 A    
C31   C36   1.357943 A    
C31   C32   1.384881 A    
Zn1   O7    1.973911 S    
N7    O30   1.303089 A    
C15   C16   1.402587 A    
C17   N2    1.370738 A    
C19   N6    1.435984 S    
Zn1   N4    2.005551 S    
C19   C20   1.417608 A    
O7    C4    1.291343 A    
C10   H1    1.082941 S    
C15   S3    1.780856 S    
C5    N1    1.367016 A    
C34   S1    1.785359 S    
S5    O31   1.502954 D    
C37   H8    1.111360 S    
C7    C8    1.411234 A    
C23   N7    1.435283 S    
C20   S4    1.789701 S    
C41   N4    1.367021 A    
O5    C3    1.291546 A    
S4    O26   1.499630 D    
C32   C33   1.397664 A    
C31   C38   1.492160 S    
O33   H21   0.992638 S    
C17   O11   1.344613 S    
N1    C6    1.366731 A    
C28   C29   1.393117 A    
C44   H15   1.111682 S    
C12   C13   1.404246 A    
C25   S5    1.772959 S    
N3    C40   1.366212 A    
C36   C37   1.506603 S    
C10   C11   1.387718 A    
C22   C23   1.386448 A    
O3    Zn1   1.979882 S    
S4    O27   1.503048 D    
N6    O25   1.302135 A    
C37   S2    1.794711 S    
C34   C35   1.431554 A    
C5    C9    1.402027 A    
C11   H2    1.084623 S    
C26   C27   1.396473 A    
C40   H11   1.080613 S    
C13   C14   1.418777 A    
O3    C2    1.285309 A    
C20   C21   1.408165 A    
N5    O14   1.300899 A    
C4    C27   1.448013 S    
C3    C35   1.428031 S    
C25   C30   1.412188 A    
C14   C15   1.432110 A    
O17   H17   0.988442 S    
S4    O28   1.682771 S    
C39   C44   1.490690 S    
C29   C30   1.411462 A    
C37   C38   1.523147 S    
O1    C1    1.280844 A    
C38   H10   1.112461 S    
C23   C24   1.420520 A    
C19   C24   1.432332 A    
N2    C18   1.379075 A    
Zn2   O8    1.979880 S    
S3    O22   1.504944 D    
C6    C7    1.399222 A    
C12   C17   1.387674 A    
C21   C22   1.389621 A    
O8    C4    1.286439 A    
S1    O15   1.504600 D    
S1    O16   1.503799 D    
S2    O19   1.499916 D    
N2    C24   1.470956 S    
C43   H14   1.112403 S    
C2    C21   1.444688 S    
C39   C42   1.404009 A    
C14   C18   1.422817 A    
Zn1   O5    1.987662 S    
C26   H5    1.084360 S    
C27   C28   1.392755 A    
O1    Zn1   1.996343 S    
C38   H9    1.111216 S    
O2    Zn2   1.987660 S    
N1    C30   1.428593 S    
C42   C43   1.490713 S    
O6    C3    1.275622 A    
O4    Zn2   1.973912 S    
C5    O9    1.349900 S    
C9    C16   1.397519 A    
S1    O17   1.682758 S    
N7    O29   1.302646 A    
S5    O33   1.683091 S    
C18   O12   1.343854 S    
C33   C34   1.387421 A    
O2    C1    1.280986 A    
C35   C36   1.398522 A    
N4    C42   1.361703 A    
O20   H18   0.989008 S    
O4    C2    1.290910 A    
C16   H3    1.081276 S    
S3    O21   1.502259 D    
C1    C32   1.418098 S    
S5    O32   1.502328 D    
C8    C13   1.402731 A    
S3    O23   1.679474 S    
C41   H12   1.080041 S    
C29   N5    1.433886 S    
N5    O13   1.299726 A    
C25   C26   1.391532 A    
Zn2   O6    1.996344 S    
C39   N3    1.362412 A    
C44   H16   1.112230 S    
S2    O20   1.682499 S    
O28   H20   0.989875 S    
C6    O10   1.349330 S    
C11   C12   1.401988 A    
C40   C41   1.414951 A    
O23   H19   0.990079 S    
