data_mof_unit_4262.cif
_audit_creation_date              2012-12-10T18:58:42-0500
_audit_creation_method            fapswitch 2.2
_symmetry_space_group_name_H-M    P1
_symmetry_Int_Tables_number       1
_space_group_crystal_system       triclinic
_cell_length_a                    10.721712
_cell_length_b                    9.756314
_cell_length_c                    17.12037
_cell_angle_alpha                 92.698814
_cell_angle_beta                  90.146969
_cell_angle_gamma                 90.010713
_cell_volume                      1788.87353222

loop_
_atom_site_label
_atom_site_type_symbol
_atom_type_description
_atom_site_fract_x
_atom_site_fract_y
_atom_site_fract_z
_atom_type_partial_charge
C1    C     C_R   0.259601 0.499993 0.499976 0.877193
C2    C     C_R   0.503450 0.504092 0.648846 0.881990
C3    C     C_R   0.872702 0.500016 0.499974 -0.012660
C4    C     C_R   0.127318 0.499999 0.499949 -0.014214
C5    C     C_R   0.421566 0.647693 0.853551 0.151980
C6    C     C_R   0.373193 0.381865 0.150548 0.133630
C7    C     C_R   0.416642 0.629397 0.158976 0.158034
C8    C     C_R   0.398292 0.397006 0.842850 0.164117
C9    C     C_R   0.471321 0.645368 0.776674 0.104490
C10   C     C_R   0.430711 0.368167 0.224798 0.102675
C11   C     C_R   0.491903 0.611586 0.225007 0.131408
C12   C     C_R   0.740409 0.500009 0.499996 0.861501
C13   C     C_R   0.475203 0.393429 0.776366 0.138771
C14   C     C_R   0.490196 0.515220 0.735599 -0.239900
C15   C     C_R   0.481211 0.488457 0.264945 -0.209804
C16   C     C_R   0.593170 0.075260 0.536609 -0.090225
C17   C     C_R   0.406839 0.924700 0.463406 -0.086868
C18   C     C_R   0.406586 0.069120 0.463681 -0.082670
C19   C     C_R   0.593214 0.930810 0.536561 -0.084813
C20   C     C_R   0.380538 0.523517 0.884364 -0.018095
C21   C     C_R   0.367757 0.512570 0.118540 -0.023334
C22   C     C_3   0.413963 0.780686 0.904362 -0.394165
C23   C     C_1   0.352795 0.521822 0.966176 -0.039834
C24   C     C_3   0.532105 0.802245 0.953598 -0.910161
C25   C     C_3   0.311793 0.260413 0.105633 -0.384042
C26   C     C_3   0.407184 0.171512 0.060338 -0.898405
C27   C     C_3   0.382351 0.773208 0.134921 -0.399758
C28   C     C_3   0.292975 0.841938 0.194054 -0.911486
C29   C     C_3   0.333710 0.266620 0.867639 -0.419400
C30   C     C_3   0.234540 0.219843 0.807917 -0.894035
C31   C     C_3   0.513479 0.780192 0.742734 -0.355107
C32   C     C_3   0.405359 0.856362 0.704854 -0.822873
C33   C     C_3   0.443308 0.225939 0.258553 -0.358112
C34   C     C_1   0.348897 0.519591 0.035923 -0.042696
C35   C     C_3   0.579833 0.180710 0.263604 -0.811992
C36   C     C_3   0.593472 0.716792 0.246568 -0.373008
C37   C     C_3   0.694711 0.716895 0.183735 -0.912838
C38   C     C_3   0.553549 0.265619 0.756705 -0.378932
C39   C     C_3   0.649714 0.241933 0.820940 -0.915722
C40   C     C_R   0.063801 0.375831 0.487448 -0.199996
C41   C     C_R   0.936224 0.624191 0.512445 -0.200211
C42   C     C_R   0.936068 0.375836 0.487480 -0.201830
C43   C     C_R   0.063958 0.624183 0.512439 -0.201144
C44   C     C_R   0.500287 0.496104 0.351238 0.872527
H1    H     H_    0.667179 0.132895 0.565973 0.123502
H2    H     H_    0.615552 0.808366 0.915745 0.258039
H3    H     H_    0.524529 0.899498 0.989577 0.248105
H4    H     H_    0.398191 0.872285 0.870161 0.210412
H5    H     H_    0.331305 0.779317 0.943100 0.193963
H6    H     H_    0.463111 0.235308 0.021388 0.263482
H7    H     H_    0.471513 0.119614 0.100056 0.265618
H8    H     H_    0.357711 0.091293 0.024000 0.245863
H9    H     H_    0.254633 0.198421 0.144688 0.178743
H10   H     H_    0.241785 0.296291 0.063329 0.199762
H11   H     H_    0.207668 0.778449 0.199429 0.264952
H12   H     H_    0.332735 0.867052 0.434136 0.128689
H13   H     H_    0.337431 0.856457 0.252463 0.255156
H14   H     H_    0.265096 0.943924 0.173822 0.249017
H15   H     H_    0.465774 0.838730 0.128924 0.217021
H16   H     H_    0.334017 0.770918 0.077734 0.219974
H17   H     H_    0.162532 0.300849 0.802909 0.265044
H18   H     H_    0.276233 0.197186 0.749480 0.261864
H19   H     H_    0.188736 0.125169 0.827251 0.246152
H20   H     H_    0.401070 0.182189 0.875147 0.216465
H21   H     H_    0.285124 0.282682 0.924282 0.223013
H22   H     H_    0.358115 0.791492 0.658887 0.282736
H23   H     H_    0.331741 0.121765 0.435134 0.110549
H24   H     H_    0.333812 0.888726 0.748471 0.230156
H25   H     H_    0.441544 0.949603 0.677945 0.235243
H26   H     H_    0.557233 0.849323 0.788040 0.194316
H27   H     H_    0.591570 0.764100 0.701062 0.204385
H28   H     H_    0.619865 0.166833 0.204026 0.242109
H29   H     H_    0.638001 0.256615 0.297291 0.265698
H30   H     H_    0.585200 0.081316 0.292494 0.234151
H31   H     H_    0.395355 0.222211 0.315441 0.207453
H32   H     H_    0.395801 0.143498 0.224027 0.200255
H33   H     H_    0.740363 0.614657 0.178468 0.264909
H34   H     H_    0.667144 0.878035 0.565980 0.119891
H35   H     H_    0.656402 0.741081 0.125837 0.258347
H36   H     H_    0.766508 0.794992 0.200473 0.252170
H37   H     H_    0.553484 0.821047 0.255926 0.211026
H38   H     H_    0.643739 0.693439 0.300878 0.224834
H39   H     H_    0.715769 0.329703 0.825798 0.264071
H40   H     H_    0.605526 0.230518 0.878707 0.259367
H41   H     H_    0.703374 0.147027 0.805839 0.247998
H42   H     H_    0.493585 0.173729 0.747423 0.213525
H43   H     H_    0.609871 0.274716 0.703245 0.222551
H44   H     H_    0.112390 0.279267 0.477286 0.147211
H45   H     H_    0.887637 0.720760 0.522591 0.147533
H46   H     H_    0.887352 0.279266 0.477362 0.152157
H47   H     H_    0.112680 0.720748 0.522584 0.150420
H48   H     H_    0.545353 0.716463 0.993083 0.269170
N1    N     N_R   0.500000 0.857200 0.500000 -0.072094
N2    N     N_R   0.500000 0.142800 0.500000 -0.069290
O1    O     O_R   0.316770 0.614620 0.500000 -0.630059
O2    O     O_R   0.683230 0.385380 0.500000 -0.629773
O3    O     O_R   0.683230 0.614620 0.500000 -0.631244
O4    O     O_R   0.316770 0.385380 0.500000 -0.626294
O5    O     O_R   0.500010 0.614710 0.389120 -0.615069
O6    O     O_R   0.499990 0.385290 0.610880 -0.615608
O7    O     O_R   0.499990 0.614710 0.610880 -0.601044
O8    O     O_R   0.500010 0.385290 0.389120 -0.600378
Zn1   Zn    Zn3+2 0.500000 0.653120 0.500000 0.924802
Zn2   Zn    Zn3+2 0.500000 0.346880 0.500000 0.929001

loop_
_geom_bond_atom_site_label_1
_geom_bond_atom_site_label_2
_ccdc_geom_bond_type
C41   H45   S    
C35   H30   S    
C8    C13   A    
C22   H4    S    
N1    Zn1   S    
C3    C42   A    
C5    C20   A    
C28   H13   S    
C7    C11   A    
C37   H35   S    
C8    C20   A    
C38   H42   S    
C8    C29   S    
C36   C37   S    
C25   H9    S    
C39   H40   S    
C27   H16   S    
C26   H6    S    
C38   C39   S    
C44   O5    A    
C6    C25   S    
O6    Zn2   S    
C7    C27   S    
C3    C12   S    
C11   C15   A    
C33   H31   S    
C31   H26   S    
C35   H29   S    
C5    C22   S    
C4    C40   A    
C36   H38   S    
C19   N1    A    
C32   H24   S    
C40   C42   A    
C29   H20   S    
N2    Zn2   S    
O7    Zn1   S    
C13   C14   A    
C41   C43   A    
C24   H48   S    
C28   H11   S    
O1    Zn1   S    
C37   H36   S    
C25   H10   S    
O5    Zn1   S    
C44   O8    A    
C21   C34   S    
C2    O7    A    
C25   C26   S    
C7    C21   A    
C6    C21   A    
C37   H33   S    
C43   H47   S    
C42   H46   S    
C11   C36   S    
C1    O4    A    
C19   H34   S    
C9    C14   A    
C5    C9    A    
C29   C30   S    
C26   H8    S    
C33   H32   S    
C31   C32   S    
C20   C23   S    
C36   H37   S    
C1    O1    A    
C23   C34   T    
C17   C18   A    
C12   O3    A    
O8    Zn2   S    
C17   H12   S    
C13   C38   S    
O3    Zn1   S    
C22   H5    S    
C29   H21   S    
C35   H28   S    
O2    Zn2   S    
C18   N2    A    
C22   C24   S    
C17   N1    A    
C39   H41   S    
C32   H22   S    
C3    C41   A    
C24   H3    S    
C16   H1    S    
C15   C44   S    
C32   H25   S    
C4    C43   A    
C28   H14   S    
C16   N2    A    
C38   H43   S    
C10   C15   A    
C1    C4    S    
C24   H2    S    
C40   H44   S    
C30   H18   S    
C18   H23   S    
C39   H39   S    
C27   H15   S    
C26   H7    S    
C16   C19   A    
O4    Zn2   S    
C31   H27   S    
C33   C35   S    
C10   C33   S    
C2    C14   S    
C6    C10   A    
C9    C31   S    
C2    O6    A    
C30   H17   S    
C27   C28   S    
C12   O2    A    
C30   H19   S    
