data_mof_unit_4257.cif
_audit_creation_date              2012-10-26T21:11:07-0400
_audit_creation_method            fapswitch 2.2
_symmetry_space_group_name_H-M    P1
_symmetry_Int_Tables_number       1
_space_group_crystal_system       triclinic
_cell_length_a                    10.873445
_cell_length_b                    10.938405
_cell_length_c                    13.140976
_cell_angle_alpha                 91.738204
_cell_angle_beta                  90.3319
_cell_angle_gamma                 88.364837
_cell_volume                      1561.58897571

loop_
_atom_site_label
_atom_site_type_symbol
_atom_type_description
_atom_site_fract_x
_atom_site_fract_y
_atom_site_fract_z
_atom_type_partial_charge
C1    C     C_R   0.496927 0.259528 0.498301 0.549751
C2    C     C_R   0.599053 0.833267 0.737509 -0.116072
C3    C     C_R   0.506465 0.107314 0.301580 -0.033811
C4    C     C_R   0.493650 0.892701 0.698435 -0.033781
C5    C     C_R   0.607838 0.083208 0.237799 -0.095747
C6    C     C_R   0.392369 0.917018 0.762288 -0.095771
C7    C     C_R   0.603395 0.116077 0.135927 0.416119
C8    C     C_R   0.396851 0.884200 0.864170 0.416034
C9    C     C_R   0.496866 0.172357 0.095973 0.149402
C10   C     C_R   0.503323 0.827722 0.904061 0.149302
C11   C     C_R   0.511602 0.929799 0.410417 -0.091516
C12   C     C_R   0.503105 0.740470 0.501699 0.549755
C13   C     C_R   0.488503 0.070201 0.589587 -0.091661
C14   C     C_R   0.504886 0.872924 0.504094 0.047550
C15   C     C_R   0.495198 0.127074 0.495911 0.047495
C16   C     C_R   0.259791 0.500805 0.499800 0.552618
C17   C     C_R   0.740210 0.499158 0.500199 0.552596
C18   C     C_R   0.494688 0.943855 0.595348 0.028464
C19   C     C_R   0.505418 0.056145 0.404660 0.028480
C20   C     C_1   0.500037 0.500077 0.173623 0.129455
C21   C     C_1   0.499964 0.499926 0.826377 0.129460
C22   C     C_1   0.500014 0.500025 0.050687 -0.003422
C23   C     C_R   0.872565 0.499730 0.500503 -0.024651
C24   C     C_1   0.499990 0.499983 0.949313 -0.003411
C25   C     C_R   0.199412 0.895412 0.400157 0.362291
C26   C     C_R   0.800715 0.104444 0.599762 0.362318
C27   C     C_R   0.147882 0.797989 0.449088 -0.057070
C28   C     C_R   0.852187 0.201915 0.550851 -0.057143
C29   C     C_R   0.122606 0.689423 0.394519 -0.001474
C30   C     C_R   0.877400 0.310488 0.605440 -0.001522
C31   C     C_R   0.150560 0.678184 0.289652 0.169548
C32   C     C_R   0.849434 0.321684 0.710310 0.169591
C33   C     C_R   0.205162 0.775645 0.241162 0.103026
C34   C     C_R   0.127434 0.500226 0.499494 -0.024659
C35   C     C_R   0.794895 0.224169 0.758781 0.102975
C36   C     C_R   0.228230 0.884309 0.296865 -0.088239
C37   C     C_R   0.771895 0.115499 0.703058 -0.088313
C38   C     C_R   0.932404 0.591068 0.448062 0.061980
C39   C     C_R   0.067597 0.408885 0.551932 0.061970
C40   C     C_R   0.939604 0.409131 0.552817 -0.011846
C41   C     C_R   0.060395 0.590811 0.447168 -0.011835
C42   C     C_R   0.396235 0.199108 0.160423 -0.146802
C43   C     C_R   0.603862 0.800776 0.839547 -0.146896
C44   C     C_R   0.401014 0.166603 0.262458 -0.116124
Cu1   Cu    Cu3+1 0.499990 0.499990 0.592680 0.981762
Cu2   Cu    Cu3+1 0.500010 0.500010 0.407320 0.981799
F1    F     F_    0.701688 0.089706 0.075343 -0.628384
F2    F     F_    0.298668 0.910846 0.924832 -0.628490
F3    F     F_    0.220354 0.001362 0.452818 -0.657353
F4    F     F_    0.779830 0.998493 0.547080 -0.657336
H1    H     H_    0.267954 0.960489 0.259851 0.128696
H2    H     H_    0.686683 0.756580 0.868545 0.137260
H3    H     H_    0.321239 0.184316 0.310257 0.165621
H4    H     H_    0.678771 0.815416 0.689667 0.165543
H5    H     H_    0.027644 0.556654 0.235251 0.250058
H6    H     H_    0.167769 0.494875 0.263600 0.236737
H7    H     H_    0.972247 0.443332 0.764727 0.250016
H8    H     H_    0.832081 0.504971 0.736382 0.236723
H9    H     H_    0.269798 0.845794 0.109936 0.281237
H10   H     H_    0.304256 0.697511 0.126479 0.255375
H11   H     H_    0.730389 0.153912 0.890018 0.281133
H12   H     H_    0.732213 0.039283 0.740056 0.128658
H13   H     H_    0.695651 0.302154 0.873459 0.255449
H14   H     H_    0.804473 0.730591 0.450442 0.264806
H15   H     H_    0.813872 0.649051 0.338065 0.250962
H16   H     H_    0.195533 0.269365 0.549559 0.264768
H17   H     H_    0.186133 0.350917 0.661931 0.250974
H18   H     H_    0.406736 0.241779 0.972326 0.229593
H19   H     H_    0.497704 0.118391 0.948041 0.249039
H20   H     H_    0.593450 0.758180 0.027665 0.229534
H21   H     H_    0.502661 0.881697 0.051996 0.249058
H22   H     H_    0.689314 0.036240 0.266585 0.160551
H23   H     H_    0.310944 0.964133 0.733553 0.160531
H24   H     H_    0.518442 0.875316 0.340172 0.118862
H25   H     H_    0.481670 0.124689 0.659831 0.118843
H26   H     H_    0.125461 0.807712 0.529206 0.153020
H27   H     H_    0.874621 0.192219 0.470731 0.153008
H28   H     H_    0.313372 0.243165 0.131379 0.137352
N1    N     N_1   0.500030 0.500030 0.268070 -0.177540
N2    N     N_3   0.508264 0.799127 0.009881 -0.605255
N3    N     N_1   0.499970 0.499970 0.731930 -0.177549
N4    N     N_3   0.122317 0.569678 0.231103 -0.579546
N5    N     N_3   0.877591 0.430205 0.768881 -0.579469
N6    N     N_3   0.234065 0.764273 0.134800 -0.524208
N7    N     N_3   0.765966 0.235504 0.865140 -0.524008
N8    N     N_3   0.864696 0.687174 0.398173 -0.592609
N9    N     N_3   0.135309 0.312785 0.601827 -0.592633
N10   N     N_3   0.491961 0.200953 0.990152 -0.605206
O1    O     O_R   0.499980 0.319630 0.578260 -0.512407
O2    O     O_R   0.500020 0.680370 0.421740 -0.512398
O3    O     O_R   0.500000 0.319650 0.421740 -0.486220
O4    O     O_R   0.500000 0.680350 0.578260 -0.486227
O5    O     O_R   0.319630 0.500000 0.578260 -0.494860
O6    O     O_R   0.680370 0.500000 0.421740 -0.494872
O7    O     O_R   0.319650 0.500020 0.421740 -0.504378
O8    O     O_R   0.680350 0.499980 0.578260 -0.504433

loop_
_geom_bond_atom_site_label_1
_geom_bond_atom_site_label_2
_ccdc_geom_bond_type
C27   C29   A    
H10   N6    S    
C14   C18   A    
C39   N9    S    
Cu1   O5    S    
C37   H12   S    
H15   N8    S    
Cu1   Cu2   S    
C15   C19   A    
C11   C19   A    
C9    C42   A    
C17   C23   S    
C31   N4    S    
C13   C18   A    
C38   N8    S    
C12   O2    A    
C35   C37   A    
C5    H22   S    
C26   F4    S    
C9    N10   S    
Cu2   N1    S    
C11   C14   A    
C43   H2    S    
C23   C40   A    
C33   C36   A    
Cu1   O4    S    
C16   C34   S    
C44   H3    S    
Cu2   O7    S    
C13   H25   S    
H7    N5    S    
C3    C19   S    
C1    C15   S    
Cu1   O1    S    
C4    C18   S    
C1    O3    A    
H13   N7    S    
C34   C41   A    
C42   C44   A    
H14   N8    S    
H21   N2    S    
C3    C44   A    
H20   N2    S    
C34   C39   A    
C32   C35   A    
H9    N6    S    
C38   C41   A    
C4    C6    A    
C2    H4    S    
H16   N9    S    
C5    C7    A    
C10   N2    S    
C6    C8    A    
Cu2   O3    S    
C7    F1    S    
C2    C4    A    
C8    F2    S    
Cu2   O6    S    
C2    C43   A    
C31   C33   A    
C16   O5    A    
C30   C40   S    
C17   O8    A    
H5    N4    S    
C28   H27   S    
C36   H1    S    
H19   N10   S    
H11   N7    S    
C21   N3    T    
C42   H28   S    
C13   C15   A    
H18   N10   S    
C22   C24   T    
C20   C22   S    
C27   H26   S    
C39   C40   A    
C6    H23   S    
C7    C9    A    
C32   N5    S    
C16   O7    A    
C1    O1    A    
C20   N1    T    
C29   C41   S    
C10   C43   A    
C26   C28   A    
C12   O4    A    
Cu1   N3    S    
C12   C14   S    
C3    C5    A    
C11   H24   S    
C26   C37   A    
H6    N4    S    
Cu2   O2    S    
C25   C27   A    
C23   C38   A    
H17   N9    S    
C28   C30   A    
C29   C31   A    
H8    N5    S    
C30   C32   A    
C35   N7    S    
C33   N6    S    
C25   F3    S    
C25   C36   A    
C8    C10   A    
C21   C24   S    
C17   O6    A    
Cu1   O8    S    
