data_mof_unit_35.cif
_audit_creation_date              2012-12-10T17:27:07-0500
_audit_creation_method            fapswitch 2.2
_symmetry_space_group_name_H-M    P1
_symmetry_Int_Tables_number       1
_space_group_crystal_system       triclinic
_cell_length_a                    17.571617
_cell_length_b                    18.75511
_cell_length_c                    12.177581
_cell_angle_alpha                 90.000327
_cell_angle_beta                  83.940037
_cell_angle_gamma                 89.999914
_cell_volume                      3990.78846846

loop_
_atom_site_label
_atom_site_type_symbol
_atom_type_description
_atom_site_fract_x
_atom_site_fract_y
_atom_site_fract_z
_atom_type_partial_charge
C1    C     C_R   0.401086 0.101146 0.521739 0.898527
C2    C     C_R   0.536930 0.000115 0.016891 -0.130514
C3    C     C_R   0.963070 0.500113 0.983109 -0.130521
C4    C     C_R   0.036930 0.500115 0.016891 -0.130521
C5    C     C_R   0.590634 0.000280 0.821604 0.506021
C6    C     C_R   0.409365 0.000278 0.178398 0.506039
C7    C     C_R   0.090634 0.500282 0.821605 0.506014
C8    C     C_R   0.909366 0.500280 0.178395 0.506018
C9    C     C_R   0.600143 0.001746 0.933951 -0.283873
C10   C     C_R   0.399857 0.001746 0.066049 -0.283925
C11   C     C_R   0.100143 0.501747 0.933952 -0.283856
C12   C     C_R   0.598047 0.898203 0.478368 0.895110
C13   C     C_R   0.899857 0.501743 0.066048 -0.283854
C14   C     C_R   0.454297 0.000025 0.867563 0.476133
C15   C     C_R   0.545702 0.000025 0.132437 0.476139
C16   C     C_R   0.954298 0.500023 0.867563 0.476141
C17   C     C_R   0.045702 0.500024 0.132438 0.476133
C18   C     C_R   0.655140 0.156922 0.465399 -0.077828
C19   C     C_R   0.348733 0.840024 0.534637 -0.070441
C20   C     C_R   0.344860 0.156922 0.534601 -0.077826
C21   C     C_R   0.651269 0.840025 0.465360 -0.070449
C22   C     C_R   0.155141 0.656920 0.465400 -0.077830
C23   C     C_R   0.598914 0.101145 0.478261 0.898522
C24   C     C_R   0.848734 0.340023 0.534639 -0.070454
C25   C     C_R   0.844863 0.656924 0.534601 -0.077830
C26   C     C_R   0.151266 0.340023 0.465360 -0.070452
C27   C     C_R   0.259267 0.767789 0.648625 -0.215771
C28   C     C_R   0.746764 0.227216 0.351640 -0.224998
C29   C     C_R   0.740765 0.767817 0.351376 -0.215770
C30   C     C_R   0.253235 0.227217 0.648360 -0.224999
C31   C     C_R   0.759243 0.267811 0.648624 -0.215774
C32   C     C_R   0.246742 0.727237 0.351637 -0.224996
C33   C     C_R   0.240759 0.267811 0.351376 -0.215784
C34   C     C_R   0.401953 0.898204 0.521631 0.895127
C35   C     C_R   0.753236 0.727218 0.648360 -0.224998
C36   C     C_R   0.315577 0.819602 0.639468 -0.160240
C37   C     C_R   0.688286 0.177463 0.360644 -0.162495
C38   C     C_R   0.684447 0.819622 0.360531 -0.160238
C39   C     C_R   0.311713 0.177463 0.639357 -0.162489
C40   C     C_R   0.815559 0.319618 0.639468 -0.160235
C41   C     C_R   0.188269 0.677478 0.360643 -0.162486
C42   C     C_R   0.184443 0.319618 0.360531 -0.160228
C43   C     C_R   0.811714 0.677463 0.639356 -0.162494
C44   C     C_R   0.328582 0.806543 0.439439 -0.300810
C45   C     C_R   0.901087 0.601146 0.521739 0.898528
C46   C     C_R   0.678268 0.187716 0.560968 -0.256750
C47   C     C_R   0.671404 0.806530 0.560555 -0.300846
C48   C     C_R   0.321733 0.187717 0.439032 -0.256760
C49   C     C_R   0.828599 0.306527 0.439444 -0.300851
C50   C     C_R   0.178285 0.687700 0.560971 -0.256748
C51   C     C_R   0.171402 0.306529 0.560555 -0.300851
C52   C     C_R   0.821739 0.687721 0.439032 -0.256746
C53   C     C_R   0.270969 0.756746 0.447458 0.183277
C54   C     C_R   0.736026 0.237324 0.552864 0.172457
C55   C     C_R   0.729025 0.756741 0.552539 0.183287
C56   C     C_R   0.098046 0.398203 0.478369 0.895111
C57   C     C_R   0.263976 0.237325 0.447136 0.172458
C58   C     C_R   0.770979 0.256737 0.447460 0.183292
C59   C     C_R   0.236037 0.737314 0.552864 0.172453
C60   C     C_R   0.229022 0.256738 0.552539 0.183291
C61   C     C_R   0.763981 0.737330 0.447135 0.172459
C62   C     C_3   0.290886 0.955273 0.249712 0.064530
C63   C     C_3   0.215696 0.990950 0.227616 -0.346238
C64   C     C_3   0.152280 0.935917 0.221691 -0.903727
C65   C     C_3   0.709090 0.955249 0.750257 0.064585
C66   C     C_3   0.784299 0.990884 0.772366 -0.346257
C67   C     C_R   0.098914 0.601145 0.478261 0.898525
C68   C     C_3   0.847698 0.935820 0.778188 -0.903748
C69   C     C_3   0.790916 0.455242 0.249750 0.064597
C70   C     C_3   0.715701 0.490863 0.227636 -0.346258
C71   C     C_3   0.652310 0.435790 0.221830 -0.903758
C72   C     C_3   0.209085 0.455247 0.750250 0.064597
C73   C     C_3   0.284299 0.490872 0.772362 -0.346267
C74   C     C_3   0.347694 0.435801 0.778165 -0.903752
C75   C     C_R   0.901954 0.398203 0.521631 0.895111
C76   C     C_R   0.463070 0.000116 0.983110 -0.130498
H1    H     H_    0.651859 0.172885 0.642332 0.182828
H2    H     H_    0.331887 0.844506 0.713639 0.221252
H3    H     H_    0.330023 0.154454 0.713603 0.226477
H4    H     H_    0.668149 0.844537 0.286362 0.221281
H5    H     H_    0.169947 0.654480 0.286396 0.226455
H6    H     H_    0.831858 0.344532 0.713637 0.221278
H7    H     H_    0.830021 0.654452 0.713603 0.226479
H8    H     H_    0.168144 0.344533 0.286362 0.221275
H9    H     H_    0.732937 0.252671 0.729808 0.159210
H10   H     H_    0.272781 0.742670 0.270441 0.153969
H11   H     H_    0.267066 0.252671 0.270192 0.159205
H12   H     H_    0.356098 0.820555 0.358361 0.156076
H13   H     H_    0.727179 0.742636 0.729553 0.153976
H14   H     H_    0.232976 0.752636 0.729811 0.159207
H15   H     H_    0.772819 0.242635 0.270446 0.153975
H16   H     H_    0.767074 0.752679 0.270192 0.159212
H17   H     H_    0.227179 0.242637 0.729554 0.153974
H18   H     H_    0.658171 0.005530 0.952383 0.246680
H19   H     H_    0.341829 0.005532 0.047615 0.246680
H20   H     H_    0.158171 0.505534 0.952383 0.246679
H21   H     H_    0.841828 0.505526 0.047617 0.246680
H22   H     H_    0.280982 0.927733 0.330527 0.179502
H23   H     H_    0.348144 0.172886 0.357669 0.182823
H24   H     H_    0.306980 0.913099 0.186752 0.125374
H25   H     H_    0.198172 0.029395 0.295081 0.234592
H26   H     H_    0.223488 0.020943 0.148645 0.240978
H27   H     H_    0.167871 0.897872 0.153064 0.276816
H28   H     H_    0.098347 0.963325 0.206614 0.270871
H29   H     H_    0.142494 0.905969 0.300648 0.260818
H30   H     H_    0.718975 0.927728 0.669424 0.179541
H31   H     H_    0.692980 0.913067 0.813196 0.125339
H32   H     H_    0.801824 0.029360 0.704946 0.234613
H33   H     H_    0.776535 0.020834 0.851379 0.240975
H34   H     H_    0.643870 0.820529 0.641629 0.156068
H35   H     H_    0.832103 0.897737 0.846762 0.276791
H36   H     H_    0.901645 0.963196 0.793288 0.270878
H37   H     H_    0.857461 0.905919 0.699185 0.260828
H38   H     H_    0.781035 0.427727 0.330588 0.179548
H39   H     H_    0.807032 0.413056 0.186819 0.125328
H40   H     H_    0.698171 0.529345 0.295046 0.234617
H41   H     H_    0.723459 0.520805 0.148615 0.240978
H42   H     H_    0.667910 0.397700 0.153266 0.276786
H43   H     H_    0.598359 0.463156 0.206725 0.270881
H44   H     H_    0.642552 0.405897 0.300841 0.260830
H45   H     H_    0.151891 0.672856 0.642337 0.182851
H46   H     H_    0.218966 0.427732 0.669412 0.179548
H47   H     H_    0.192972 0.413062 0.813182 0.125333
H48   H     H_    0.301826 0.529354 0.704951 0.234613
H49   H     H_    0.276541 0.520814 0.851383 0.240975
H50   H     H_    0.332096 0.397711 0.846728 0.276785
H51   H     H_    0.401644 0.463169 0.793269 0.270879
H52   H     H_    0.357451 0.405909 0.699153 0.260829
H53   H     H_    0.723011 0.000173 0.290432 0.366956
H54   H     H_    0.276989 0.000163 0.709567 0.366959
H55   H     H_    0.223011 0.500184 0.290433 0.366960
H56   H     H_    0.856131 0.320527 0.358369 0.156063
H57   H     H_    0.776989 0.500172 0.709567 0.366956
H58   H     H_    0.848151 0.672892 0.357669 0.182825
H59   H     H_    0.143869 0.320528 0.641630 0.156065
H60   H     H_    0.669975 0.154454 0.286397 0.226478
N1    N     N_R   0.480750 0.000000 0.209750 -0.196774
N2    N     N_R   0.519250 0.000000 0.790250 -0.196781
N3    N     N_R   0.980750 0.500000 0.209750 -0.196784
N4    N     N_R   0.019250 0.500000 0.790250 -0.196781
O1    O     O_R   0.418020 0.076820 0.422210 -0.589425
O2    O     O_R   0.569630 0.923170 0.391410 -0.564301
O3    O     O_R   0.569630 0.076830 0.391410 -0.566610
O4    O     O_R   0.430370 0.923170 0.608590 -0.564310
O5    O     O_R   0.930370 0.576830 0.608590 -0.566603
O6    O     O_R   0.069630 0.423170 0.391410 -0.564299
O7    O     O_R   0.069630 0.576830 0.391410 -0.566609
O8    O     O_R   0.930370 0.423170 0.608590 -0.564298
O9    O     O_3   0.347811 0.007841 0.258798 -0.605721
O10   O     O_3   0.652190 0.007847 0.741210 -0.605731
O11   O     O_3   0.847809 0.507848 0.258788 -0.605733
O12   O     O_R   0.581980 0.923180 0.577790 -0.621805
O13   O     O_3   0.152191 0.507852 0.741212 -0.605745
O14   O     O_2   0.682975 0.937099 0.111124 -0.365150
O15   O     O_2   0.680579 0.067175 0.115966 -0.362755
O16   O     O_3   0.666345 0.999312 0.296516 -0.533275
O17   O     O_2   0.317026 0.937098 0.888873 -0.365148
O18   O     O_2   0.319420 0.067174 0.884034 -0.362755
O19   O     O_3   0.333655 0.999312 0.703484 -0.533259
O20   O     O_2   0.182978 0.437103 0.111123 -0.365144
O21   O     O_2   0.180576 0.567179 0.115970 -0.362747
O22   O     O_3   0.166346 0.499312 0.296516 -0.533263
O23   O     O_R   0.581980 0.076820 0.577790 -0.589426
O24   O     O_2   0.817025 0.437097 0.888872 -0.365152
O25   O     O_2   0.819420 0.567173 0.884037 -0.362748
O26   O     O_3   0.833654 0.499313 0.703484 -0.533273
O27   O     O_R   0.418020 0.923180 0.422210 -0.621770
O28   O     O_R   0.918020 0.576820 0.422210 -0.589426
O29   O     O_R   0.081980 0.423180 0.577790 -0.621815
O30   O     O_R   0.081980 0.576820 0.577790 -0.589431
O31   O     O_R   0.918020 0.423180 0.422210 -0.621814
O32   O     O_R   0.430370 0.076830 0.608590 -0.566608
S1    S     S_3+6 0.643823 0.000849 0.166786 -0.004843
S2    S     S_3+6 0.356177 0.000849 0.833214 -0.004833
S3    S     S_3+6 0.143823 0.500851 0.166786 -0.004833
S4    S     S_3+6 0.856177 0.500848 0.833214 -0.004841
Zn1   Zn    Zn3+2 0.491750 0.000000 0.375560 1.045878
Zn2   Zn    Zn3+2 0.508250 0.000000 0.624440 1.045864
Zn3   Zn    Zn3+2 0.991750 0.500000 0.375560 1.045861
Zn4   Zn    Zn3+2 0.008250 0.500000 0.624440 1.045862

loop_
_geom_bond_atom_site_label_1
_geom_bond_atom_site_label_2
_ccdc_geom_bond_type
C11   H20   S    
C64   H27   S    
C66   C68   S    
C8    C13   A    
C31   H9    S    
C62   O9    S    
C56   O29   A    
C43   H7    S    
C73   C74   S    
C12   O12   A    
C63   H25   S    
C23   O3    A    
C25   C43   A    
C53   C59   A    
C5    N2    A    
O25   S4    D    
C7    C11   A    
C34   O4    A    
C71   H44   S    
C64   H29   S    
C8    N3    A    
C45   O5    A    
C50   C59   A    
C28   C37   A    
C18   C37   A    
C30   H17   S    
C52   C61   A    
C7    N4    A    
O21   S3    D    
C22   C41   A    
C70   H41   S    
C52   H58   S    
C31   C40   A    
C27   H14   S    
C68   H36   S    
C65   O10   S    
O14   S1    D    
N4    Zn4   S    
C62   H22   S    
C6    O9    S    
C10   C76   A    
C44   C53   A    
O18   S2    D    
C74   H52   S    
C21   C38   A    
C14   N2    A    
O19   S2    S    
C30   C60   A    
C29   C38   A    
O6    Zn3   S    
C32   C41   A    
C70   C71   S    
C35   C43   A    
O29   Zn4   S    
C3    C13   A    
N3    Zn3   S    
C68   H37   S    
C22   C50   A    
C16   S4    S    
C32   H10   S    
C31   C54   A    
C13   H21   S    
O31   Zn3   S    
C16   N4    A    
C50   H45   S    
C51   H59   S    
C63   H26   S    
C18   C46   A    
C23   O23   A    
C67   O30   A    
O16   S1    S    
C49   H56   S    
C29   C61   A    
C69   H38   S    
C15   S1    S    
C35   C55   A    
C18   C23   S    
C69   O11   S    
C40   H6    S    
C48   C57   A    
C8    O11   S    
C42   H8    S    
C20   C39   A    
C57   C60   A    
O22   S3    S    
H55   O22   S    
C70   H40   S    
C12   C21   S    
C49   C58   A    
O30   Zn4   S    
H54   O19   S    
C68   H35   S    
C14   C76   A    
C5    C9    A    
C62   C63   S    
C46   H1    S    
C74   H51   S    
C7    O13   S    
O12   Zn2   S    
C73   H48   S    
C41   H5    S    
C46   C54   A    
O23   Zn2   S    
C37   H60   S    
C17   N3    A    
C4    C11   A    
C2    C15   A    
C20   C48   A    
C62   H24   S    
C4    C17   A    
C35   H13   S    
O27   Zn1   S    
O4    Zn2   S    
C72   H47   S    
C75   O31   A    
C75   O8    A    
O20   S3    D    
O1    Zn1   S    
C33   C42   A    
C3    C4    A    
N2    Zn2   S    
C25   C45   S    
C32   C53   A    
C2    C76   A    
C19   C44   A    
C26   C42   A    
C47   C55   A    
C54   C58   A    
O32   Zn2   S    
C24   C49   A    
C64   H28   S    
C48   H23   S    
C69   H39   S    
C1    C20   S    
C33   C57   A    
C72   O13   S    
C71   H42   S    
C72   H46   S    
C66   H32   S    
C72   C73   S    
C19   C34   S    
C26   C56   S    
C6    C10   A    
H53   O16   S    
C17   S3    S    
C24   C75   S    
C28   C58   A    
C27   C36   A    
C47   H34   S    
O17   S2    D    
C1    O32   A    
O26   S4    S    
O28   Zn3   S    
C71   H43   S    
C19   C36   A    
C6    N1    A    
C33   H11   S    
C25   C52   A    
C14   S2    S    
C36   H2    S    
C26   C51   A    
C67   O7    A    
O15   S1    D    
C74   H50   S    
C38   H4    S    
C10   H19   S    
C73   H49   S    
C55   C61   A    
O5    Zn4   S    
C24   C40   A    
C12   O2    A    
C30   C39   A    
O24   S4    D    
C28   H15   S    
C44   H12   S    
O3    Zn1   S    
C66   H33   S    
C56   O6    A    
C69   C70   S    
C45   O28   A    
C22   C67   S    
C1    O1    A    
C5    O10   S    
C63   C64   S    
O2    Zn1   S    
O7    Zn3   S    
N1    Zn1   S    
O8    Zn4   S    
C65   C66   S    
C27   C59   A    
C51   C60   A    
C65   H30   S    
C21   C47   A    
H57   O26   S    
C2    C9    A    
C9    H18   S    
C65   H31   S    
C29   H16   S    
C3    C16   A    
C34   O27   A    
C39   H3    S    
C15   N1    A    
