data_mof_unit_3759.cif
_audit_creation_date              2012-12-10T17:02:15-0500
_audit_creation_method            fapswitch 2.2
_symmetry_space_group_name_H-M    P1
_symmetry_Int_Tables_number       1
_space_group_crystal_system       triclinic
_cell_length_a                    10.72854
_cell_length_b                    10.67332
_cell_length_c                    10.023743
_cell_angle_alpha                 90.925122
_cell_angle_beta                  89.794774
_cell_angle_gamma                 90.685127
_cell_volume                      1147.57193679

loop_
_atom_site_label
_atom_site_type_symbol
_atom_type_description
_atom_site_fract_x
_atom_site_fract_y
_atom_site_fract_z
_atom_type_partial_charge
C1    C     C_R   0.505214 0.262313 0.499029 0.811041
C2    C     C_R   0.062076 0.478263 0.628303 0.053290
C3    C     C_R   0.128347 0.462241 0.507230 -0.195620
C4    C     C_R   0.064746 0.441006 0.388348 -0.298854
C5    C     C_R   0.936640 0.444364 0.387404 0.495192
C6    C     C_R   0.874687 0.496991 0.500145 -0.253637
C7    C     C_2   0.427474 0.933685 0.399144 0.554884
C8    C     C_2   0.455443 0.866840 0.506832 -0.365942
C9    C     C_2   0.426893 0.069508 0.416536 -0.356944
C10   C     C_2   0.511445 0.128357 0.494468 0.288635
C11   C     C_2   0.499009 0.601235 0.927726 0.497176
C12   C     C_R   0.260837 0.485366 0.501234 0.898693
C13   C     C_2   0.481254 0.597995 0.076412 -0.273973
C14   C     C_R   0.489189 0.737175 0.501135 0.950734
C15   C     C_R   0.740673 0.504347 0.499815 0.861810
C16   C     C_R   0.111603 0.454073 0.755880 -0.285106
C17   C     C_R   0.053091 0.501166 0.873253 0.545010
C18   C     C_R   0.947122 0.573787 0.857747 -0.214299
C19   C     C_R   0.891493 0.584522 0.732987 -0.226411
C20   C     C_R   0.941207 0.521963 0.619979 0.051786
H1    H     H_    0.488978 0.416224 0.896734 0.095869
H2    H     H_    0.536542 0.423091 0.100810 0.159438
H3    H     H_    0.191024 0.393558 0.761618 0.162529
H4    H     H_    0.904392 0.617567 0.944365 0.165714
H5    H     H_    0.809707 0.641428 0.725930 0.164304
N1    N     N_2   0.501340 0.501330 0.852150 -0.233370
N2    N     N_2   0.501380 0.501360 0.147810 -0.224463
O1    O     O_R   0.499980 0.319060 0.613040 -0.638528
O2    O     O_R   0.500020 0.319100 0.386900 -0.637227
O3    O     O_R   0.316750 0.499980 0.613090 -0.616279
O4    O     O_R   0.316790 0.500020 0.386950 -0.639888
O5    O     O_R   0.499980 0.680900 0.613100 -0.575903
O6    O     O_R   0.500020 0.680940 0.386960 -0.566883
O7    O     O_R   0.683210 0.499980 0.613050 -0.620629
O8    O     O_R   0.683250 0.500020 0.386910 -0.566098
Zn1   Zn    Zn3+2 0.499970 0.499970 0.650990 0.941536
Zn2   Zn    Zn3+2 0.500030 0.500030 0.349010 0.941303
H6    H     H_    0.113860 0.417280 0.297316 0.193352
O9    O     O_3   0.616571 0.066324 0.540413 -0.663071
C21   C     C_3   0.643240 0.096537 0.675679 0.063589
H7    H     H_    0.671301 0.008905 0.724152 0.156443
H8    H     H_    0.560566 0.129866 0.733281 0.144874
C22   C     C_3   0.753768 0.188716 0.685952 -0.330107
H9    H     H_    0.841258 0.139882 0.658553 0.196775
H10   H     H_    0.741202 0.265906 0.615723 0.228446
C23   C     C_3   0.767158 0.245607 0.825759 -0.896594
H11   H     H_    0.681822 0.297359 0.854366 0.263591
H12   H     H_    0.847531 0.311937 0.827804 0.271444
H13   H     H_    0.784225 0.171792 0.899356 0.252499
O10   O     O_3   0.507873 0.717584 0.870160 -0.613525
C24   C     C_3   0.630447 0.765650 0.887507 0.096590
H14   H     H_    0.665182 0.795661 0.788519 0.152876
H15   H     H_    0.698496 0.696224 0.925173 0.118696
C25   C     C_3   0.630020 0.879667 0.981525 -0.362572
H16   H     H_    0.572696 0.954794 0.938173 0.215142
H17   H     H_    0.588777 0.853908 0.078887 0.269877
C26   C     C_3   0.762386 0.928367 0.005508 -0.989188
H18   H     H_    0.816026 0.859686 0.063645 0.279905
H19   H     H_    0.758466 0.017815 0.062739 0.275113
H20   H     H_    0.811244 0.945087 0.909464 0.259091
H21   H     H_    0.455481 0.683902 0.126522 0.226586
O11   O     O_3   0.090590 0.480296 0.004488 -0.643369
C27   C     C_3   0.206030 0.419471 0.017577 0.084378
H22   H     H_    0.245196 0.446926 0.116120 0.181151
H23   H     H_    0.276380 0.452815 0.945101 0.127751
C28   C     C_3   0.188220 0.276572 0.014887 -0.365109
H24   H     H_    0.137082 0.248117 0.106105 0.218983
H25   H     H_    0.131784 0.246257 0.927249 0.221589
C29   C     C_3   0.312912 0.209458 0.009949 -0.997398
H26   H     H_    0.363577 0.231999 0.916460 0.260136
H27   H     H_    0.296411 0.106694 0.011397 0.261598
H28   H     H_    0.370899 0.237051 0.097453 0.272742
O12   O     O_3   0.875532 0.402305 0.273019 -0.610761
C30   C     C_3   0.822101 0.281975 0.294925 0.177337
H29   H     H_    0.742402 0.269185 0.225326 0.160301
H30   H     H_    0.781936 0.272687 0.396506 0.115331
C31   C     C_3   0.915144 0.176539 0.267229 -0.454916
H31   H     H_    0.927797 0.164638 0.157705 0.221951
H32   H     H_    0.007124 0.199717 0.312072 0.221985
C32   C     C_3   0.868871 0.053271 0.326281 -0.888814
H33   H     H_    0.872183 0.058943 0.436759 0.273646
H34   H     H_    0.929554 0.975598 0.292683 0.259402
H35   H     H_    0.771542 0.032074 0.295287 0.294037
O13   O     O_3   0.426700 0.880190 0.272103 -0.642533
C33   C     C_3   0.309332 0.893452 0.210110 0.016286
H36   H     H_    0.325193 0.883987 0.100811 0.182073
H37   H     H_    0.267026 0.986988 0.226464 0.132967
C34   C     C_3   0.218001 0.790014 0.253567 -0.363359
H38   H     H_    0.266441 0.698950 0.255837 0.264668
H39   H     H_    0.182868 0.811811 0.355665 0.202347
C35   C     C_3   0.108167 0.777146 0.157698 -0.911301
H40   H     H_    0.039027 0.708828 0.197294 0.288227
H41   H     H_    0.140900 0.742729 0.058582 0.280287
H42   H     H_    0.062390 0.868823 0.145142 0.250801
H43   H     H_    0.452203 0.910206 0.605801 0.137767
H44   H     H_    0.356252 0.122821 0.365592 0.111093

loop_
_geom_bond_atom_site_label_1
_geom_bond_atom_site_label_2
_ccdc_geom_bond_type
C28   H25   S    
H1    N1    S    
C27   H23   S    
O12   C30   S    
C19   C20   A    
C14   O6    A    
C7    C8    D    
C31   H31   S    
C23   H13   S    
C30   H30   S    
C18   H4    S    
O5    Zn1   S    
O8    Zn2   S    
C5    C6    A    
C26   H19   S    
C28   C29   S    
C18   C19   A    
C29   H27   S    
C3    C12   S    
C6    C15   S    
C23   H11   S    
C21   C22   S    
C16   C17   A    
C30   C31   S    
C1    O1    A    
C2    C16   A    
C9    C10   D    
C15   O7    A    
C21   H8    S    
C7    O13   S    
C27   C28   S    
C8    H43   S    
C32   H35   S    
C15   O8    A    
O10   C24   S    
C23   H12   S    
C33   H37   S    
C25   H17   S    
C30   H29   S    
C2    C20   A    
C24   H14   S    
O13   C33   S    
C32   H34   S    
C14   O5    A    
C35   H40   S    
C4    C5    A    
C26   H20   S    
C11   N1    D    
C33   H36   S    
O6    Zn2   S    
O4    Zn2   S    
C10   O9    S    
C24   H15   S    
C29   H28   S    
C22   H9    S    
O11   C27   S    
C17   O11   S    
C35   H41   S    
C34   C35   S    
C1    O2    A    
C17   C18   A    
C31   H32   S    
C22   H10   S    
C9    H44   S    
N1    Zn1   S    
C21   H7    S    
C4    H6    S    
C16   H3    S    
H2    N2    S    
C12   O4    A    
C3    C4    A    
O9    C21   S    
C33   C34   S    
C7    C9    S    
C25   H16   S    
C8    C14   S    
C12   O3    A    
C1    C10   S    
C34   H39   S    
C32   H33   S    
C6    C20   A    
O3    Zn1   S    
C24   C25   S    
C2    C3    A    
C11   O10   S    
C35   H42   S    
C11   C13   S    
C26   H18   S    
C31   C32   S    
N2    Zn2   S    
C28   H24   S    
O7    Zn1   S    
C5    O12   S    
C29   H26   S    
C19   H5    S    
C22   C23   S    
C27   H22   S    
C13   H21   S    
C34   H38   S    
O1    Zn1   S    
O2    Zn2   S    
C13   N2    D    
C25   C26   S    
