data_mof_unit_1255.cif
_audit_creation_date              2012-12-11T16:51:19-0500
_audit_creation_method            fapswitch 2.2
_symmetry_space_group_name_H-M    P1
_symmetry_Int_Tables_number       1
_space_group_crystal_system       triclinic
_cell_length_a                    24.494108
_cell_length_b                    17.216628
_cell_length_c                    15.551662
_cell_angle_alpha                 89.869359
_cell_angle_beta                  128.913723
_cell_angle_gamma                 90.231408
_cell_volume                      5102.86783363

loop_
_atom_site_label
_atom_site_type_symbol
_atom_type_description
_atom_site_fract_x
_atom_site_fract_y
_atom_site_fract_z
_atom_type_partial_charge
C1    C     C_R   0.846223 0.862569 0.234656 -0.124930
C2    C     C_R   0.154183 0.864541 0.771856 -0.126103
C3    C     C_R   0.346223 0.362569 0.234656 -0.124929
C4    C     C_R   0.654183 0.364541 0.771856 -0.126104
C5    C     C_R   0.883620 0.101840 0.590071 0.054815
C6    C     C_R   0.092069 0.142910 0.409805 0.056490
C7    C     C_R   0.383619 0.601841 0.590070 0.054815
C8    C     C_R   0.592069 0.642911 0.409805 0.056490
C9    C     C_R   0.814453 0.114525 0.497321 0.059501
C10   C     C_R   0.141835 0.186821 0.503387 0.051047
C11   C     C_R   0.314453 0.614525 0.497320 0.059499
C12   C     C_R   0.641835 0.686821 0.503387 0.051046
C13   C     C_R   0.851986 0.125993 0.136596 0.151386
C14   C     C_R   0.146481 0.126017 0.863504 0.153732
C15   C     C_R   0.351986 0.625993 0.136596 0.151385
C16   C     C_R   0.646481 0.626017 0.863504 0.153732
C17   C     C_R   0.783901 0.830441 0.611462 0.157345
C18   C     C_R   0.154321 0.721876 0.389436 0.163658
C19   C     C_R   0.283901 0.330442 0.611462 0.157344
C20   C     C_R   0.654319 0.221872 0.389437 0.163661
C21   C     C_R   0.764978 0.858763 0.511706 0.035153
C22   C     C_R   0.172392 0.747597 0.489590 0.043410
C23   C     C_R   0.264977 0.358764 0.511706 0.035153
C24   C     C_R   0.672392 0.247596 0.489591 0.043408
C25   C     C_R   0.693992 0.854942 0.417254 -0.208142
C26   C     C_R   0.217939 0.701775 0.584144 -0.209417
C27   C     C_R   0.193992 0.354942 0.417254 -0.208142
C28   C     C_R   0.717940 0.201777 0.584148 -0.209418
C29   C     C_R   0.148358 0.306051 0.417626 -0.188295
C30   C     C_R   0.758431 0.145209 0.583605 -0.199107
C31   C     C_R   0.648358 0.806051 0.417627 -0.188295
C32   C     C_R   0.258430 0.645208 0.583602 -0.199107
C33   C     C_R   0.174845 0.260117 0.511332 0.039235
C34   C     C_R   0.754048 0.136889 0.489311 0.037326
C35   C     C_R   0.674845 0.760117 0.511332 0.039236
C36   C     C_R   0.254048 0.636890 0.489309 0.037327
C37   C     C_R   0.239472 0.281300 0.611270 0.160898
C38   C     C_R   0.694830 0.167106 0.389184 0.152121
C39   C     C_R   0.739472 0.781299 0.611270 0.160896
C40   C     C_R   0.194832 0.667111 0.389183 0.152120
C41   C     C_3   0.799183 0.732747 0.702558 -0.519090
C42   C     C_3   0.186854 0.706684 0.295690 -0.512246
C43   C     C_3   0.299183 0.232749 0.702559 -0.519091
C44   C     C_3   0.686846 0.206676 0.295684 -0.512246
C45   C     C_R   0.094317 0.863448 0.406038 -0.140121
C46   C     C_R   0.887442 0.896379 0.593904 -0.152606
C47   C     C_R   0.594318 0.363448 0.406038 -0.140121
C48   C     C_R   0.387442 0.396379 0.593904 -0.152606
C49   C     C_3   0.847781 0.786798 0.702851 -0.518659
C50   C     C_3   0.142254 0.766240 0.295984 -0.527771
C51   C     C_3   0.347780 0.286800 0.702853 -0.518660
C52   C     C_3   0.642247 0.266232 0.295979 -0.527769
C53   C     C_2   0.146442 0.752168 0.868996 -0.218558
C54   C     C_2   0.848405 0.753780 0.127883 -0.219270
C55   C     C_2   0.646442 0.252168 0.868996 -0.218559
C56   C     C_2   0.348405 0.253780 0.127883 -0.219270
C57   C     C_2   0.194140 0.709003 0.875479 -0.108074
C58   C     C_2   0.803004 0.708663 0.125584 -0.108904
C59   C     C_2   0.694140 0.209004 0.875479 -0.108072
C60   C     C_2   0.303004 0.208663 0.125584 -0.108905
C61   C     C_2   0.804962 0.152227 0.021851 -0.224688
C62   C     C_2   0.192286 0.152637 0.978009 -0.220090
C63   C     C_2   0.304962 0.652227 0.021851 -0.224688
C64   C     C_2   0.692286 0.652636 0.978009 -0.220090
C65   C     C_2   0.735705 0.154622 0.966329 -0.108127
C66   C     C_2   0.261825 0.153063 0.036477 -0.113205
C67   C     C_2   0.235705 0.654622 0.966329 -0.108126
C68   C     C_2   0.761825 0.653063 0.036477 -0.113206
C69   C     C_R   0.169514 0.862356 0.589749 -0.128931
C70   C     C_R   0.812414 0.895734 0.410599 -0.134075
C71   C     C_R   0.669514 0.362356 0.589749 -0.128931
C72   C     C_R   0.312414 0.395734 0.410599 -0.134075
C73   C     C_R   0.060054 0.862653 0.765602 -0.149997
C74   C     C_R   0.933731 0.866284 0.224775 -0.147202
C75   C     C_R   0.560054 0.362653 0.765602 -0.149996
C76   C     C_R   0.433731 0.366284 0.224776 -0.147202
C77   C     C_R   0.875050 0.824775 0.193206 0.151831
C78   C     C_R   0.121004 0.823621 0.804554 0.152538
C79   C     C_R   0.375051 0.324775 0.193206 0.151831
C80   C     C_R   0.621004 0.323621 0.804554 0.152539
C81   C     C_R   0.147614 0.821932 0.495871 0.069299
C82   C     C_R   0.819443 0.879535 0.504370 0.080482
C83   C     C_R   0.647614 0.321931 0.495872 0.069300
C84   C     C_R   0.319443 0.379535 0.504370 0.080483
C85   C     C_R   0.810921 0.098897 0.407367 -0.181499
C86   C     C_R   0.161454 0.143625 0.593468 -0.176158
C87   C     C_R   0.310921 0.598897 0.407366 -0.181499
C88   C     C_R   0.661453 0.643625 0.593468 -0.176158
C89   C     C_R   0.921297 0.104381 0.195382 -0.168780
C90   C     C_R   0.076376 0.107346 0.801692 -0.153692
C91   C     C_R   0.421297 0.604381 0.195382 -0.168780
C92   C     C_R   0.576376 0.607345 0.801692 -0.153692
C93   C     C_R   0.166667 0.106569 0.801210 -0.130715
C94   C     C_R   0.833511 0.109310 0.201969 -0.112744
C95   C     C_R   0.666667 0.606569 0.801210 -0.130715
C96   C     C_R   0.333511 0.609310 0.201968 -0.112744
H1    H     H_    0.798267 0.848985 0.221135 0.090245
H2    H     H_    0.206518 0.855066 0.800003 0.083871
H3    H     H_    0.298267 0.348985 0.221135 0.090245
H4    H     H_    0.706518 0.355066 0.800003 0.083871
H5    H     H_    0.095600 0.298324 0.341644 0.133060
H6    H     H_    0.797572 0.115851 0.660187 0.145369
H7    H     H_    0.595600 0.798324 0.341645 0.133060
H8    H     H_    0.297569 0.615848 0.660183 0.145369
H9    H     H_    0.805483 0.736469 0.779751 0.187720
H10   H     H_    0.236536 0.732028 0.319637 0.207206
H11   H     H_    0.305482 0.236472 0.779752 0.187721
H12   H     H_    0.736527 0.232021 0.319625 0.207204
H13   H     H_    0.799314 0.672877 0.675941 0.203373
H14   H     H_    0.156768 0.670821 0.219260 0.185712
H15   H     H_    0.299314 0.172879 0.675944 0.203372
H16   H     H_    0.656760 0.170810 0.219256 0.185711
H17   H     H_    0.881707 0.821680 0.779940 0.186631
H18   H     H_    0.166733 0.824995 0.320501 0.201420
H19   H     H_    0.381706 0.321683 0.779941 0.186631
H20   H     H_    0.666725 0.324988 0.320489 0.201418
H21   H     H_    0.875658 0.757726 0.676597 0.204219
H22   H     H_    0.086481 0.764244 0.219899 0.188385
H23   H     H_    0.375659 0.257728 0.676601 0.204219
H24   H     H_    0.586473 0.264234 0.219896 0.188386
H25   H     H_    0.711962 0.129009 0.999645 0.124762
H26   H     H_    0.286476 0.125568 0.006013 0.126564
H27   H     H_    0.211962 0.629009 0.999645 0.124761
H28   H     H_    0.786476 0.625568 0.006013 0.126564
H29   H     H_    0.210864 0.723053 0.826990 0.123569
H30   H     H_    0.787621 0.721429 0.176062 0.130780
H31   H     H_    0.710864 0.223053 0.826990 0.123569
H32   H     H_    0.287621 0.221428 0.176062 0.130780
H33   H     H_    0.828044 0.178575 0.987664 0.128058
H34   H     H_    0.168433 0.181251 0.009350 0.130774
H35   H     H_    0.328044 0.678575 0.987664 0.128058
H36   H     H_    0.668433 0.681250 0.009350 0.130774
H37   H     H_    0.129878 0.737981 0.917702 0.130626
H38   H     H_    0.862905 0.740817 0.076172 0.128108
H39   H     H_    0.629877 0.237981 0.917702 0.130626
H40   H     H_    0.362905 0.240817 0.076172 0.128108
H41   H     H_    0.068982 0.852234 0.321109 0.101198
H42   H     H_    0.907894 0.903417 0.678410 0.097123
H43   H     H_    0.568982 0.352234 0.321109 0.101198
H44   H     H_    0.407894 0.403417 0.678410 0.097123
H45   H     H_    0.214764 0.849584 0.673226 0.085717
H46   H     H_    0.763957 0.899693 0.326852 0.083452
H47   H     H_    0.714764 0.349584 0.673226 0.085716
H48   H     H_    0.263957 0.399693 0.326852 0.083452
H49   H     H_    0.023143 0.847702 0.779248 0.097462
H50   H     H_    0.961890 0.856973 0.193601 0.085430
H51   H     H_    0.523143 0.347702 0.779248 0.097462
H52   H     H_    0.461891 0.356973 0.193601 0.085431
H53   H     H_    0.763973 0.089777 0.323317 0.108647
H54   H     H_    0.197903 0.160067 0.678957 0.119467
H55   H     H_    0.263973 0.589778 0.323317 0.108647
H56   H     H_    0.697903 0.660067 0.678957 0.119467
H57   H     H_    0.946687 0.096114 0.159238 0.092735
H58   H     H_    0.048022 0.104380 0.833444 0.089860
H59   H     H_    0.446687 0.596114 0.159238 0.092735
H60   H     H_    0.548022 0.604379 0.833444 0.089859
H61   H     H_    0.219520 0.102983 0.828861 0.079886
H62   H     H_    0.781725 0.109652 0.178941 0.080758
H63   H     H_    0.719520 0.602983 0.828861 0.079886
H64   H     H_    0.281726 0.609652 0.178941 0.080758
H65   H     H_    0.675589 0.881949 0.340401 0.125023
H66   H     H_    0.227763 0.714649 0.660903 0.124139
H67   H     H_    0.175589 0.381949 0.340401 0.125023
H68   H     H_    0.727767 0.214652 0.660907 0.124138
N1    N     N_R   0.888400 0.921830 0.294620 -0.043478
N2    N     N_R   0.111600 0.921830 0.705380 -0.041593
N3    N     N_R   0.388400 0.421830 0.294620 -0.043478
N4    N     N_R   0.611600 0.421830 0.705380 -0.041593
N5    N     N_R   0.079940 0.922160 0.443410 -0.040419
N6    N     N_R   0.920060 0.922160 0.556590 -0.037834
N7    N     N_R   0.579940 0.422160 0.443410 -0.040419
N8    N     N_R   0.420060 0.422160 0.556590 -0.037834
N9    N     N_R   0.125650 0.922400 0.556620 -0.038129
N10   N     N_R   0.874350 0.922400 0.443380 -0.036596
N11   N     N_R   0.625650 0.422400 0.556620 -0.038129
N12   N     N_R   0.374350 0.422400 0.443380 -0.036596
N13   N     N_R   0.054230 0.922730 0.705400 -0.041541
N14   N     N_R   0.945770 0.922730 0.294600 -0.039593
N15   N     N_R   0.554230 0.422730 0.705400 -0.041541
N16   N     N_R   0.445770 0.422730 0.294600 -0.039593
N17   N     N_R   0.873790 0.077030 0.443380 -0.043579
N18   N     N_R   0.126210 0.077030 0.556620 -0.046663
N19   N     N_R   0.373790 0.577030 0.443380 -0.043579
N20   N     N_R   0.626210 0.577030 0.556620 -0.046663
N21   N     N_R   0.945200 0.076700 0.294600 -0.042333
N22   N     N_R   0.054800 0.076700 0.705400 -0.042421
N23   N     N_R   0.445200 0.576700 0.294600 -0.042333
N24   N     N_R   0.554800 0.576700 0.705400 -0.042421
N25   N     N_R   0.111030 0.077600 0.705380 -0.041871
N26   N     N_R   0.888970 0.077600 0.294620 -0.043158
N27   N     N_R   0.611030 0.577600 0.705380 -0.041871
N28   N     N_R   0.388970 0.577600 0.294620 -0.043158
N29   N     N_R   0.919490 0.077280 0.556590 -0.053317
N30   N     N_R   0.080510 0.077280 0.443410 -0.056987
N31   N     N_R   0.419490 0.577280 0.556590 -0.053317
N32   N     N_R   0.580510 0.577280 0.443410 -0.056987
Ni1   Ni    Ni4+2 0.882160 0.999430 0.370180 0.203621
Ni2   Ni    Ni4+2 0.117840 0.999430 0.629820 0.208683
Ni3   Ni    Ni4+2 0.382160 0.499430 0.370180 0.203621
Ni4   Ni    Ni4+2 0.617840 0.499430 0.629820 0.208683
Ni5   Ni    Ni4+2 0.012460 0.999430 0.370180 0.204614
Ni6   Ni    Ni4+2 0.987540 0.999430 0.629820 0.203205
Ni7   Ni    Ni4+2 0.512460 0.499430 0.370180 0.204615
Ni8   Ni    Ni4+2 0.487540 0.499430 0.629820 0.203205
N33   N     N_3   0.906686 0.089526 0.699090 -0.233766
H69   H     H_    0.940275 0.041728 0.733613 0.093004
H70   H     H_    0.934806 0.138866 0.745428 0.092996
N34   N     N_3   0.077147 0.151285 0.305479 -0.219746
H71   H     H_    0.066254 0.096546 0.268955 0.096703
H72   H     H_    0.032923 0.186373 0.255437 0.089783
N35   N     N_3   0.406686 0.589527 0.699090 -0.233766
H73   H     H_    0.440274 0.541729 0.733613 0.093003
H74   H     H_    0.434807 0.638867 0.745428 0.092997
N36   N     N_3   0.577147 0.651285 0.305479 -0.219746
H75   H     H_    0.566254 0.596547 0.268955 0.096703
H76   H     H_    0.532923 0.686374 0.255437 0.089783

loop_
_geom_bond_atom_site_label_1
_geom_bond_atom_site_label_2
_ccdc_geom_bond_type
N25   Ni2   S    
C25   C31   A    
C49   H17   S    
C26   C32   A    
C55   C59   D    
C27   C29   A    
C1    C77   A    
C62   H34   S    
C19   C23   A    
N18   Ni2   S    
C76   C79   A    
N16   Ni7   S    
C3    C79   A    
C47   N7    A    
C68   H28   S    
C94   N26   A    
C3    N3    A    
N21   N26   A    
C39   C41   S    
N33   H69   S    
C5    C9    A    
C18   C50   S    
C56   C79   S    
C41   H9    S    
N24   N27   A    
C95   H63   S    
C32   C36   A    
C71   H47   S    
C11   C36   S    
C56   C60   D    
C24   C83   S    
C4    C80   A    
C52   H20   S    
C8    N36   S    
C86   H54   S    
C87   N19   A    
N36   H76   S    
C88   N20   A    
C59   H31   S    
C14   C62   S    
C3    H3    S    
N23   Ni7   S    
N22   Ni6   S    
C50   H22   S    
C17   C39   A    
N28   Ni3   S    
N21   Ni5   S    
N8    Ni8   S    
C18   C40   A    
C14   C90   A    
C91   N23   A    
C19   C37   A    
C9    C85   A    
C48   N8    A    
C89   H57   S    
C49   H21   S    
C64   H36   S    
C29   C33   A    
C11   C87   A    
N34   H71   S    
N20   Ni4   S    
C74   C77   A    
C51   H23   S    
C73   C78   A    
C66   H26   S    
C8    N32   A    
N18   N30   A    
C65   H25   S    
C90   H58   S    
N17   N29   A    
C75   C80   A    
C2    N2    A    
C14   C93   A    
C6    N34   S    
C85   H53   S    
C95   N27   A    
C46   H42   S    
C54   C77   S    
C27   H67   S    
C44   C52   S    
C40   C42   S    
N3    N16   A    
N9    Ni2   S    
N17   Ni1   S    
C94   H62   S    
C46   C82   A    
N1    N14   A    
C88   H56   S    
C17   C49   S    
C43   H15   S    
C57   C67   S    
C41   C49   S    
C56   H40   S    
C52   H24   S    
C7    C11   A    
C71   C83   A    
C23   C27   A    
C44   H12   S    
C63   C67   D    
C70   H46   S    
C23   C84   S    
C12   C88   A    
C22   C81   S    
C20   C24   A    
C36   C40   A    
C53   H37   S    
N27   Ni4   S    
C1    H1    S    
C15   C96   A    
C62   C66   D    
N36   H75   S    
C85   N17   A    
N31   Ni8   S    
C90   N22   A    
N5    Ni5   S    
C75   H51   S    
N20   N32   A    
N30   Ni5   S    
C5    N33   S    
N24   Ni8   S    
C25   H65   S    
C51   H19   S    
N29   Ni6   S    
C48   C84   A    
C76   H52   S    
C73   H49   S    
C50   H18   S    
C34   C38   A    
C37   C43   S    
C35   C39   A    
C17   C21   A    
N2    Ni2   S    
C38   C44   S    
C2    C78   A    
N1    Ni1   S    
C61   H33   S    
C20   C38   A    
C69   N9    A    
N19   N31   A    
N35   H73   S    
C74   N14   A    
C60   H32   S    
C8    C12   A    
C48   H44   S    
C30   H6    S    
C32   H8    S    
C29   H5    S    
C92   H60   S    
N2    N13   A    
C43   H11   S    
N15   Ni8   S    
N32   Ni7   S    
C93   H61   S    
C70   N10   A    
N6    N10   A    
N23   N28   A    
C72   C84   A    
C46   N6    A    
C42   C50   S    
C60   C66   S    
C44   H16   S    
C58   C68   S    
C41   H13   S    
N35   H74   S    
C58   H30   S    
C63   H35   S    
C4    H4    S    
C9    C34   S    
C31   C35   A    
C91   H59   S    
N12   Ni3   S    
C7    N31   A    
C64   C68   D    
C6    N30   A    
C75   N15   A    
C28   H68   S    
C5    N29   A    
C45   H41   S    
C54   C58   D    
C72   H48   S    
C21   C25   A    
C30   C34   A    
N10   Ni1   S    
C53   C57   D    
N4    Ni4   S    
C13   C89   A    
C1    N1    A    
C18   C22   A    
C89   N21   A    
C74   H50   S    
C45   C81   A    
C24   C28   A    
C76   N16   A    
C67   H27   S    
C6    C10   A    
C7    N35   S    
C92   N24   A    
C16   C92   A    
C93   N25   A    
N4    N15   A    
C15   C63   S    
C13   C94   A    
C96   N28   A    
N22   N25   A    
C28   C30   A    
C96   H64   S    
C42   H14   S    
C73   N13   A    
C20   C52   S    
C59   C65   S    
C57   H29   S    
C55   C80   S    
C16   C95   A    
N5    N9    A    
C10   C86   A    
N7    N11   A    
C43   C51   S    
C19   C51   S    
C55   H39   S    
C71   N11   A    
C26   H66   S    
C33   C37   A    
C53   C78   S    
C10   C33   S    
C72   N12   A    
C61   C65   D    
N7    Ni7   S    
C70   C82   A    
N19   Ni3   S    
N11   Ni4   S    
N6    Ni6   S    
C69   C81   A    
C15   C91   A    
C47   C83   A    
C42   H10   S    
C4    N4    A    
C13   C61   S    
C21   C82   S    
C2    H2    S    
N34   H72   S    
C22   C26   A    
N14   Ni5   S    
C47   H43   S    
C86   N18   A    
N3    Ni3   S    
N13   Ni6   S    
C87   H55   S    
C16   C64   S    
N33   H70   S    
C69   H45   S    
C12   C35   S    
C45   N5    A    
N8    N12   A    
N26   Ni1   S    
C31   H7    S    
C54   H38   S    
