data_mof_unit_3597.cif
_audit_creation_date              2012-12-11T15:49:02-0500
_audit_creation_method            fapswitch 2.2
_symmetry_space_group_name_H-M    P1
_symmetry_Int_Tables_number       1
_space_group_crystal_system       triclinic
_cell_length_a                    21.619659
_cell_length_b                    7.178418
_cell_length_c                    14.866077
_cell_angle_alpha                 89.999882
_cell_angle_beta                  106.43387
_cell_angle_gamma                 89.999981
_cell_volume                      2212.88624909

loop_
_atom_site_label
_atom_site_type_symbol
_atom_type_description
_atom_site_fract_x
_atom_site_fract_y
_atom_site_fract_z
_atom_type_partial_charge
O1    O     O_R   0.335860 0.638190 0.002110 -0.540746
O2    O     O_R   0.664140 0.361810 0.997890 -0.540746
O3    O     O_R   0.164140 0.138190 0.997890 -0.540747
O4    O     O_R   0.835860 0.861810 0.002110 -0.540746
O5    O     O_R   0.217530 0.305920 0.861960 -0.530689
O6    O     O_R   0.782470 0.694080 0.138040 -0.530689
O7    O     O_R   0.282470 0.805920 0.138040 -0.530689
O8    O     O_R   0.717530 0.194080 0.861960 -0.530689
C1    C     C_R   0.205955 0.476769 0.825754 0.728168
C2    C     C_R   0.794045 0.523231 0.174246 0.728168
C3    C     C_R   0.294045 0.976769 0.174246 0.728169
C4    C     C_R   0.705955 0.023231 0.825754 0.728169
O9    O     O_R   0.338690 0.308320 0.993240 -0.544057
O10   O     O_R   0.661310 0.691680 0.006760 -0.544056
O11   O     O_R   0.161310 0.808320 0.006760 -0.544056
O12   O     O_R   0.838690 0.191680 0.993240 -0.544056
O13   O     O_R   0.286170 0.140430 0.130100 -0.535525
O14   O     O_R   0.713830 0.859570 0.869900 -0.535525
O15   O     O_R   0.213830 0.640430 0.869900 -0.535525
O16   O     O_R   0.786170 0.359570 0.130100 -0.535525
C5    C     C_R   0.364989 0.477228 0.997842 0.707238
C6    C     C_R   0.635011 0.522772 0.002158 0.707237
C7    C     C_R   0.135011 0.977228 0.002158 0.707238
C8    C     C_R   0.864989 0.022772 0.997842 0.707239
O17   O     O_3   0.232630 0.472410 0.044750 -0.376036
O18   O     O_3   0.767370 0.527590 0.955250 -0.376036
O19   O     O_3   0.267370 0.972410 0.955250 -0.376036
O20   O     O_3   0.732630 0.027590 0.044750 -0.376036
V1    V     V_3+5 0.253220 0.196620 0.991700 1.482198
V2    V     V_3+5 0.746780 0.803380 0.008300 1.482198
V3    V     V_3+5 0.246780 0.696620 0.008300 1.482199
V4    V     V_3+5 0.753220 0.303380 0.991700 1.482199
C9    C     C_R   0.029992 0.826285 0.004082 -0.119016
C10   C     C_R   0.970008 0.173715 0.995918 -0.119015
C11   C     C_R   0.470008 0.326285 0.995919 -0.119015
C12   C     C_R   0.529992 0.673715 0.004081 -0.119015
H1    H     H_    0.051890 0.689896 0.007113 0.119474
H2    H     H_    0.948110 0.310104 0.992887 0.119475
H3    H     H_    0.448110 0.189896 0.992889 0.119475
H4    H     H_    0.551890 0.810104 0.007111 0.119474
C13   C     C_R   0.965000 0.837663 0.002394 -0.091308
C14   C     C_R   0.034999 0.162337 0.997605 -0.091309
C15   C     C_R   0.535000 0.337663 0.997606 -0.091308
C16   C     C_R   0.465000 0.662337 0.002394 -0.091306
H5    H     H_    0.939152 0.709278 0.004497 0.121942
H6    H     H_    0.060848 0.290722 0.995503 0.121942
H7    H     H_    0.560848 0.209278 0.995505 0.121942
H8    H     H_    0.439152 0.790721 0.004495 0.121943
C17   C     C_R   0.934013 0.011567 0.998331 -0.027403
C18   C     C_R   0.065986 0.988433 0.001669 -0.027403
C19   C     C_R   0.565986 0.511567 0.001669 -0.027405
C20   C     C_R   0.434013 0.488433 0.998331 -0.027405
C21   C     C_R   0.678594 0.015524 0.723998 -0.069426
C22   C     C_R   0.321406 0.984476 0.276002 -0.069426
C23   C     C_R   0.821406 0.515522 0.276002 -0.069426
C24   C     C_R   0.178594 0.484478 0.723998 -0.069426
C25   C     C_R   0.689890 0.997565 0.567427 -0.153721
C26   C     C_R   0.310111 0.002431 0.432573 -0.153721
C27   C     C_R   0.810110 0.497556 0.432573 -0.153721
C28   C     C_R   0.189889 0.502444 0.567427 -0.153721
C29   C     C_R   0.718040 0.015206 0.663718 0.127362
C30   C     C_R   0.281960 0.984789 0.336282 0.127362
C31   C     C_R   0.781960 0.515200 0.336282 0.127362
C32   C     C_R   0.218040 0.484800 0.663718 0.127362
C33   C     C_R   0.611545 0.008548 0.687223 -0.227274
C34   C     C_R   0.388456 0.991456 0.312777 -0.227275
C35   C     C_R   0.888456 0.508548 0.312777 -0.227273
C36   C     C_R   0.111544 0.491451 0.687223 -0.227273
C37   C     C_R   0.581831 0.011707 0.589473 0.082059
C38   C     C_R   0.418169 0.988296 0.410527 0.082058
C39   C     C_R   0.918169 0.511705 0.410527 0.082058
C40   C     C_R   0.081831 0.488295 0.589473 0.082059
C41   C     C_R   0.622506 0.989963 0.530439 0.089779
C42   C     C_R   0.377494 0.010037 0.469561 0.089780
C43   C     C_R   0.877494 0.489955 0.469561 0.089780
C44   C     C_R   0.122506 0.510045 0.530439 0.089780
C45   C     C_R   0.513281 0.022634 0.548808 0.010664
C46   C     C_R   0.486720 0.977370 0.451191 0.010663
C47   C     C_R   0.986719 0.522634 0.451192 0.010664
C48   C     C_R   0.013281 0.477366 0.548808 0.010664
C49   C     C_R   0.529958 0.920805 0.399222 -0.054604
C50   C     C_R   0.470043 0.079200 0.600777 -0.054605
C51   C     C_R   0.970043 0.420794 0.600777 -0.054605
C52   C     C_R   0.029957 0.579205 0.399223 -0.054605
C53   C     C_R   0.596160 0.944590 0.436528 -0.179017
C54   C     C_R   0.403841 0.055412 0.563471 -0.179017
C55   C     C_R   0.903841 0.444577 0.563471 -0.179018
C56   C     C_R   0.096159 0.555422 0.436529 -0.179018
H9    H     H_    0.628034 0.910902 0.393982 0.157564
H10   H     H_    0.371967 0.089099 0.606018 0.157564
H11   H     H_    0.871967 0.410885 0.606017 0.157565
H12   H     H_    0.128033 0.589114 0.393983 0.157566
H13   H     H_    0.416069 0.009253 0.263330 0.121959
H14   H     H_    0.583931 0.990755 0.736669 0.121958
H15   H     H_    0.083930 0.509241 0.736670 0.121958
H16   H     H_    0.916069 0.490759 0.263330 0.121957
H17   H     H_    0.720809 0.985426 0.521642 0.151206
H18   H     H_    0.279191 0.014567 0.478358 0.151206
H19   H     H_    0.779191 0.485413 0.478358 0.151207
H20   H     H_    0.220809 0.514587 0.521642 0.151207
I1    I     I_    0.179884 0.973835 0.285392 -0.434223
I2    I     I_    0.820116 0.026153 0.714609 -0.434222
I3    I     I_    0.320117 0.473856 0.714608 -0.434220
I4    I     I_    0.679883 0.526145 0.285392 -0.434220
C57   C     C_1   0.510449 0.813761 0.313350 0.329270
N1    N     N_1   0.495275 0.727264 0.244873 -0.345843
C58   C     C_1   0.489551 0.186247 0.686647 0.329271
N2    N     N_1   0.504725 0.272748 0.755123 -0.345842
C59   C     C_1   0.989552 0.313744 0.686647 0.329271
N3    N     N_1   0.004726 0.227241 0.755123 -0.345841
C60   C     C_1   0.010448 0.686256 0.313353 0.329271
N4    N     N_1   0.995274 0.772759 0.244877 -0.345841

loop_
_geom_bond_atom_site_label_1
_geom_bond_atom_site_label_2
_ccdc_geom_bond_type
O17   V3    S    
C32   I3    S    
C51   C55   A    
C26   C30   A    
C55   H11   S    
O19   V1    S    
C27   H19   S    
C37   C45   A    
C60   N4    T    
C26   H18   S    
C40   C44   A    
O15   V3    S    
C39   C47   A    
C45   C46   A    
O1    C5    A    
O9    V1    S    
C47   C52   A    
O4    C8    A    
C38   C46   A    
O1    V3    S    
O13   V1    S    
O2    V4    S    
C14   H6    S    
C25   C41   A    
O3    V1    S    
O3    C7    A    
C38   C42   A    
C21   C29   A    
C1    O15   A    
C56   H12   S    
C2    O16   A    
C10   C14   A    
C23   C31   A    
O2    C6    A    
C58   N2    T    
C51   C59   S    
C37   C41   A    
O14   V2    S    
C21   C33   A    
C44   C56   A    
C4    C21   S    
C36   C40   A    
C30   I1    S    
C16   C20   A    
O11   C7    A    
O12   C8    A    
O10   V2    S    
C48   C51   A    
C13   C17   A    
O7    C3    A    
O5    V1    S    
C49   C57   S    
C52   C60   S    
O7    V3    S    
O8    V4    S    
C12   H4    S    
C54   H10   S    
C53   H9    S    
O18   V4    S    
C7    C18   S    
C22   C30   A    
C9    C18   A    
C50   C54   A    
C28   C44   A    
C9    H1    S    
C11   H3    S    
O5    C1    A    
O8    C4    A    
C25   H17   S    
C24   C32   A    
O9    C5    A    
C1    C24   S    
C50   C58   S    
C42   C54   A    
C25   C29   A    
C2    C23   S    
C3    C22   S    
C41   C53   A    
C36   H15   S    
C12   C19   A    
C14   C18   A    
C34   H13   S    
C43   C55   A    
C33   H14   S    
O6    V2    S    
C35   H16   S    
C12   C16   A    
C27   C43   A    
C11   C15   A    
C26   C42   A    
O16   V4    S    
C8    C17   S    
C3    O13   A    
C10   C17   A    
C10   H2    S    
C52   C56   A    
C31   I4    S    
C28   H20   S    
O6    C2    A    
C23   C35   A    
O11   V3    S    
C22   C34   A    
O12   V4    S    
C57   N1    T    
C27   C31   A    
C28   C32   A    
C9    C13   A    
O10   C6    A    
O20   V2    S    
C29   I2    S    
C40   C48   A    
C24   C36   A    
C59   N3    T    
C39   C43   A    
C46   C49   A    
C15   C19   A    
C34   C38   A    
C45   C50   A    
C33   C37   A    
C35   C39   A    
O4    V2    S    
C47   C48   A    
C4    O14   A    
C11   C20   A    
C13   H5    S    
C15   H7    S    
C5    C20   S    
C49   C53   A    
C16   H8    S    
C6    C19   S    
