data_mof_unit_2463.cif
_audit_creation_date              2012-12-10T19:46:55-0500
_audit_creation_method            fapswitch 2.2
_symmetry_space_group_name_H-M    P1
_symmetry_Int_Tables_number       1
_space_group_crystal_system       triclinic
_cell_length_a                    10.874162
_cell_length_b                    10.900986
_cell_length_c                    13.122582
_cell_angle_alpha                 90.525874
_cell_angle_beta                  90.05392
_cell_angle_gamma                 89.769481
_cell_volume                      1555.46015494

loop_
_atom_site_label
_atom_site_type_symbol
_atom_type_description
_atom_site_fract_x
_atom_site_fract_y
_atom_site_fract_z
_atom_type_partial_charge
C1    C     C_R   0.492774 0.259659 0.499486 0.870913
C2    C     C_R   0.507285 0.740318 0.500545 0.875653
C3    C     C_R   0.872859 0.496225 0.500531 -0.068940
C4    C     C_R   0.127188 0.504794 0.499352 -0.071979
C5    C     C_R   0.939394 0.438550 0.578927 0.068782
C6    C     C_R   0.060675 0.562190 0.420779 0.074404
C7    C     C_R   0.246313 0.225774 0.232652 -0.154915
C8    C     C_R   0.751384 0.771222 0.767676 -0.152869
C9    C     C_R   0.297924 0.175280 0.320270 -0.226490
C10   C     C_R   0.699882 0.821640 0.680000 -0.217886
C11   C     C_R   0.413320 0.116922 0.316247 -0.021703
C12   C     C_R   0.585956 0.882904 0.684342 -0.017481
C13   C     C_R   0.477291 0.111108 0.222791 0.379996
C14   C     C_R   0.523354 0.891540 0.778362 0.370212
C15   C     C_R   0.425177 0.162923 0.135444 -0.148648
C16   C     C_R   0.575357 0.839741 0.865765 -0.142357
C17   C     C_R   0.309766 0.219724 0.140222 0.383602
C18   C     C_R   0.689323 0.780189 0.860587 0.382854
C19   C     C_R   0.473018 0.932744 0.412099 -0.132252
C20   C     C_R   0.526550 0.067190 0.588182 -0.120659
C21   C     C_R   0.507743 0.872944 0.501518 -0.093577
C22   C     C_R   0.492098 0.126994 0.498686 -0.082485
C23   C     C_R   0.259599 0.503794 0.499822 0.889504
C24   C     C_R   0.740434 0.497241 0.500167 0.873507
C25   C     C_R   0.536424 0.940425 0.590584 0.082004
C26   C     C_R   0.463123 0.059454 0.409787 0.089419
C27   C     C_1   0.500022 0.500026 0.173576 0.195615
C28   C     C_1   0.500002 0.499959 0.826424 0.192968
C29   C     C_1   0.500031 0.500013 0.050685 0.036588
C30   C     C_1   0.500004 0.499958 0.949314 0.037496
C31   C     C_R   0.209906 0.823161 0.276683 -0.255972
C32   C     C_R   0.789697 0.176037 0.720596 -0.249673
C33   C     C_R   0.155285 0.758235 0.356562 0.395114
C34   C     C_R   0.843008 0.242431 0.641008 0.391440
C35   C     C_R   0.120621 0.634650 0.340135 -0.026209
C36   C     C_R   0.879574 0.365159 0.659023 -0.028305
C37   C     C_R   0.141085 0.579269 0.244630 -0.224133
C38   C     C_R   0.861594 0.418481 0.755652 -0.225873
C39   C     C_R   0.197567 0.644400 0.166595 -0.143169
C40   C     C_R   0.805828 0.352130 0.833318 -0.138037
C41   C     C_R   0.232157 0.766257 0.182596 0.403585
C42   C     C_R   0.769825 0.230957 0.815863 0.400342
C43   C     C_R   0.933453 0.556013 0.421561 -0.151436
C44   C     C_R   0.066583 0.444838 0.578216 -0.160399
Cu1   Cu    Cu3+1 0.499990 0.499990 0.592680 1.027246
Cu2   Cu    Cu3+1 0.500010 0.500010 0.407320 1.033617
H1    H     H_    0.474245 0.158813 0.063741 0.236946
H2    H     H_    0.527384 0.846128 0.937871 0.238967
H3    H     H_    0.450236 0.880305 0.344171 0.173207
H4    H     H_    0.549168 0.119709 0.656091 0.173340
H5    H     H_    0.235524 0.918092 0.287207 0.197835
H6    H     H_    0.763308 0.081516 0.708943 0.205582
H7    H     H_    0.113683 0.485273 0.230862 0.184552
H8    H     H_    0.890496 0.511768 0.770631 0.182755
H9    H     H_    0.214061 0.600131 0.093658 0.199013
H10   H     H_    0.791189 0.394843 0.907152 0.200122
H11   H     H_    0.881452 0.601482 0.362141 0.170814
H12   H     H_    0.118568 0.399213 0.637564 0.175050
H13   H     H_    0.156621 0.268794 0.236678 0.189932
H14   H     H_    0.839921 0.725936 0.763288 0.183191
H15   H     H_    0.247515 0.180856 0.391299 0.211944
H16   H     H_    0.749168 0.813372 0.608610 0.202960
N1    N     N_1   0.500030 0.500030 0.268070 -0.135781
N2    N     N_1   0.499970 0.499970 0.731930 -0.136925
O1    O     O_R   0.499980 0.319630 0.578260 -0.587839
O2    O     O_R   0.500020 0.680370 0.421740 -0.587859
O3    O     O_R   0.500000 0.319650 0.421740 -0.558454
O4    O     O_R   0.500000 0.680350 0.578260 -0.560441
O5    O     O_R   0.319630 0.500000 0.578260 -0.559803
O6    O     O_R   0.680370 0.500000 0.421740 -0.557160
O7    O     O_R   0.319650 0.500020 0.421740 -0.599228
O8    O     O_R   0.680350 0.499980 0.578260 -0.600770
Cl1   Cl    Cl    0.303122 0.848194 0.084545 -0.544384
Cl2   Cl    Cl    0.700139 0.147440 0.913616 -0.537994
Cl3   Cl    Cl    0.623735 0.042545 0.213152 -0.479307
Cl4   Cl    Cl    0.378716 0.963672 0.788870 -0.499588
S1    S     S_3+6 0.130484 0.833430 0.475083 0.021944
O9    O     O_2   0.155288 0.968358 0.466270 -0.248272
O10   O     O_2   0.999804 0.814791 0.508404 -0.274528
O11   O     O_3   0.225241 0.773966 0.563083 -0.559041
H17   H     H_    0.205887 0.819279 0.626884 0.410045
S2    S     S_3+6 0.864307 0.169754 0.521005 0.034921
O12   O     O_2   0.782050 0.229154 0.443606 -0.311372
O13   O     O_2   0.995720 0.183252 0.487885 -0.236189
O14   O     O_3   0.829691 0.019988 0.527829 -0.509925
H18   H     H_    0.809186 0.994731 0.457145 0.400025
Cl5   Cl    Cl    0.244502 0.283243 0.030275 -0.552809
Cl6   Cl    Cl    0.754527 0.716867 0.970638 -0.554891

loop_
_geom_bond_atom_site_label_1
_geom_bond_atom_site_label_2
_ccdc_geom_bond_type
C27   C29   S    
C40   H10   S    
C23   O5    A    
C15   H1    S    
C16   H2    S    
C24   O6    A    
C39   C41   A    
O14   H18   S    
C3    C43   A    
C9    H15   S    
C19   C21   A    
Cu2   O2    S    
C2    O4    A    
C20   C25   A    
C5    C36   S    
C6    C35   S    
C7    C9    A    
C19   C26   A    
C32   H6    S    
C20   H4    S    
C33   C35   A    
C39   H9    S    
C13   Cl3   S    
C44   H12   S    
C7    C17   A    
C1    O1    A    
C31   C33   A    
C37   H7    S    
C40   C42   A    
C1    C22   S    
Cu1   O8    S    
C3    C24   S    
C10   H16   S    
C2    C21   S    
C10   C12   A    
C7    H13   S    
S1    O10   D    
C42   Cl2   S    
Cu1   O5    S    
C23   O7    A    
C4    C6    A    
C31   H5    S    
C4    C23   S    
C4    C44   A    
C11   C26   S    
C2    O2    A    
S1    O9    D    
C8    C18   A    
C14   Cl4   S    
C29   C30   T    
C19   H3    S    
C38   H8    S    
Cu1   O4    S    
C9    C11   A    
Cu2   O7    S    
C27   N1    T    
C28   N2    T    
C16   C18   A    
C5    C44   A    
C20   C22   A    
S2    O13   D    
C6    C43   A    
C13   C15   A    
Cu1   O1    S    
C14   C16   A    
C24   O8    A    
S1    O11   S    
C15   C17   A    
C21   C25   A    
C31   C41   A    
C35   C37   A    
C17   Cl5   S    
C12   C14   A    
O11   H17   S    
C3    C5    A    
S2    O14   S    
Cu2   N1    S    
Cu1   N2    S    
C12   C25   S    
C28   C30   S    
Cu2   O3    S    
C37   C39   A    
C8    H14   S    
C38   C40   A    
C11   C13   A    
C33   S1    S    
C36   C38   A    
C1    O3    A    
C34   C36   A    
C18   Cl6   S    
Cu2   O6    S    
C43   H11   S    
C41   Cl1   S    
Cu1   Cu2   S    
C8    C10   A    
S2    O12   D    
C22   C26   A    
C32   C42   A    
C34   S2    S    
C32   C34   A    
