data_mof_unit_4202.cif
_audit_creation_date              2012-10-26T20:12:48-0400
_audit_creation_method            fapswitch 2.2
_symmetry_space_group_name_H-M    P1
_symmetry_Int_Tables_number       1
_space_group_crystal_system       triclinic
_cell_length_a                    15.143259
_cell_length_b                    13.86224
_cell_length_c                    10.804229
_cell_angle_alpha                 89.985187
_cell_angle_beta                  91.020312
_cell_angle_gamma                 90.00275
_cell_volume                      2267.65856546

loop_
_atom_site_label
_atom_site_type_symbol
_atom_type_description
_atom_site_fract_x
_atom_site_fract_y
_atom_site_fract_z
_atom_type_partial_charge
C1    C     C_R   0.329891 0.499934 0.499949 0.534787
C2    C     C_R   0.435335 0.790629 0.435853 0.395504
C3    C     C_R   0.449669 0.209881 0.414178 0.395008
C4    C     C_R   0.564674 0.790593 0.564150 0.395570
C5    C     C_R   0.500061 0.054861 0.499949 -0.021973
C6    C     C_R   0.500043 0.945582 0.499958 0.003636
C7    C     C_R   0.511372 0.499956 0.262686 0.525999
C8    C     C_R   0.488654 0.499927 0.737327 0.525928
C9    C     C_R   0.547176 0.676384 0.111188 -0.128614
C10   C     C_R   0.454844 0.322400 0.887473 -0.087918
C11   C     C_R   0.452585 0.676247 0.888658 -0.128418
C12   C     C_R   0.670108 0.499938 0.500049 0.534661
C13   C     C_R   0.545727 0.322586 0.112746 -0.088096
C14   C     C_R   0.526540 0.763732 0.053273 0.220752
C15   C     C_R   0.475484 0.235059 0.945184 0.249275
C16   C     C_R   0.473124 0.763659 0.946411 0.220919
C17   C     C_R   0.525360 0.235162 0.055131 0.248927
C18   C     C_R   0.482411 0.587711 0.939319 -0.041192
C19   C     C_R   0.517237 0.411320 0.061020 -0.035822
C20   C     C_R   0.517499 0.587769 0.060634 -0.041184
C21   C     C_R   0.483084 0.411253 0.939087 -0.035923
C22   C     C_R   0.476959 0.499589 0.873356 -0.023754
C23   C     C_R   0.048589 0.498917 0.499857 0.036888
C24   C     C_R   0.523123 0.499673 0.126673 -0.023704
C25   C     C_R   0.094690 0.582035 0.464294 -0.126114
C26   C     C_R   0.904030 0.416127 0.464257 -0.122832
C27   C     C_R   0.905313 0.581968 0.535921 -0.126109
C28   C     C_R   0.095954 0.416055 0.535530 -0.122878
C29   C     C_R   0.186416 0.582661 0.465918 -0.129756
C30   C     C_R   0.812244 0.416207 0.465169 -0.143076
C31   C     C_R   0.813587 0.582600 0.534295 -0.129717
C32   C     C_R   0.187741 0.416131 0.534609 -0.142886
C33   C     C_R   0.233470 0.499597 0.500208 0.011417
C34   C     C_R   0.951406 0.498918 0.500147 0.036883
C35   C     C_R   0.766526 0.499605 0.499786 0.011331
C36   C     C_3   0.685170 0.229041 0.691175 -0.009874
C37   C     C_3   0.697724 0.191249 0.823502 -0.251443
C38   C     C_3   0.790285 0.150424 0.844736 -0.480440
C39   C     C_3   0.353015 0.772323 0.252677 0.000121
C40   C     C_3   0.258113 0.809282 0.239338 -0.300168
C41   C     C_3   0.241414 0.854031 0.111953 -0.448228
C42   C     C_3   0.314904 0.228650 0.308413 -0.010188
C43   C     C_3   0.302950 0.190820 0.176023 -0.251618
C44   C     C_3   0.211123 0.148066 0.154801 -0.480073
C45   C     C_R   0.546806 0.107829 0.590558 -0.103006
C46   C     C_3   0.646936 0.772277 0.747390 0.000114
C47   C     C_3   0.741844 0.809236 0.760686 -0.300260
C48   C     C_3   0.758490 0.854246 0.887901 -0.447853
C49   C     C_R   0.431930 0.892592 0.442133 -0.102056
C50   C     C_R   0.453301 0.107855 0.409353 -0.103271
C51   C     C_R   0.568126 0.892557 0.557819 -0.102099
C52   C     C_R   0.550347 0.209850 0.585800 0.394989
Cl1   Cl    Cl    0.561613 0.127093 0.124158 -0.526125
Cl2   Cl    Cl    0.433560 0.871648 0.880507 -0.538850
Cl3   Cl    Cl    0.439568 0.126833 0.876292 -0.525589
Cl4   Cl    Cl    0.566019 0.871827 0.118929 -0.538429
Cu1   Cu    Cu3+1 0.500000 0.596430 0.500000 1.051408
Cu2   Cu    Cu3+1 0.500000 0.403570 0.500000 1.043844
H1    H     H_    0.588035 0.678464 0.194305 0.168999
H2    H     H_    0.777101 0.351521 0.437079 0.124062
H3    H     H_    0.779610 0.647635 0.561396 0.166083
H4    H     H_    0.222874 0.351388 0.562526 0.124134
H5    H     H_    0.580057 0.070784 0.665815 0.137881
H6    H     H_    0.375705 0.929502 0.401645 0.092682
H7    H     H_    0.420085 0.070807 0.334096 0.137646
H8    H     H_    0.624357 0.929441 0.598312 0.092679
H9    H     H_    0.730075 0.291563 0.678809 0.159144
H10   H     H_    0.706129 0.173795 0.622525 0.098353
H11   H     H_    0.686705 0.251130 0.889889 0.182816
H12   H     H_    0.414675 0.319933 0.803760 0.163867
H13   H     H_    0.648702 0.133784 0.842309 0.223816
H14   H     H_    0.801629 0.088482 0.781742 0.142369
H15   H     H_    0.797391 0.124823 0.941803 0.176300
H16   H     H_    0.840763 0.206912 0.828216 0.145999
H17   H     H_    0.360948 0.710167 0.188955 0.166330
H18   H     H_    0.399747 0.828925 0.221451 0.180836
H19   H     H_    0.211410 0.748448 0.252280 0.160564
H20   H     H_    0.245111 0.864346 0.311393 0.159642
H21   H     H_    0.285302 0.917315 0.098704 0.207720
H22   H     H_    0.171745 0.878565 0.104105 0.140448
H23   H     H_    0.411707 0.678211 0.805554 0.168977
H24   H     H_    0.253675 0.800163 0.038094 0.180553
H25   H     H_    0.269646 0.290897 0.320457 0.158767
H26   H     H_    0.293984 0.173326 0.377020 0.098595
H27   H     H_    0.312913 0.251031 0.109731 0.181830
H28   H     H_    0.352948 0.134429 0.157050 0.224934
H29   H     H_    0.201023 0.085611 0.217457 0.142299
H30   H     H_    0.204346 0.122720 0.057606 0.176720
H31   H     H_    0.159647 0.203347 0.171821 0.145805
H32   H     H_    0.639000 0.710136 0.811180 0.166276
H33   H     H_    0.600195 0.828874 0.778561 0.180913
H34   H     H_    0.585883 0.320297 0.196482 0.163646
H35   H     H_    0.788535 0.748360 0.748039 0.160410
H36   H     H_    0.754907 0.864144 0.688422 0.159810
H37   H     H_    0.714653 0.917610 0.900811 0.207651
H38   H     H_    0.828177 0.878723 0.895745 0.140469
H39   H     H_    0.746125 0.800554 0.961970 0.180641
H40   H     H_    0.059989 0.646367 0.434020 0.104381
H41   H     H_    0.937756 0.351693 0.433937 0.103840
H42   H     H_    0.940023 0.646238 0.566365 0.104368
H43   H     H_    0.062220 0.351562 0.565686 0.103780
H44   H     H_    0.220396 0.647754 0.438994 0.166145
N1    N     N_R   0.500000 0.258690 0.500000 -0.210000
N2    N     N_R   0.500000 0.741310 0.500000 -0.200552
O1    O     O_R   0.371460 0.581430 0.500010 -0.460799
O2    O     O_3   0.369158 0.738900 0.375053 -0.549765
O3    O     O_3   0.402478 0.262666 0.326105 -0.521214
O4    O     O_3   0.630792 0.738823 0.625046 -0.549715
O5    O     O_R   0.628540 0.418570 0.499990 -0.499175
O6    O     O_R   0.628540 0.581430 0.499990 -0.460758
O7    O     O_R   0.371460 0.418570 0.500010 -0.498789
O8    O     O_R   0.499990 0.581440 0.319660 -0.496462
O9    O     O_R   0.500010 0.418560 0.680340 -0.463486
O10   O     O_R   0.500010 0.581440 0.680340 -0.496309
O11   O     O_R   0.499990 0.418560 0.319660 -0.463309
O12   O     O_3   0.597387 0.262560 0.674046 -0.521275

loop_
_geom_bond_atom_site_label_1
_geom_bond_atom_site_label_2
_ccdc_geom_bond_type
C39   O2    S    
Cu1   O1    S    
C11   C18   A    
C48   H37   S    
C37   H11   S    
Cu2   O5    S    
C31   H3    S    
C14   Cl4   S    
C43   C44   S    
C41   H22   S    
C12   O6    A    
C36   H9    S    
C1    C33   S    
C52   N1    A    
C11   H23   S    
C48   H39   S    
C4    O4    S    
C30   C35   A    
C36   C37   S    
C19   C21   A    
C10   C15   A    
C5    C6    S    
Cu1   O8    S    
C7    C24   S    
C29   C33   A    
C7    O8    A    
C7    O11   A    
C28   H43   S    
C26   C34   A    
C47   C48   S    
C30   H2    S    
Cu2   O9    S    
C8    C22   S    
C39   H17   S    
C6    C51   A    
C44   H29   S    
C42   O3    S    
C18   C20   A    
C8    O10   A    
C26   H41   S    
C10   C21   A    
C49   H6    S    
C21   C22   A    
C12   O5    A    
C3    C50   A    
C52   O12   S    
C27   C34   A    
C25   C29   A    
C38   H14   S    
C27   H42   S    
C13   C19   A    
C4    C51   A    
C27   C31   A    
Cu2   O7    S    
C43   H27   S    
C20   C24   A    
C28   C32   A    
C42   H26   S    
C39   C40   S    
C46   H33   S    
C45   C52   A    
C3    O3    S    
C39   H18   S    
C5    C45   A    
C2    O2    S    
C46   O4    S    
C9    H1    S    
C51   H8    S    
C15   Cl3   S    
C9    C14   A    
C37   C38   S    
C2    C49   A    
C11   C16   A    
C9    C20   A    
Cu1   O6    S    
C2    N2    A    
C23   C34   S    
C47   H35   S    
C23   C28   A    
C12   C35   S    
C8    O9    A    
C10   H12   S    
C40   C41   S    
C26   C30   A    
C37   H13   S    
C13   H34   S    
Cu2   O11   S    
C40   H20   S    
C5    C50   A    
C42   C43   S    
C36   O12   S    
C17   Cl1   S    
C38   H16   S    
C3    N1    A    
C15   C17   A    
Cu1   N2    S    
C46   C47   S    
C48   H38   S    
C18   C22   A    
C43   H28   S    
C42   H25   S    
C41   H21   S    
C36   H10   S    
Cu1   O10   S    
C46   H32   S    
C13   C17   A    
C32   C33   A    
C19   C24   A    
C32   H4    S    
C1    O7    A    
Cu1   Cu2   S    
C41   H24   S    
C4    N2    A    
C31   C35   A    
C47   H36   S    
C45   H5    S    
C29   H44   S    
C14   C16   A    
C23   C25   A    
C6    C49   A    
C50   H7    S    
C16   Cl2   S    
C25   H40   S    
C40   H19   S    
Cu2   N1    S    
C44   H30   S    
C44   H31   S    
C1    O1    A    
C38   H15   S    
