data_mof_unit_2072.cif
_audit_creation_date              2012-12-10T18:20:34-0500
_audit_creation_method            fapswitch 2.2
_symmetry_space_group_name_H-M    P1
_symmetry_Int_Tables_number       1
_space_group_crystal_system       triclinic
_cell_length_a                    14.015245
_cell_length_b                    13.602217
_cell_length_c                    15.004745
_cell_angle_alpha                 89.879363
_cell_angle_beta                  89.995034
_cell_angle_gamma                 81.652686
_cell_volume                      2830.17106104

loop_
_atom_site_label
_atom_site_type_symbol
_atom_type_description
_atom_site_fract_x
_atom_site_fract_y
_atom_site_fract_z
_atom_type_partial_charge
C1    C     C_R   0.499987 0.500377 0.326488 0.895342
C2    C     C_R   0.499968 0.500255 0.673516 0.897073
C3    C     C_R   0.500057 0.503615 0.953635 0.067033
C4    C     C_R   0.500073 0.503659 0.046373 0.059148
C5    C     C_R   0.588381 0.484316 0.907309 0.110158
C6    C     C_R   0.411717 0.522324 0.092724 0.114171
C7    C     C_R   0.324392 0.542101 0.953673 -0.201126
C8    C     C_R   0.675809 0.465980 0.046347 -0.162588
C9    C     C_R   0.324378 0.541770 0.046276 -0.196143
C10   C     C_R   0.675788 0.465811 0.953751 -0.204805
C11   C     C_R   0.804523 0.455339 0.568022 -0.029110
C12   C     C_R   0.195452 0.544730 0.432004 -0.029254
C13   C     C_R   0.791407 0.544503 0.431541 0.024838
C14   C     C_R   0.208660 0.454831 0.568118 0.027139
C15   C     C_R   0.892276 0.546086 0.428869 -0.121751
C16   C     C_R   0.107782 0.453222 0.570757 -0.121052
C17   C     C_R   0.949353 0.500179 0.499522 0.022107
C18   C     C_R   0.050660 0.499526 0.500297 0.022511
C19   C     C_R   0.905077 0.454392 0.569382 -0.028472
C20   C     C_R   0.094927 0.545361 0.430460 -0.028545
C21   C     C_R   0.937945 0.591150 0.358319 0.461214
C22   C     C_R   0.062169 0.407436 0.640922 0.460289
C23   C     C_R   0.518270 0.313901 0.500470 0.911891
C24   C     C_R   0.481736 0.686097 0.499478 0.910692
C25   C     C_R   0.038494 0.590505 0.360334 -0.302078
C26   C     C_R   0.961569 0.408600 0.639156 -0.300329
C27   C     C_1   0.466022 0.790250 0.498400 -0.172898
C28   C     C_1   0.534019 0.209741 0.501041 -0.172099
C29   C     C_2   0.457115 0.982669 0.498554 -0.019839
C30   C     C_2   0.543027 0.017317 0.499868 -0.020018
C31   C     C_1   0.542841 0.121618 0.500909 -0.039525
C32   C     C_1   0.457271 0.878369 0.498019 -0.042511
C33   C     C_R   0.587660 0.483469 0.815132 -0.244099
C34   C     C_R   0.412322 0.521024 0.184924 -0.247987
C35   C     C_R   0.499946 0.501550 0.769353 -0.077050
C36   C     C_R   0.499982 0.501698 0.230656 -0.085416
C37   C     C_R   0.412331 0.521395 0.815025 -0.240541
C38   C     C_R   0.587720 0.483982 0.184934 -0.220461
C39   C     C_R   0.411706 0.522544 0.907237 0.104418
C40   C     C_R   0.588423 0.484590 0.092751 0.100455
H1    H     H_    0.655320 0.468002 0.779181 0.158345
H2    H     H_    0.344633 0.535475 0.220940 0.158427
H3    H     H_    0.344738 0.536413 0.778920 0.191974
H4    H     H_    0.655384 0.468805 0.220946 0.189770
H5    H     H_    0.256340 0.557367 0.918462 0.186793
H6    H     H_    0.743886 0.451227 0.081599 0.192902
H7    H     H_    0.256309 0.556512 0.081522 0.165440
H8    H     H_    0.743855 0.451008 0.918507 0.166507
H9    H     H_    0.769398 0.420218 0.621122 0.132696
H10   H     H_    0.230556 0.579980 0.378971 0.132332
H11   H     H_    0.744706 0.578258 0.379395 0.209300
H12   H     H_    0.255413 0.420455 0.619988 0.207844
H13   H     H_    0.073423 0.624791 0.306553 0.190949
H14   H     H_    0.926675 0.373872 0.692690 0.190872
N1    N     N_R   0.750030 0.500040 0.500070 -0.123199
N2    N     N_R   0.249970 0.499960 0.499930 -0.123124
O1    O     O_R   0.580280 0.500020 0.367860 -0.628105
O2    O     O_R   0.419720 0.499980 0.632140 -0.625290
O3    O     O_R   0.419730 0.500030 0.367840 -0.633584
O4    O     O_R   0.580270 0.499970 0.632160 -0.634219
O5    O     O_R   0.591830 0.359650 0.500030 -0.613039
O6    O     O_R   0.408170 0.640350 0.499970 -0.612623
O7    O     O_R   0.431280 0.359660 0.500010 -0.601797
O8    O     O_R   0.568720 0.640340 0.499990 -0.600954
Zn1   Zn    Zn3+2 0.607200 0.499990 0.500020 0.956269
Zn2   Zn    Zn3+2 0.392800 0.500010 0.499980 0.957645
C41   C     C_R   0.638417 0.952321 0.501121 0.137061
C42   C     C_R   0.708115 0.964943 0.436352 -0.153416
C43   C     C_R   0.797596 0.904075 0.436660 -0.055423
C44   C     C_R   0.818295 0.830086 0.501429 -0.065517
C45   C     C_R   0.750166 0.817976 0.566980 -0.127894
C46   C     C_R   0.661041 0.879451 0.567581 -0.132244
H15   H     H_    0.692760 0.021192 0.385084 0.136106
H16   H     H_    0.850615 0.913673 0.386137 0.158366
H17   H     H_    0.887195 0.782345 0.500956 0.134555
H18   H     H_    0.766522 0.761125 0.617518 0.142946
H19   H     H_    0.609688 0.870111 0.619736 0.135212
C47   C     C_R   0.361740 0.047700 0.497088 0.134488
C48   C     C_R   0.291797 0.035067 0.561619 -0.139232
C49   C     C_R   0.202361 0.096011 0.561112 -0.053811
C50   C     C_R   0.181930 0.170062 0.496360 -0.085127
C51   C     C_R   0.250295 0.182174 0.431032 -0.126747
C52   C     C_R   0.339388 0.120643 0.430641 -0.133843
H20   H     H_    0.306925 0.978750 0.612860 0.138524
H21   H     H_    0.149132 0.086364 0.611426 0.159905
H22   H     H_    0.113047 0.217837 0.496658 0.134475
H23   H     H_    0.234148 0.239074 0.380506 0.142889
H24   H     H_    0.390934 0.130000 0.378657 0.133805
S1    S     S_3+6 0.872549 0.646144 0.265271 -0.014417
O9    O     O_2   0.937549 0.692421 0.203102 -0.287992
O10   O     O_2   0.828937 0.567234 0.216310 -0.343101
O11   O     O_3   0.783866 0.734144 0.300414 -0.592086
H25   H     H_    0.744537 0.753661 0.246683 0.387794
S2    S     S_3+6 0.127810 0.349954 0.732776 -0.008987
O12   O     O_2   0.062073 0.307169 0.796678 -0.286339
O13   O     O_2   0.203191 0.268216 0.699808 -0.335045
O14   O     O_3   0.182157 0.435241 0.786035 -0.591725
H26   H     H_    0.226273 0.396771 0.829249 0.383910

loop_
_geom_bond_atom_site_label_1
_geom_bond_atom_site_label_2
_ccdc_geom_bond_type
C2    C35   S    
C14   N2    A    
C34   H2    S    
C24   C27   S    
C6    C9    A    
O14   H26   S    
C21   S1    S    
C11   C19   A    
C29   C30   D    
C7    H5    S    
C35   C37   A    
C25   H13   S    
C29   C32   S    
C1    O3    A    
O3    Zn2   S    
C48   H20   S    
C2    O4    A    
C20   C25   A    
C51   H23   S    
C7    C9    A    
C41   C46   A    
C19   C26   A    
C33   C35   A    
C13   H11   S    
C47   C52   A    
O2    Zn2   S    
C14   H12   S    
C29   C47   S    
C4    C40   A    
C42   C43   A    
C5    C33   A    
C16   C22   A    
C44   C45   A    
S1    O10   D    
C34   C36   A    
C50   H22   S    
C23   O7    A    
C52   H24   S    
O7    Zn2   S    
C3    C39   A    
C24   O8    A    
C22   S2    S    
C49   H21   S    
S2    O12   D    
C26   H14   S    
N1    Zn1   S    
C50   C51   A    
O6    Zn2   S    
C41   C42   A    
C4    C6    A    
C47   C48   A    
S2    O14   S    
C42   H15   S    
C6    C34   A    
C37   H3    S    
C38   H4    S    
C46   H19   S    
C11   H9    S    
C1    O1    A    
C15   C21   A    
C30   C31   S    
C12   C20   A    
C17   C18   A    
C43   H16   S    
C23   C28   S    
S1    O11   S    
S2    O13   D    
C12   N2    A    
C8    C10   A    
O4    Zn1   S    
C9    H7    S    
C13   C15   A    
C10   H8    S    
C14   C16   A    
C3    C4    A    
C11   N1    A    
C15   C17   A    
C21   C25   A    
C24   O6    A    
C27   C32   T    
C28   C31   T    
C30   C41   S    
O1    Zn1   S    
C49   C50   A    
C3    C5    A    
C12   H10   S    
C2    O2    A    
C33   H1    S    
O8    Zn1   S    
C36   C38   A    
C5    C10   A    
C37   C39   A    
C38   C40   A    
C45   H18   S    
N2    Zn2   S    
O11   H25   S    
C17   C19   A    
C18   C20   A    
C43   C44   A    
C8    H6    S    
C48   C49   A    
O5    Zn1   S    
C23   O5    A    
C45   C46   A    
C16   C18   A    
C51   C52   A    
C22   C26   A    
C44   H17   S    
C7    C39   A    
C8    C40   A    
S1    O9    D    
C1    C36   S    
C13   N1    A    
