data_mof_unit_3412.cif
_audit_creation_date              2012-10-26T18:50:19-0400
_audit_creation_method            fapswitch 2.2
_symmetry_space_group_name_H-M    P1
_symmetry_Int_Tables_number       1
_space_group_crystal_system       triclinic
_cell_length_a                    9.606468
_cell_length_b                    10.855835
_cell_length_c                    15.439149
_cell_angle_alpha                 87.10488
_cell_angle_beta                  74.034166
_cell_angle_gamma                 89.764233
_cell_volume                      1545.92694233

loop_
_atom_site_label
_atom_site_type_symbol
_atom_type_description
_atom_site_fract_x
_atom_site_fract_y
_atom_site_fract_z
_atom_type_partial_charge
C1    C     C_R   0.003768 0.262541 0.495248 0.548858
C2    C     C_R   0.223929 0.420269 0.048706 -0.030560
C3    C     C_R   0.317359 0.475789 0.091473 0.008065
C4    C     C_R   0.917952 0.498615 0.672240 0.553566
C5    C     C_R   0.082349 0.387875 0.097881 -0.140103
C6    C     C_R   0.034463 0.408856 0.190096 0.107656
C7    C     C_R   0.254872 0.525408 0.175602 -0.008333
C8    C     C_R   0.276727 0.112779 0.483061 -0.121394
C9    C     C_R   0.384829 0.050175 0.511258 -0.135944
C10   C     C_R   0.355312 0.934646 0.555724 0.005118
C11   C     C_R   0.222707 0.876865 0.563199 -0.098659
C12   C     C_R   0.667178 0.489222 0.907372 0.023257
C13   C     C_R   0.117983 0.934527 0.525959 0.014330
C14   C     C_R   0.135872 0.060716 0.499362 0.024674
C15   C     C_R   0.011949 0.128010 0.490588 -0.011822
C16   C     C_R   0.997551 0.736898 0.506278 0.536332
C17   C     C_R   0.887092 0.064295 0.487692 -0.154066
C18   C     C_R   0.882942 0.937029 0.493931 -0.142607
C19   C     C_R   0.997172 0.870752 0.512938 0.001966
C20   C     C_R   0.695268 0.671174 0.386157 -0.085024
C21   C     C_R   0.645767 0.764490 0.338089 -0.187235
C22   C     C_R   0.501369 0.768634 0.340925 -0.144950
C23   C     C_R   0.763301 0.526099 0.956796 0.016681
C24   C     C_R   0.406865 0.676502 0.388795 -0.060586
C25   C     C_R   0.450030 0.585952 0.444987 0.143016
C26   C     C_R   0.599671 0.584824 0.444399 0.151262
C27   C     C_R   0.549747 0.418139 0.552808 0.075520
C28   C     C_R   0.081171 0.497075 0.327835 0.546059
C29   C     C_R   0.402219 0.418553 0.552503 -0.036701
C30   C     C_R   0.871106 0.500962 0.771014 -0.010318
C31   C     C_R   0.122256 0.478731 0.229949 0.001281
C32   C     C_R   0.909745 0.552245 0.912871 -0.135725
C33   C     C_R   0.962400 0.543145 0.819924 -0.138585
C34   C     C_R   0.515724 0.472884 0.951754 0.023420
C35   C     C_R   0.728633 0.466286 0.816040 -0.104946
C36   C     C_1   0.462818 0.873330 0.590956 0.176939
C37   C     C_1   0.593789 0.326991 0.610538 0.227313
C38   C     C_1   0.300164 0.647338 0.190570 0.220372
C39   C     C_3   0.895914 0.238643 0.276755 -0.281299
C40   C     C_3   0.505521 0.356566 0.226427 -0.297440
C41   C     C_3   0.427794 0.592885 0.781167 -0.284456
C42   C     C_R   0.467996 0.485244 0.047137 0.033373
C43   C     C_R   0.571949 0.501582 0.096327 0.141373
C44   C     C_R   0.715249 0.530066 0.050117 -0.125019
C45   C     C_R   0.408338 0.445474 0.906206 0.135603
C46   C     C_R   0.269742 0.406392 0.956368 -0.114926
Cu1   Cu    Cu3+1 0.140660 0.499990 0.500010 0.907543
Cu2   Cu    Cu3+1 0.859340 0.500010 0.499990 0.968726
H1    H     H_    0.791847 0.549021 0.088028 0.104481
H2    H     H_    0.463594 0.841845 0.303250 0.158817
H3    H     H_    0.302391 0.679455 0.378140 0.201230
H4    H     H_    0.326934 0.352138 0.595327 0.124379
H5    H     H_    0.192781 0.376255 0.921726 0.111461
H6    H     H_    0.983114 0.581189 0.950371 0.114974
H7    H     H_    0.073805 0.568693 0.786520 0.123221
H8    H     H_    0.670073 0.418147 0.778112 0.195308
H9    H     H_    0.817879 0.377730 0.207380 0.240505
H10   H     H_    0.787210 0.214813 0.322392 0.132463
H11   H     H_    0.977028 0.228000 0.315688 0.158290
H12   H     H_    0.010817 0.342551 0.065713 0.115127
H13   H     H_    0.921591 0.174109 0.220999 0.127774
H14   H     H_    0.604499 0.527152 0.222150 0.256787
H15   H     H_    0.480733 0.352043 0.301177 0.149977
H16   H     H_    0.600174 0.297452 0.198519 0.126183
H17   H     H_    0.410564 0.319430 0.208188 0.161727
H18   H     H_    0.370235 0.408987 0.783921 0.249353
H19   H     H_    0.451740 0.599471 0.706531 0.174034
H20   H     H_    0.510377 0.648007 0.800790 0.183621
H21   H     H_    0.318712 0.631589 0.810627 0.135076
H22   H     H_    0.792861 0.112757 0.478685 0.136432
H23   H     H_    0.308560 0.199099 0.445186 0.143864
H24   H     H_    0.490450 0.093123 0.499879 0.107420
H25   H     H_    0.201848 0.788170 0.599749 0.144095
H26   H     H_    0.789605 0.890636 0.483785 0.160552
H27   H     H_    0.809287 0.670949 0.375050 0.182970
H28   H     H_    0.720612 0.832633 0.296983 0.117604
N1    N     N_R   0.648320 0.501210 0.499140 -0.250348
N2    N     N_R   0.352470 0.501290 0.499110 -0.260923
N3    N     N_1   0.549120 0.824121 0.619399 -0.317884
N4    N     N_1   0.628017 0.252930 0.657059 -0.308902
N5    N     N_1   0.334599 0.746576 0.199821 -0.347547
N6    N     N_2   0.895915 0.364239 0.241026 -0.491006
N7    N     N_2   0.535938 0.483289 0.192285 -0.507235
N8    N     N_2   0.431699 0.465006 0.811410 -0.544759
O1    O     O_R   0.118810 0.319640 0.500010 -0.516265
O2    O     O_R   0.881240 0.319660 0.500000 -0.488081
O3    O     O_R   0.055570 0.499980 0.629840 -0.504827
O4    O     O_R   0.818000 0.500010 0.629830 -0.481748
O5    O     O_R   0.118760 0.680340 0.500000 -0.538756
O6    O     O_R   0.881190 0.680360 0.499990 -0.513895
O7    O     O_R   0.182000 0.499990 0.370170 -0.516749
O8    O     O_R   0.944430 0.500020 0.370160 -0.490404

loop_
_geom_bond_atom_site_label_1
_geom_bond_atom_site_label_2
_ccdc_geom_bond_type
C44   H1    S    
C33   H7    S    
H14   N7    S    
C3    C42   A    
C16   O6    A    
C6    N6    S    
C27   C29   A    
C43   N7    S    
C34   C42   A    
C9    H24   S    
C41   H19   S    
C4    O3    A    
C45   C46   A    
C2    C46   A    
C12   C23   A    
C40   H15   S    
C30   C35   A    
Cu1   O1    S    
C3    C7    A    
C5    C6    A    
C11   C13   A    
C18   C19   A    
C29   N2    A    
C8    C9    A    
Cu2   O4    S    
C1    C15   S    
C9    C10   A    
C5    H12   S    
C22   H2    S    
C24   H3    S    
C6    C31   A    
C17   H22   S    
C18   H26   S    
Cu2   O6    S    
C21   C22   A    
Cu1   O5    S    
C40   N7    S    
C32   H6    S    
C41   H20   S    
C1    O1    A    
C39   H13   S    
C37   N4    T    
C26   N1    A    
C7    C31   A    
C13   C19   A    
C25   N2    A    
C24   C25   A    
C11   H25   S    
C25   C26   A    
C39   H10   S    
C23   C44   A    
C20   H27   S    
Cu1   O3    S    
Cu2   N1    S    
C43   C44   A    
Cu1   Cu2   S    
C21   H28   S    
C39   H11   S    
C17   C18   A    
C28   O8    A    
C34   C45   A    
C12   C35   A    
C40   H17   S    
C38   N5    T    
Cu2   O2    S    
C45   N8    S    
C42   C43   A    
C12   C34   A    
C41   H21   S    
C1    O2    A    
C15   C17   A    
C8    H23   S    
C8    C14   A    
C30   C33   A    
C35   H8    S    
C14   C15   A    
Cu1   O7    S    
C28   C31   S    
C39   N6    S    
C27   N1    A    
C36   N3    T    
C4    O4    A    
C40   H16   S    
C23   C32   A    
C2    C3    A    
C32   C33   A    
C41   N8    S    
C20   C26   A    
C27   C37   S    
C16   C19   S    
C46   H5    S    
C7    C38   S    
C28   O7    A    
C22   C24   A    
C10   C11   A    
H18   N8    S    
C2    C5    A    
C16   O5    A    
C20   C21   A    
Cu2   O8    S    
H9    N6    S    
C10   C36   S    
Cu1   N2    S    
C13   C14   A    
C4    C30   S    
C29   H4    S    
