data_mof_unit_3906.cif
_audit_creation_date              2012-12-11T15:43:06-0500
_audit_creation_method            fapswitch 2.2
_symmetry_space_group_name_H-M    P1
_symmetry_Int_Tables_number       1
_space_group_crystal_system       triclinic
_cell_length_a                    19.133452
_cell_length_b                    11.00074
_cell_length_c                    18.873418
_cell_angle_alpha                 89.958495
_cell_angle_beta                  90.371583
_cell_angle_gamma                 89.926586
_cell_volume                      3972.42936678

loop_
_atom_site_label
_atom_site_type_symbol
_atom_type_description
_atom_site_fract_x
_atom_site_fract_y
_atom_site_fract_z
_atom_type_partial_charge
C1    C     C_R   0.729248 0.376355 0.145438 0.554463
C2    C     C_R   0.997492 0.998408 0.034279 0.516555
C3    C     C_R   0.741625 0.416656 0.577900 -0.001637
C4    C     C_R   0.727910 0.372580 0.354631 0.578052
C5    C     C_R   0.270163 0.379849 0.648178 0.551002
C6    C     C_R   0.227908 0.872576 0.354633 0.578057
C7    C     C_R   0.770162 0.879850 0.648178 0.551001
C8    C     C_R   0.536520 0.157316 0.355634 0.556636
C9    C     C_R   0.468433 0.156804 0.647208 0.612762
C10   C     C_R   0.036517 0.657316 0.355633 0.556639
C11   C     C_R   0.968431 0.656803 0.647208 0.612768
C12   C     C_R   0.739660 0.977180 0.356390 0.577557
C13   C     C_R   0.514892 0.494474 0.962931 0.490779
C14   C     C_R   0.257416 0.969666 0.646668 0.585587
C15   C     C_R   0.239660 0.477181 0.356389 0.577549
C16   C     C_R   0.757417 0.469667 0.646668 0.585588
C17   C     C_R   0.492741 0.161995 0.928043 0.022923
C18   C     C_R   0.496746 0.166472 0.077174 0.015480
C19   C     C_R   0.992740 0.661996 0.928044 0.022923
C20   C     C_R   0.996745 0.666472 0.077174 0.015481
C21   C     C_R   0.502899 0.274172 0.963787 -0.105231
C22   C     C_R   0.496109 0.277452 0.038770 -0.114032
C23   C     C_R   0.002899 0.774172 0.963787 -0.105231
C24   C     C_R   0.497492 0.498408 0.034279 0.516555
C25   C     C_R   0.996109 0.777452 0.038770 -0.114033
C26   C     C_R   0.485995 0.057959 0.040867 -0.092652
C27   C     C_R   0.485240 0.055438 0.968080 -0.082780
C28   C     C_R   0.985995 0.557959 0.040867 -0.092651
C29   C     C_R   0.985240 0.555438 0.968080 -0.082780
C30   C     C_R   0.756141 0.918917 0.926102 -0.023367
C31   C     C_R   0.246503 0.920791 0.074760 -0.012808
C32   C     C_R   0.256140 0.418917 0.926102 -0.023367
C33   C     C_R   0.746503 0.420790 0.074760 -0.012807
C34   C     C_R   0.692583 0.899404 0.960155 -0.076670
C35   C     C_R   0.306675 0.884930 0.038574 -0.075100
C36   C     C_R   0.192583 0.399405 0.960154 -0.076669
C37   C     C_R   0.271115 0.376071 0.854695 0.551747
C38   C     C_R   0.806675 0.384929 0.038573 -0.075100
C39   C     C_R   0.688122 0.908037 0.033603 -0.042581
C40   C     C_R   0.310189 0.892577 0.964863 -0.045750
C41   C     C_R   0.188122 0.408037 0.033602 -0.042581
C42   C     C_R   0.810189 0.392576 0.964863 -0.045751
C43   C     C_R   0.810132 0.957589 0.040381 -0.145310
C44   C     C_R   0.193558 0.972953 0.962239 -0.148899
C45   C     C_R   0.310132 0.457589 0.040381 -0.145311
C46   C     C_R   0.693558 0.472952 0.962239 -0.148898
C47   C     C_R   0.813129 0.959834 0.967560 0.291516
C48   C     C_R   0.229248 0.876355 0.145438 0.554463
C49   C     C_R   0.192537 0.975561 0.035113 0.281246
C50   C     C_R   0.313128 0.459834 0.967560 0.291516
C51   C     C_R   0.692537 0.475561 0.035113 0.281245
C52   C     C_3   0.645090 0.793212 0.956762 0.371164
C53   C     C_3   0.343402 0.766524 0.040729 0.349120
C54   C     C_3   0.145090 0.293212 0.956761 0.371164
C55   C     C_3   0.843402 0.266523 0.040729 0.349120
C56   C     C_3   0.641887 0.799592 0.036889 0.375423
C57   C     C_3   0.345586 0.771878 0.960628 0.360695
C58   C     C_3   0.141887 0.299592 0.036889 0.375423
C59   C     C_R   0.771115 0.876071 0.854695 0.551747
C60   C     C_3   0.845586 0.271877 0.960628 0.360696
C61   C     C_R   0.747973 0.929775 0.074755 -0.098350
C62   C     C_R   0.251784 0.930463 0.925688 -0.084754
C63   C     C_R   0.247972 0.429776 0.074755 -0.098350
C64   C     C_R   0.751784 0.430463 0.925688 -0.084754
C65   C     C_R   0.530209 0.155964 0.147537 0.578714
C66   C     C_R   0.467660 0.155049 0.854073 0.586790
C67   C     C_R   0.030209 0.655964 0.147537 0.578714
C68   C     C_R   0.967660 0.655049 0.854073 0.586792
C69   C     C_R   0.500990 0.161046 0.577709 -0.017664
C70   C     C_R   0.518719 0.383428 0.927735 0.357562
C71   C     C_R   0.519517 0.165816 0.430250 -0.081779
C72   C     C_R   0.000981 0.661044 0.577705 -0.017646
C73   C     C_R   0.019506 0.665816 0.430246 -0.081764
C74   C     C_R   0.497201 0.055321 0.536819 -0.012795
C75   C     C_R   0.508344 0.056939 0.465270 -0.062294
C76   C     C_R   0.997180 0.555323 0.536813 -0.012786
C77   C     C_R   0.008324 0.556939 0.465264 -0.062269
C78   C     C_R   0.531044 0.272175 0.470987 0.338257
C79   C     C_R   0.523357 0.268908 0.545075 0.348307
C80   C     C_R   0.031035 0.772173 0.470984 0.338245
C81   C     C_R   0.488464 0.391352 0.072396 0.348595
C82   C     C_R   0.023351 0.768904 0.545072 0.348283
C83   C     C_3   0.436935 0.970059 0.528026 0.287262
C84   C     C_3   0.452482 0.966496 0.449982 0.339309
C85   C     C_3   0.936902 0.470087 0.528018 0.287230
C86   C     C_3   0.952451 0.466517 0.449975 0.339302
C87   C     C_R   0.751996 0.929834 0.579146 -0.013348
C88   C     C_R   0.239476 0.893303 0.429761 0.056066
C89   C     C_R   0.251998 0.429828 0.579144 -0.013356
C90   C     C_R   0.739482 0.393316 0.429758 0.056091
C91   C     C_R   0.805685 0.983822 0.539954 -0.004609
C92   C     C_R   0.018719 0.883428 0.927735 0.357561
C93   C     C_R   0.189079 0.960829 0.464618 0.056922
C94   C     C_R   0.305688 0.483810 0.539952 -0.004605
C95   C     C_R   0.689092 0.460857 0.464613 0.056953
C96   C     C_R   0.801576 0.991652 0.467879 -0.006656
C97   C     C_R   0.189562 0.972183 0.536697 0.011611
C98   C     C_R   0.301578 0.491645 0.467878 -0.006664
C99   C     C_R   0.689573 0.472211 0.536691 0.011653
C100  C     C_R   0.683779 0.916869 0.470639 -0.081302
C101  C     C_R   0.285907 0.831692 0.545346 -0.072214
C102  C     C_R   0.183779 0.416870 0.470639 -0.081272
C103  C     C_R   0.988464 0.891352 0.072396 0.348596
C104  C     C_R   0.785907 0.331697 0.545344 -0.072261
C105  C     C_R   0.687930 0.906806 0.544800 0.318883
C106  C     C_R   0.285716 0.821351 0.471072 0.348546
C107  C     C_R   0.187931 0.406803 0.544800 0.318895
C108  C     C_R   0.785718 0.321357 0.471070 0.348548
C109  C     C_3   0.882156 0.954653 0.536208 0.329069
C110  C     C_3   0.166900 0.088840 0.452163 0.260799
C111  C     C_3   0.382156 0.454623 0.536204 0.329071
C112  C     C_3   0.666938 0.588880 0.452157 0.260756
C113  C     C_R   0.740778 0.970425 0.147295 0.559580
C114  C     C_R   0.014892 0.994473 0.962931 0.490779
C115  C     C_R   0.259174 0.970302 0.852812 0.557731
C116  C     C_R   0.240778 0.470425 0.147295 0.559579
C117  C     C_R   0.759174 0.470302 0.852812 0.557732
C118  C     C_3   0.876775 0.963782 0.456517 -0.124966
C119  C     C_3   0.167831 0.103015 0.531754 -0.123841
C120  C     C_3   0.376775 0.463764 0.456513 -0.124976
C121  C     C_3   0.667868 0.603055 0.531747 -0.123861
C122  C     C_R   0.743561 0.949877 0.431303 -0.011987
C123  C     C_R   0.241622 0.916646 0.577903 -0.001654
C124  C     C_R   0.243561 0.449876 0.431302 -0.012009
Cr1   Cr    Cr6+3 0.772010 0.169670 0.250090 1.154921
Cr2   Cr    Cr6+3 0.383290 0.010760 0.749160 1.142204
Cr3   Cr    Cr6+3 0.116710 0.510760 0.250840 1.147012
Cr4   Cr    Cr6+3 0.883290 0.510760 0.749160 1.142201
Cr5   Cr    Cr6+3 0.227990 0.169670 0.749910 1.152004
Cr6   Cr    Cr6+3 0.272010 0.669670 0.250090 1.154913
Cr7   Cr    Cr6+3 0.727990 0.669670 0.749910 1.152010
Cr8   Cr    Cr6+3 0.615000 0.323260 0.249260 1.191504
Cr9   Cr    Cr6+3 0.385000 0.323260 0.750740 1.212526
Cr10  Cr    Cr6+3 0.115000 0.823260 0.249260 1.191503
Cr11  Cr    Cr6+3 0.885000 0.823260 0.750740 1.212520
Cr12  Cr    Cr6+3 0.616710 0.010760 0.250840 1.147009
F1    F     F_    0.546070 0.379578 0.439360 -0.611906
F2    F     F_    0.333466 0.747910 0.440064 -0.591017
F3    F     F_    0.131859 0.366165 0.581521 -0.619368
F4    F     F_    0.833465 0.247908 0.440063 -0.591000
F5    F     F_    0.922453 0.046573 0.565370 -0.528221
F6    F     F_    0.218496 0.156329 0.419332 -0.643535
F7    F     F_    0.422461 0.546530 0.565369 -0.528188
F8    F     F_    0.718549 0.656338 0.419329 -0.643536
F9    F     F_    0.542723 0.383280 0.860192 -0.572362
F10   F     F_    0.465981 0.400343 0.140305 -0.576726
F11   F     F_    0.042724 0.883280 0.860192 -0.572362
F12   F     F_    0.532213 0.372060 0.583468 -0.554911
F13   F     F_    0.965981 0.900343 0.140305 -0.576724
F14   F     F_    0.026215 0.099072 0.926937 -0.453176
F15   F     F_    0.993823 0.106406 0.068121 -0.416422
F16   F     F_    0.526215 0.599072 0.926937 -0.453175
F17   F     F_    0.493823 0.606406 0.068121 -0.416424
F18   F     F_    0.873823 0.996849 0.938401 -0.611160
F19   F     F_    0.134856 0.021529 0.066103 -0.621776
F20   F     F_    0.373823 0.496850 0.938401 -0.611160
F21   F     F_    0.634856 0.521529 0.066103 -0.621776
F22   F     F_    0.582701 0.823615 0.923811 -0.489082
F23   F     F_    0.046060 0.879578 0.439358 -0.611951
F24   F     F_    0.407943 0.779308 0.072860 -0.485507
F25   F     F_    0.082700 0.323615 0.923811 -0.489082
F26   F     F_    0.907943 0.279307 0.072860 -0.485507
F27   F     F_    0.576337 0.827895 0.062093 -0.488296
F28   F     F_    0.412594 0.780282 0.934239 -0.471304
F29   F     F_    0.076337 0.327896 0.062093 -0.488295
F30   F     F_    0.912594 0.280281 0.934239 -0.471304
F31   F     F_    0.032211 0.872056 0.583466 -0.554960
F32   F     F_    0.874767 0.530444 0.540738 -0.693482
F33   F     F_    0.980318 0.356067 0.429172 -0.572772
F34   F     F_    0.374791 0.030388 0.540749 -0.693472
F35   F     F_    0.480366 0.856060 0.429177 -0.572811
F36   F     F_    0.631858 0.866168 0.581522 -0.619384
H1    H     H_    0.481245 0.972933 0.069024 0.279097
H2    H     H_    0.325302 0.783896 0.576025 0.183069
H3    H     H_    0.134868 0.395726 0.444275 0.209992
H4    H     H_    0.825298 0.283893 0.576024 0.183054
H5    H     H_    0.894861 0.862078 0.555634 0.141961
H6    H     H_    0.114237 0.097545 0.427505 0.217880
H7    H     H_    0.394854 0.362042 0.555626 0.141919
H8    H     H_    0.614277 0.597615 0.427496 0.217836
H9    H     H_    0.905906 0.041950 0.433974 0.267421
H10   H     H_    0.209569 0.165104 0.550827 0.190401
H11   H     H_    0.405910 0.541930 0.433973 0.267415
H12   H     H_    0.476534 0.968572 0.943194 0.284870
H13   H     H_    0.709618 0.665118 0.550822 0.190390
H14   H     H_    0.884964 0.875415 0.429170 0.109260
H15   H     H_    0.115103 0.118894 0.554378 0.223496
H16   H     H_    0.384960 0.375400 0.429163 0.109235
H17   H     H_    0.615143 0.618963 0.554370 0.223485
H18   H     H_    0.855830 0.985775 0.069897 0.221337
H19   H     H_    0.149050 0.009044 0.934111 0.215530
H20   H     H_    0.355830 0.485775 0.069897 0.221337
H21   H     H_    0.649050 0.509043 0.934111 0.215530
H22   H     H_    0.170405 0.210776 0.935614 0.096856
H23   H     H_    0.981244 0.472933 0.069024 0.279097
H24   H     H_    0.810925 0.192416 0.062211 0.084324
H25   H     H_    0.670405 0.710775 0.935614 0.096856
H26   H     H_    0.310925 0.692417 0.062211 0.084324
H27   H     H_    0.667761 0.724182 0.065573 0.147527
H28   H     H_    0.312817 0.702960 0.933264 0.112301
H29   H     H_    0.167761 0.224182 0.065573 0.147528
H30   H     H_    0.812817 0.202959 0.933263 0.112301
H31   H     H_    0.976533 0.468572 0.943194 0.284869
H32   H     H_    0.443514 0.882156 0.556375 0.210095
H33   H     H_    0.409794 0.000740 0.414951 0.167061
H34   H     H_    0.943465 0.382178 0.556365 0.210080
H35   H     H_    0.909768 0.500774 0.414943 0.167064
H36   H     H_    0.634868 0.895721 0.444275 0.209996
O1    O     O_R   0.787520 0.042810 0.170440 -0.489950
O2    O     O_R   0.454050 0.051210 0.669140 -0.482367
O3    O     O_R   0.045950 0.551210 0.330860 -0.486866
O4    O     O_R   0.954050 0.551210 0.669140 -0.482383
O5    O     O_R   0.681390 0.959480 0.325510 -0.497954
O6    O     O_R   0.318610 0.959480 0.674490 -0.473803
O7    O     O_R   0.181390 0.459480 0.325510 -0.497949
O8    O     O_R   0.818610 0.459480 0.674490 -0.473826
O9    O     O_3   0.667900 0.167900 0.250060 -0.339967
O10   O     O_3   0.332100 0.167900 0.749940 -0.330012
O11   O     O_3   0.167900 0.667900 0.250060 -0.339968
O12   O     O_R   0.212480 0.042810 0.829560 -0.486753
O13   O     O_3   0.832100 0.667900 0.749940 -0.330009
O14   O     O_R   0.765640 0.292100 0.175020 -0.508793
O15   O     O_R   0.234360 0.292100 0.824980 -0.509996
O16   O     O_R   0.265640 0.792100 0.175020 -0.508793
O17   O     O_R   0.734360 0.792100 0.824980 -0.509996
O18   O     O_R   0.670190 0.408840 0.168540 -0.412312
O19   O     O_R   0.329810 0.408840 0.831460 -0.415364
O20   O     O_R   0.170190 0.908840 0.168540 -0.412310
O21   O     O_R   0.829810 0.908840 0.831460 -0.415364
O22   O     O_R   0.556620 0.251410 0.175160 -0.433995
O23   O     O_R   0.287520 0.542810 0.170440 -0.489951
O24   O     O_R   0.443380 0.251410 0.824840 -0.426615
O25   O     O_R   0.056620 0.751410 0.175160 -0.433995
O26   O     O_R   0.943380 0.751410 0.824840 -0.426614
O27   O     O_R   0.545960 0.049620 0.170320 -0.479244
O28   O     O_R   0.454040 0.049620 0.829680 -0.492479
O29   O     O_R   0.045960 0.549620 0.170320 -0.479243
O30   O     O_R   0.954040 0.549620 0.829680 -0.492476
O31   O     O_R   0.681390 0.958010 0.176690 -0.464644
O32   O     O_R   0.318610 0.958010 0.823310 -0.479962
O33   O     O_R   0.181390 0.458010 0.176690 -0.464642
O34   O     O_R   0.712480 0.542810 0.829560 -0.486753
O35   O     O_R   0.818610 0.458010 0.823310 -0.479961
O36   O     O_R   0.787510 0.044390 0.330970 -0.466434
O37   O     O_R   0.212490 0.044390 0.669030 -0.489263
O38   O     O_R   0.287510 0.544390 0.330970 -0.466435
O39   O     O_R   0.712490 0.544390 0.669030 -0.489249
O40   O     O_R   0.765630 0.293570 0.323840 -0.447304
O41   O     O_R   0.234370 0.293570 0.676160 -0.453977
O42   O     O_R   0.265630 0.793570 0.323840 -0.447309
O43   O     O_R   0.734370 0.793570 0.676160 -0.453977
O44   O     O_R   0.670190 0.410420 0.329080 -0.478440
O45   O     O_R   0.556610 0.252880 0.323980 -0.438355
O46   O     O_R   0.329810 0.410420 0.670920 -0.493260
O47   O     O_R   0.170190 0.910420 0.329080 -0.478435
O48   O     O_R   0.829810 0.910420 0.670920 -0.493272
O49   O     O_R   0.443390 0.252880 0.676020 -0.446695
O50   O     O_R   0.056610 0.752880 0.323980 -0.438357
O51   O     O_R   0.943390 0.752880 0.676020 -0.446698
O52   O     O_R   0.545950 0.051210 0.330860 -0.486860

loop_
_geom_bond_atom_site_label_1
_geom_bond_atom_site_label_2
_ccdc_geom_bond_type
C3    C104  A    
C44   C49   A    
Cr12  O27   S    
C8    O52   A    
C29   H31   S    
C105  F36   S    
C87   C91   A    
C7    O48   A    
C35   C53   S    
C86   F33   S    
C8    O45   A    
C20   C67   S    
C18   C26   A    
C59   O21   A    
C74   C83   S    
C72   C76   A    
C84   F35   S    
Cr2   O32   S    
Cr6   O38   S    
C6    C88   S    
C90   C95   A    
C104  H4    S    
Cr5   O37   S    
Cr1   O14   S    
C68   O26   A    
C18   C65   S    
C98   C124  A    
C57   F28   S    
C56   F27   S    
Cr8   O44   S    
C100  C105  A    
C101  C123  A    
C65   O22   A    
C54   H22   S    
C53   H26   S    
C32   C36   A    
C96   C118  S    
C28   C29   A    
C9    C69   S    
C41   C58   S    
C38   C42   A    
Cr5   O12   S    
C9    O49   A    
C95   C112  S    
C44   H19   S    
C121  H17   S    
C115  O32   A    
C48   O20   A    
C10   C73   S    
C95   C99   A    
C75   C84   S    
C106  F2    S    
C20   C25   A    
C94   C98   A    
Cr4   O30   S    
Cr10  O11   S    
C83   F34   S    
C66   O24   A    
C94   C111  S    
C2    F15   S    
C28   H23   S    
C40   C62   A    
C14   O6    A    
Cr1   O36   S    
C110  F6    S    
Cr8   O9    S    
C89   C94   A    
C16   O8    A    
C58   F29   S    
C73   C77   A    
C27   H12   S    
C4    O40   A    
Cr2   O6    S    
C91   C96   A    
C88   C93   A    
C52   C56   S    
C84   H33   S    
C73   C80   A    
C7    C87   S    
C38   C55   S    
C83   C84   S    
C58   H29   S    
C50   F20   S    
C12   O36   A    
Cr3   O33   S    
Cr12  O52   S    
C10   O50   A    
C56   H27   S    
C7    O43   A    
C40   C57   S    
Cr11  O48   S    
Cr2   O28   S    
Cr8   O22   S    
C23   C92   A    
Cr5   O15   S    
C93   C110  S    
C112  H8    S    
C14   O37   A    
Cr6   O23   S    
C117  O34   A    
Cr9   O49   S    
C55   H24   S    
C110  C119  S    
C18   C22   A    
C55   C60   S    
C92   F11   S    
C111  H7    S    
C60   H30   S    
C5    C89   S    
C36   C41   A    
C12   O5    A    
C31   C49   A    
C102  C124  A    
C120  H16   S    
C13   F16   S    
Cr7   O43   S    
C85   H34   S    
C4    C90   S    
C82   F31   S    
Cr6   O42   S    
C100  H36   S    
C39   C61   A    
Cr5   O41   S    
C74   C75   A    
C30   C34   A    
C1    C33   S    
C34   C39   A    
C17   C27   A    
C22   C81   A    
C5    O41   A    
C30   C47   A    
C19   C68   S    
C76   C77   A    
C43   H18   S    
C52   F22   S    
C15   O7    A    
Cr2   O2    S    
C42   C60   S    
C108  F4    S    
C6    O42   A    
C11   C72   S    
C25   C103  A    
C80   F23   S    
Cr12  O9    S    
C20   C28   A    
C26   H1    S    
C44   C62   A    
C102  H3    S    
C85   C86   S    
C46   C51   A    
C67   O29   A    
C17   C21   A    
C64   C117  S    
C13   C24   A    
C66   O28   A    
C111  C120  S    
C119  H10   S    
Cr10  O20   S    
C5    O46   A    
C97   C119  S    
C19   C23   A    
C24   C81   A    
C1    O18   A    
Cr5   O10   S    
Cr8   O18   S    
C11   O4    A    
C88   C106  A    
Cr7   O17   S    
C45   H20   S    
Cr11  O21   S    
C39   C56   S    
C87   C105  A    
C15   O38   A    
C37   O19   A    
C9    O2    A    
Cr10  O50   S    
C32   C50   A    
C30   C59   S    
C89   C107  A    
C17   C66   S    
Cr11  O26   S    
C102  C107  A    
Cr7   O13   S    
C70   F9    S    
C65   O27   A    
C32   C37   S    
C4    O44   A    
C100  C122  A    
Cr7   O39   S    
Cr8   O45   S    
Cr4   O8    S    
C63   C116  S    
C117  O35   A    
C80   C82   A    
C15   C124  S    
C99   C121  S    
C77   C86   S    
Cr3   O29   S    
C37   O15   A    
C31   C48   S    
C116  O23   A    
C26   C27   A    
C31   C35   A    
C115  O12   A    
C69   C79   A    
C90   C108  A    
C41   C63   A    
C19   C29   A    
C78   F1    S    
C93   C97   A    
C104  C108  A    
C101  H2    S    
C24   F17   S    
C43   C61   A    
C46   H21   S    
Cr12  O5    S    
C54   C58   S    
C16   O39   A    
Cr3   O3    S    
C101  C106  A    
C3    C99   A    
C116  O33   A    
C67   O25   A    
Cr11  O13   S    
Cr1   O1    S    
C14   C123  S    
C112  C121  S    
C78   C79   A    
C85   F32   S    
Cr11  O51   S    
C49   F19   S    
Cr9   O19   S    
C55   F26   S    
C83   H32   S    
Cr1   O40   S    
Cr7   O34   S    
C53   C57   S    
Cr4   O13   S    
Cr10  O47   S    
C42   C64   A    
Cr3   O11   S    
C110  H6    S    
C98   C120  S    
C79   F12   S    
C52   H25   S    
C47   F18   S    
C111  F7    S    
C109  C118  S    
C33   C51   A    
C48   O16   A    
C86   H35   S    
C34   C52   S    
Cr9   O10   S    
C96   C122  A    
C21   C70   A    
C112  F8    S    
Cr6   O16   S    
C35   C40   A    
Cr9   O24   S    
C113  O1    A    
C62   C115  S    
C57   H28   S    
C68   O30   A    
Cr4   O4    S    
C71   C75   A    
C2    C114  A    
C91   C109  S    
Cr9   O46   S    
C43   C47   A    
C2    C103  A    
C53   F24   S    
Cr10  O25   S    
C45   C63   A    
C6    O47   A    
C51   F21   S    
C23   C25   A    
C54   F25   S    
C107  F3    S    
Cr6   O11   S    
C59   O17   A    
C120  H11   S    
C60   F30   S    
C36   C54   S    
C103  F13   S    
C61   C113  S    
C121  H13   S    
Cr3   O7    S    
C109  H5    S    
C10   O3    A    
C113  O31   A    
C12   C122  S    
C97   C123  A    
C81   F10   S    
C13   C70   A    
Cr12  O31   S    
C46   C64   A    
C118  H14   S    
Cr4   O35   S    
C114  F14   S    
C69   C74   A    
C1    O14   A    
C33   C38   A    
C109  F5    S    
C45   C50   A    
C118  H9    S    
C119  H15   S    
C21   C22   A    
C92   C114  A    
C76   C85   S    
C71   C78   A    
C72   C82   A    
C3    C16   S    
Cr2   O10   S    
C11   O51   A    
C8    C71   S    
Cr1   O9    S    
