data_mof_unit_3007.cif
_audit_creation_date              2012-12-10T16:32:38-0500
_audit_creation_method            fapswitch 2.2
_symmetry_space_group_name_H-M    P1
_symmetry_Int_Tables_number       1
_space_group_crystal_system       triclinic
_cell_length_a                    16.931576
_cell_length_b                    17.105117
_cell_length_c                    16.957986
_cell_angle_alpha                 65.318266
_cell_angle_beta                  65.261121
_cell_angle_gamma                 65.044821
_cell_volume                      3867.01652237

loop_
_atom_site_label
_atom_site_type_symbol
_atom_type_description
_atom_site_fract_x
_atom_site_fract_y
_atom_site_fract_z
_atom_type_partial_charge
C1    C     C_R   0.590431 0.039175 0.588458 0.208722
C2    C     C_R   0.822916 0.568054 0.025413 0.909852
C3    C     C_3   0.768260 0.549488 0.671387 0.082115
C4    C     C_3   0.693813 0.568117 0.757184 -0.354641
C5    C     C_3   0.599980 0.589237 0.748799 -1.010464
C6    C     C_R   0.436908 0.964357 0.178706 0.889305
C7    C     C_R   0.565407 0.031548 0.821718 0.924898
C8    C     C_R   0.561514 0.821441 0.040048 0.893505
C9    C     C_R   0.431780 0.176868 0.974890 0.915346
C10   C     C_R   0.030825 0.564940 0.821907 0.889620
C11   C     C_R   0.971209 0.433570 0.177624 0.916823
C12   C     C_R   0.821134 0.038690 0.561873 0.896274
C13   C     C_R   0.178294 0.969427 0.434079 0.911622
C14   C     C_R   0.548153 0.008887 0.547984 -0.203945
C15   C     C_R   0.415576 0.949893 0.415700 0.189273
C16   C     C_R   0.465292 0.955415 0.470484 -0.199368
C17   C     C_R   0.974648 0.566764 0.551401 -0.216462
C18   C     C_R   0.951081 0.470074 0.464873 -0.183018
C19   C     C_R   0.540925 0.547053 0.017391 -0.203571
C20   C     C_R   0.453681 0.455907 0.984413 -0.211251
C21   C     C_R   0.602364 0.948306 0.494921 0.282658
C22   C     C_R   0.415549 0.985398 0.549463 0.309016
C23   C     C_R   0.920461 0.508208 0.601304 0.277785
C24   C     C_R   0.965319 0.556425 0.417112 0.329311
C25   C     C_R   0.452075 0.588815 0.006848 0.299111
C26   C     C_R   0.000973 0.605140 0.598873 0.191978
C27   C     C_R   0.548271 0.419555 0.978410 0.317066
C28   C     C_R   0.562256 0.930683 0.446803 0.347962
C29   C     C_R   0.452551 0.028910 0.574187 0.348243
C30   C     C_R   0.404913 0.536606 0.009040 0.336452
C31   C     C_R   0.586120 0.457110 0.010258 0.331641
C32   C     C_R   0.925641 0.446416 0.561500 0.324512
C33   C     C_R   0.995494 0.593777 0.455582 0.331432
C34   C     C_R   0.553209 0.035357 0.680289 -0.188347
C35   C     C_R   0.456779 0.945888 0.324966 -0.150232
C36   C     C_R   0.003701 0.693632 0.562284 -0.138755
C37   C     C_R   0.955080 0.412043 0.413717 0.159681
C38   C     C_R   0.952849 0.321730 0.453921 -0.148527
C39   C     C_R   0.682806 0.566956 0.014167 -0.160914
C40   C     C_R   0.325226 0.454403 0.942377 -0.168626
C41   C     C_R   0.320762 0.963344 0.447071 -0.218575
C42   C     C_R   0.675200 0.056489 0.542870 -0.165504
C43   C     C_R   0.434765 0.313796 0.988587 -0.189477
C44   C     C_R   0.542184 0.675097 0.062571 -0.193216
C45   C     C_R   0.969785 0.443580 0.319137 -0.217416
C46   C     C_R   0.017273 0.557637 0.683896 -0.160704
C47   C     C_R   0.598304 0.048458 0.724888 -0.090657
C48   C     C_R   0.587590 0.595602 0.034462 0.184937
C49   C     C_R   0.406534 0.944017 0.276426 -0.095223
C50   C     C_R   0.032461 0.730027 0.602480 -0.080495
C51   C     C_R   0.949288 0.274696 0.403977 -0.098654
C52   C     C_R   0.727190 0.604875 0.036201 -0.079090
C53   C     C_R   0.276363 0.405593 0.941137 -0.110721
C54   C     C_R   0.275458 0.952711 0.400909 -0.106307
C55   C     C_R   0.722814 0.060733 0.592257 -0.112901
C56   C     C_R   0.395288 0.271353 0.965772 -0.097018
C57   C     C_R   0.593091 0.723906 0.061125 -0.113678
C58   C     C_R   0.957752 0.398926 0.273753 -0.106016
C59   C     C_R   0.404993 0.408036 0.970317 0.160517
C60   C     C_R   0.038561 0.599411 0.726596 -0.078980
C61   C     C_R   0.680217 0.066111 0.679453 -0.254404
C62   C     C_R   0.320697 0.935663 0.319157 -0.237826
C63   C     C_R   0.054146 0.681429 0.681783 -0.275581
C64   C     C_R   0.940807 0.317680 0.318328 -0.238639
C65   C     C_R   0.681696 0.682492 0.061254 -0.240709
C66   C     C_R   0.317370 0.317865 0.940261 -0.246073
C67   C     C_3   0.331471 0.078217 0.693663 0.155919
C68   C     C_3   0.235604 0.120183 0.682482 -0.268542
C69   C     C_3   0.169706 0.072045 0.762484 -0.965568
C70   C     C_R   0.966257 0.178284 0.435852 0.897906
C71   C     C_3   0.695171 0.897516 0.325185 0.124378
C72   C     C_3   0.685138 0.998321 0.274886 -0.368320
C73   C     C_3   0.776813 0.010777 0.209953 -0.969718
C74   C     C_3   0.015408 0.729614 0.345996 0.148395
C75   C     C_3   0.060177 0.736243 0.245009 -0.315393
C76   C     C_3   0.014670 0.826393 0.185962 -0.985232
C77   C     C_3   0.910600 0.328312 0.699991 0.111127
C78   C     C_3   0.010854 0.302733 0.696242 -0.372361
C79   C     C_3   0.019199 0.272591 0.791509 -0.968719
C80   C     C_3   0.734586 0.355022 0.001028 0.157288
C81   C     C_R   0.028028 0.822889 0.566553 0.910771
C82   C     C_3   0.753947 0.253319 0.045996 -0.278989
C83   C     C_3   0.843561 0.201759 0.990857 -1.032834
C84   C     C_3   0.276767 0.562822 0.129021 0.177660
C85   C     C_3   0.195969 0.524331 0.178715 -0.392990
C86   C     C_3   0.225446 0.423050 0.192916 -0.780778
C87   C     C_3   0.350986 0.874356 0.656261 0.029621
C88   C     C_3   0.269870 0.843659 0.676332 -0.306228
C89   C     C_3   0.276353 0.750063 0.745000 -0.974374
C90   C     C_3   0.711402 0.829604 0.557660 0.090255
C91   C     C_3   0.765835 0.836449 0.606386 -0.353711
C92   C     C_R   0.178523 0.438094 0.961011 0.901653
C93   C     C_3   0.788029 0.752749 0.683844 -0.971499
C94   C     C_3   0.622500 0.356693 0.860581 0.040666
C95   C     C_3   0.669417 0.267175 0.837907 -0.337361
C96   C     C_3   0.689582 0.281264 0.737172 -0.954450
C97   C     C_3   0.414295 0.731292 0.911135 0.103410
C98   C     C_3   0.502196 0.758440 0.868429 -0.354070
C99   C     C_3   0.508913 0.823361 0.773738 -1.028360
C100  C     C_3   0.844396 0.658279 0.363616 0.071268
C101  C     C_3   0.785184 0.608339 0.367753 -0.365243
C102  C     C_3   0.685461 0.665438 0.382203 -0.898927
H1    H     H_    0.716040 0.072204 0.715736 0.180778
H2    H     H_    0.236054 0.116638 0.618443 0.260587
H3    H     H_    0.469393 0.704207 0.079205 0.213068
H4    H     H_    0.995105 0.500236 0.277812 0.225800
H5    H     H_    0.008881 0.490991 0.718446 0.182766
H6    H     H_    0.196039 0.998402 0.771541 0.273148
H7    H     H_    0.102793 0.097273 0.749893 0.262999
H8    H     H_    0.160322 0.083668 0.825985 0.257156
H9    H     H_    0.717923 0.863998 0.272401 0.132968
H10   H     H_    0.750998 0.864991 0.356997 0.178587
H11   H     H_    0.635645 0.026194 0.235792 0.210136
H12   H     H_    0.660584 0.037798 0.322846 0.230125
H13   H     H_    0.828168 0.981280 0.247259 0.271516
H14   H     H_    0.769094 0.083613 0.178443 0.271616
H15   H     H_    0.284539 0.929393 0.283303 0.181501
H16   H     H_    0.801093 0.978476 0.155796 0.259470
H17   H     H_    0.029232 0.781842 0.356709 0.147606
H18   H     H_    0.939915 0.748311 0.364586 0.113347
H19   H     H_    0.133435 0.729297 0.226947 0.206506
H20   H     H_    0.055633 0.681508 0.230019 0.252271
H21   H     H_    0.942084 0.833078 0.200740 0.263577
H22   H     H_    0.049869 0.830020 0.113212 0.268859
H23   H     H_    0.018594 0.883124 0.198694 0.260907
H24   H     H_    0.892554 0.264500 0.729044 0.144537
H25   H     H_    0.863050 0.367138 0.748858 0.186572
H26   H     H_    0.073472 0.711637 0.713276 0.178360
H27   H     H_    0.052614 0.248024 0.663535 0.213545
H28   H     H_    0.039783 0.359762 0.655659 0.217458
H29   H     H_    0.973806 0.325573 0.826101 0.271366
H30   H     H_    0.090188 0.260763 0.787657 0.269039
H31   H     H_    0.000823 0.209202 0.832103 0.270856
H32   H     H_    0.791443 0.372808 0.999076 0.144249
H33   H     H_    0.737586 0.373578 0.929120 0.121621
H34   H     H_    0.758321 0.237470 0.114887 0.211609
H35   H     H_    0.697932 0.230745 0.053609 0.262859
H36   H     H_    0.842289 0.219911 0.920400 0.262606
H37   H     H_    0.933300 0.282823 0.282332 0.184049
H38   H     H_    0.854376 0.128105 0.021833 0.275137
H39   H     H_    0.901309 0.217827 0.989420 0.269157
H40   H     H_    0.252603 0.633236 0.131522 0.139349
H41   H     H_    0.328381 0.523014 0.167235 0.118338
H42   H     H_    0.162810 0.535838 0.246610 0.196653
H43   H     H_    0.145115 0.559794 0.140175 0.242584
H44   H     H_    0.252814 0.408652 0.127082 0.282200
H45   H     H_    0.165867 0.397167 0.234238 0.235963
H46   H     H_    0.278139 0.386823 0.229205 0.242281
H47   H     H_    0.357224 0.865548 0.722058 0.154550
H48   H     H_    0.717947 0.716203 0.069994 0.181213
H49   H     H_    0.413859 0.829275 0.620889 0.140319
H50   H     H_    0.205206 0.892292 0.703662 0.229064
H51   H     H_    0.268063 0.841229 0.612752 0.227072
H52   H     H_    0.341146 0.700280 0.719802 0.265801
H53   H     H_    0.218486 0.728431 0.755496 0.269202
H54   H     H_    0.273092 0.751385 0.811243 0.261996
H55   H     H_    0.753438 0.773508 0.526851 0.129700
H56   H     H_    0.648950 0.811617 0.607815 0.132791
H57   H     H_    0.829889 0.850444 0.556400 0.240553
H58   H     H_    0.725472 0.891756 0.637428 0.239091
H59   H     H_    0.283232 0.283044 0.930127 0.182679
H60   H     H_    0.725693 0.749092 0.742179 0.261900
H61   H     H_    0.838049 0.756957 0.707073 0.277116
H62   H     H_    0.817512 0.691654 0.661466 0.299722
H63   H     H_    0.671072 0.396515 0.823136 0.144637
H64   H     H_    0.561122 0.393053 0.836161 0.162244
H65   H     H_    0.734271 0.233050 0.855976 0.211294
H66   H     H_    0.625184 0.222676 0.878126 0.258207
H67   H     H_    0.624967 0.309768 0.719119 0.267662
H68   H     H_    0.727491 0.215619 0.722100 0.266320
H69   H     H_    0.731676 0.327889 0.694932 0.286608
H70   H     H_    0.333006 0.106357 0.741210 0.128162
H71   H     H_    0.355294 0.793561 0.910720 0.159800
H72   H     H_    0.410170 0.697886 0.869446 0.130325
H73   H     H_    0.503440 0.792646 0.910205 0.264330
H74   H     H_    0.562686 0.698182 0.865502 0.221542
H75   H     H_    0.510045 0.792205 0.727547 0.257335
H76   H     H_    0.571887 0.842935 0.747490 0.276698
H77   H     H_    0.450288 0.884695 0.777002 0.249115
H78   H     H_    0.834958 0.723410 0.309398 0.154454
H79   H     H_    0.820090 0.675038 0.428476 0.089990
H80   H     H_    0.810218 0.591116 0.303360 0.240377
H81   H     H_    0.346150 0.004682 0.727284 0.125174
H82   H     H_    0.788875 0.545254 0.425009 0.227639
H83   H     H_    0.659413 0.686296 0.444642 0.279207
H84   H     H_    0.644025 0.625400 0.389873 0.260975
H85   H     H_    0.677769 0.726098 0.322792 0.274729
H86   H     H_    0.757069 0.497425 0.657598 0.178010
H87   H     H_    0.760128 0.612630 0.613890 0.117766
H88   H     H_    0.705419 0.509541 0.816899 0.197441
H89   H     H_    0.696110 0.625555 0.769022 0.230046
H90   H     H_    0.584094 0.654198 0.695819 0.269186
H91   H     H_    0.547480 0.593236 0.814615 0.255800
H92   H     H_    0.211607 0.192725 0.677893 0.193164
H93   H     H_    0.597424 0.535914 0.729702 0.256789
H94   H     H_    0.492683 0.014793 0.719469 0.159376
H95   H     H_    0.524201 0.952384 0.288649 0.186544
H96   H     H_    0.975804 0.736897 0.506863 0.150909
H97   H     H_    0.961583 0.284430 0.520282 0.209293
H98   H     H_    0.723810 0.518247 0.977483 0.152153
H99   H     H_    0.296848 0.526743 0.927680 0.205985
H100  H     H_    0.277929 0.988636 0.503583 0.228306
H101  H     H_    0.708547 0.055602 0.472963 0.193291
H102  H     H_    0.487551 0.272312 0.021404 0.210854
O1    O     O_R   0.982940 0.138950 0.510160 -0.640022
O2    O     O_R   0.982940 0.510160 0.138950 -0.634344
O3    O     O_R   0.861050 0.017060 0.489840 -0.636453
O4    O     O_R   0.138950 0.982940 0.510160 -0.642594
O5    O     O_R   0.867700 0.025880 0.612340 -0.627341
O6    O     O_R   0.132300 0.974120 0.387660 -0.624030
O7    O     O_R   0.025880 0.612340 0.867700 -0.632602
O8    O     O_R   0.974120 0.387660 0.132300 -0.623069
O9    O     O_R   0.612340 0.867700 0.025880 -0.624235
O10   O     O_R   0.387660 0.132300 0.974120 -0.629121
O11   O     O_R   0.387660 0.974120 0.132300 -0.628566
O12   O     O_R   0.017060 0.861050 0.489840 -0.651802
O13   O     O_R   0.612340 0.025880 0.867700 -0.626587
O14   O     O_R   0.132300 0.387660 0.974120 -0.628352
O15   O     O_R   0.867700 0.612340 0.025880 -0.631286
O16   O     O_R   0.974120 0.132300 0.387660 -0.628698
O17   O     O_R   0.025880 0.867700 0.612340 -0.626663
O18   O     O_3   0.397618 0.101435 0.609796 -0.631736
O19   O     O_3   0.613520 0.877718 0.387828 -0.660707
O20   O     O_3   0.056185 0.644240 0.400443 -0.635946
O21   O     O_3   0.893921 0.371670 0.613913 -0.678954
O22   O     O_3   0.652411 0.401403 0.055049 -0.625501
O23   O     O_R   0.138950 0.510160 0.982940 -0.620933
O24   O     O_3   0.310426 0.564352 0.036570 -0.619288
O25   O     O_3   0.334520 0.967202 0.606633 -0.664030
O26   O     O_3   0.694728 0.910545 0.486398 -0.650966
O27   O     O_3   0.600558 0.340192 0.955236 -0.654339
O28   O     O_3   0.405966 0.678356 0.002858 -0.651918
O29   O     O_3   0.938534 0.609845 0.339701 -0.670399
O30   O     O_3   0.855879 0.519304 0.682889 -0.649540
O31   O     O_R   0.861050 0.489840 0.017060 -0.637811
O32   O     O_R   0.510160 0.982940 0.138950 -0.644361
O33   O     O_R   0.489840 0.017060 0.861050 -0.640972
O34   O     O_R   0.489840 0.861050 0.017060 -0.642808
O35   O     O_R   0.510160 0.138950 0.982940 -0.649463
O36   O     O_R   0.017060 0.489840 0.861050 -0.641198
Zn1   Zn    Zn3+2 0.004880 0.004880 0.583590 0.939932
Zn2   Zn    Zn3+2 0.995120 0.995120 0.416410 0.938745
Zn3   Zn    Zn3+2 0.004880 0.583590 0.004880 0.952527
Zn4   Zn    Zn3+2 0.995120 0.416410 0.995120 0.937493
Zn5   Zn    Zn3+2 0.583590 0.004880 0.004880 0.938176
Zn6   Zn    Zn3+2 0.416410 0.995120 0.995120 0.939243

loop_
_geom_bond_atom_site_label_1
_geom_bond_atom_site_label_2
_ccdc_geom_bond_type
C16   C28   A    
C39   H98   S    
C25   O28   S    
C10   O36   A    
C101  C102  S    
C50   C63   A    
C22   C29   A    
C74   O20   S    
C75   H20   S    
C95   C96   S    
C87   C88   S    
C101  H80   S    
C19   C31   A    
C86   H45   S    
C94   H64   S    
C97   C98   S    
C42   H101  S    
C20   C30   A    
C77   C78   S    
C70   O1    A    
C77   O21   S    
C74   H17   S    
C102  H84   S    
C73   H14   S    
C60   C63   A    
C18   C24   A    
C17   C26   S    
C14   C21   A    
C61   H1    S    
C18   C37   S    
O13   Zn5   S    
C12   O5    A    
C99   H75   S    
C82   H35   S    
C3    H87   S    
C3    O30   S    
O23   Zn3   S    
C11   O8    A    
C98   C99   S    
C89   H53   S    
C81   O12   A    
C93   H61   S    
C34   H94   S    
C15   C16   S    
O32   Zn5   S    
C72   H12   S    
O36   Zn4   S    
C80   H32   S    
C94   H63   S    
C40   H99   S    
C65   H48   S    
C52   C65   A    
C62   H15   S    
C24   O29   S    
C19   C48   S    
C23   O30   S    
C69   H7    S    
C84   C85   S    
C6    O11   A    
O2    Zn3   S    
C92   O23   A    
C68   C69   S    
C3    H86   S    
C71   H9    S    
C35   C49   A    
C97   H72   S    
C51   C70   S    
O14   Zn4   S    
C11   C58   S    
C91   H57   S    
C63   H26   S    
C77   H25   S    
C43   C59   A    
C5    H93   S    
C74   H18   S    
C39   C52   A    
C40   C59   A    
C87   H49   S    
C95   H66   S    
C58   C64   A    
C76   H23   S    
C88   H50   S    
C4    H89   S    
C100  O29   S    
C17   C33   A    
O1    Zn1   S    
C86   H44   S    
C85   H42   S    
C15   C35   A    
C83   H38   S    
C69   H6    S    
C1    C34   A    
O12   Zn2   S    
C29   O18   S    
C79   H31   S    
C45   C58   A    
C102  H83   S    
C97   H71   S    
C74   C75   S    
C27   C31   A    
C67   C68   S    
C76   H22   S    
C12   O3    A    
C7    O33   A    
C71   O19   S    
O4    Zn1   S    
O6    Zn2   S    
C99   H76   S    
C80   C82   S    
C8    O9    A    
O3    Zn2   S    
O5    Zn1   S    
C83   H39   S    
C78   C79   S    
C4    C5    S    
C89   H54   S    
O17   Zn1   S    
C38   C51   A    
C54   C62   A    
C93   H62   S    
C67   H70   S    
C85   C86   S    
O16   Zn2   S    
C72   H11   S    
C96   H69   S    
C85   H43   S    
C70   O16   A    
C92   O14   A    
C66   H59   S    
C95   H65   S    
C7    C47   S    
C99   H77   S    
C90   H56   S    
C67   O18   S    
C10   C60   S    
C75   C76   S    
C9    O35   A    
C37   C38   A    
C100  H79   S    
C30   O24   S    
C8    C57   S    
C91   C93   S    
C4    H88   S    
C98   H74   S    
C69   H8    S    
C43   C56   A    
C84   H40   S    
C44   C57   A    
C79   H29   S    
C71   H10   S    
O34   Zn6   S    
C53   C92   S    
C13   O4    A    
O10   Zn6   S    
C9    C56   S    
C17   C23   A    
C32   O21   S    
C20   C59   S    
O9    Zn5   S    
C53   C66   A    
C80   H33   S    
C15   C41   A    
C91   H58   S    
O7    Zn3   S    
C101  H82   S    
C67   H81   S    
C28   O19   S    
O11   Zn6   S    
C26   C36   A    
C11   O2    A    
C21   C28   A    
C40   C53   A    
C96   H67   S    
C46   H5    S    
C2    O15   A    
C73   H16   S    
C102  H85   S    
C18   C32   A    
C14   C29   A    
C37   C45   A    
C3    C4    S    
C84   O24   S    
C36   C50   A    
C45   H4    S    
C35   H95   S    
C44   H3    S    
C5    H91   S    
C13   C54   S    
C84   H41   S    
C27   O27   S    
C25   C30   A    
C6    O32   A    
C16   C22   A    
C49   C62   A    
C46   C60   A    
C75   H19   S    
C76   H21   S    
C13   O6    A    
C78   H27   S    
C51   C64   A    
C68   H2    S    
C5    H90   S    
C36   H96   S    
C72   C73   S    
C39   C48   A    
C86   H46   S    
C47   C61   A    
C68   H92   S    
C10   O7    A    
C1    C14   S    
C20   C27   A    
C8    O34   A    
C9    O10   A    
C81   O17   A    
C24   C33   A    
C73   H13   S    
C2    C52   S    
O35   Zn5   S    
C23   C32   A    
C90   H55   S    
C78   H28   S    
C21   O26   S    
C71   C72   S    
O8    Zn4   S    
O31   Zn4   S    
C87   O25   S    
C88   H51   S    
C98   H73   S    
C89   H52   S    
C22   O25   S    
C93   H60   S    
C42   C55   A    
C56   C66   A    
C79   H30   S    
C55   C61   A    
C100  C101  S    
O15   Zn3   S    
O33   Zn6   S    
C6    C49   S    
C82   H34   S    
C94   C95   S    
C19   C25   A    
C41   C54   A    
C12   C55   S    
C26   C46   A    
C2    O31   A    
C7    O13   A    
C33   O20   S    
C44   C48   A    
C1    C42   A    
C88   C89   S    
C97   O28   S    
C82   C83   S    
C87   H47   S    
C31   O22   S    
C43   H102  S    
C38   H97   S    
C90   O26   S    
C96   H68   S    
C34   C47   A    
C80   O22   S    
C41   H100  S    
C83   H36   S    
C77   H24   S    
C90   C91   S    
C50   C81   S    
C94   O27   S    
C57   C65   A    
C64   H37   S    
C100  H78   S    
