data_mof_unit_896.cif
_audit_creation_date              2013-03-05T15:42:19-0500
_audit_creation_method            fapswitch 2.2
_symmetry_space_group_name_H-M    P1
_symmetry_Int_Tables_number       1
_space_group_crystal_system       triclinic
_cell_length_a                    7.796492
_cell_length_b                    8.604656
_cell_length_c                    19.131184
_cell_angle_alpha                 91.74662
_cell_angle_beta                  85.646939
_cell_angle_gamma                 92.984698
_cell_volume                      1277.5451869

loop_
_atom_site_label
_atom_site_type_symbol
_atom_site_description
_atom_site_fract_x
_atom_site_fract_y
_atom_site_fract_z
_atom_type_partial_charge
O1    O     O_R   0.389250 0.738570 0.504600 -0.593855
O2    O     O_R   0.610750 0.261430 0.495400 -0.593833
O3    O     O_R   0.678400 0.711620 0.492580 -0.632108
O4    O     O_R   0.321600 0.288380 0.507420 -0.632112
C1    C     C_R   0.544426 0.793933 0.498052 0.932321
C2    C     C_R   0.455574 0.206067 0.501950 0.932336
O5    O     O_R   0.355380 0.513500 0.607880 -0.619325
O6    O     O_R   0.644620 0.486500 0.392120 -0.619280
O7    O     O_R   0.644530 0.486550 0.595850 -0.597599
O8    O     O_R   0.355470 0.513450 0.404150 -0.597546
C3    C     C_R   0.501898 0.500548 0.634025 0.941797
C4    C     C_R   0.498099 0.499438 0.365972 0.941636
Zn1   Zn    Zn3+2 0.306930 0.517990 0.508030 0.977939
Zn2   Zn    Zn3+2 0.693070 0.482010 0.491970 0.977938
C5    C     C_R   0.431376 0.625000 0.749107 0.072864
C6    C     C_R   0.568981 0.375015 0.250904 0.072954
C7    C     C_R   0.436037 0.628682 0.821840 0.046430
C8    C     C_R   0.564306 0.371210 0.178172 0.046383
C9    C     C_R   0.516854 0.509907 0.854171 -0.118887
C10   C     C_R   0.483087 0.489694 0.145820 -0.118715
C11   C     C_R   0.594362 0.388463 0.814248 0.293636
C12   C     C_R   0.405149 0.610952 0.185715 0.293472
C13   C     C_R   0.589056 0.385491 0.741182 -0.061486
C14   C     C_R   0.410473 0.614061 0.258781 -0.061506
C15   C     C_R   0.507090 0.503408 0.709370 -0.115536
C16   C     C_R   0.492885 0.496454 0.290621 -0.115644
N1    N     N_R   0.432668 0.379465 0.962775 -0.101553
N2    N     N_R   0.567341 0.620088 0.037221 -0.101780
N3    N     N_R   0.424278 0.374191 0.032145 -0.138024
N4    N     N_R   0.575740 0.625356 0.967851 -0.138281
C17   C     C_R   0.491719 0.494376 0.070153 0.354037
C18   C     C_R   0.508285 0.505181 0.929841 0.354022
C19   C     C_2   0.563280 0.954463 0.486708 -0.097587
C20   C     C_2   0.436723 0.045537 0.513296 -0.097568
N5    N     N_2   0.950330 0.457950 0.481240 -0.005223
N6    N     N_2   0.049670 0.542050 0.518760 -0.005227
N7    N     N_3   0.352367 0.746116 0.714912 -0.442086
H1    H     H_    0.414229 0.852759 0.727813 0.210838
H2    H     H_    0.223374 0.748439 0.734206 0.215062
N8    N     N_3   0.648394 0.254168 0.285119 -0.441939
H3    H     H_    0.586848 0.147365 0.272239 0.210659
H4    H     H_    0.777406 0.252152 0.265821 0.215022
N9    N     N_3   0.353363 0.751224 0.861939 -0.421807
H5    H     H_    0.262634 0.701866 0.898956 0.226097
H6    H     H_    0.446202 0.817406 0.888003 0.252866
N10   N     N_3   0.647352 0.248847 0.138091 -0.422070
H7    H     H_    0.737980 0.298384 0.101085 0.226165
H8    H     H_    0.554702 0.182463 0.112009 0.252543
N11   N     N_R   0.682245 0.271440 0.847674 0.208136
O9    O     O_R   0.641818 0.124446 0.837130 -0.405011
O10   O     O_R   0.798802 0.311841 0.890883 -0.368565
N12   N     N_R   0.316813 0.727625 0.152256 0.208110
O11   O     O_R   0.356589 0.874740 0.162813 -0.404713
O12   O     O_R   0.200480 0.686798 0.109009 -0.368622
N13   N     N_3   0.666607 0.264031 0.698503 -0.435405
H9    H     H_    0.600699 0.158113 0.710272 0.217936
H10   H     H_    0.794989 0.258258 0.710121 0.223797
N14   N     N_3   0.332484 0.735337 0.301433 -0.435246
H11   H     H_    0.398016 0.841414 0.289643 0.218078
H12   H     H_    0.204053 0.740700 0.289814 0.223779
N15   N     N_3   0.705031 0.010248 0.439691 -0.441130
H13   H     H_    0.699128 0.949181 0.391742 0.179725
H14   H     H_    0.820071 0.985517 0.460843 0.191215
N16   N     N_3   0.294978 0.989753 0.560315 -0.441126
H15   H     H_    0.300887 0.050821 0.608264 0.179753
H16   H     H_    0.179935 0.014484 0.539166 0.191203
N17   N     N_3   0.033110 0.362158 0.431465 -0.313826
H17   H     H_    0.984766 0.248709 0.440924 0.176768
H18   H     H_    0.993769 0.391585 0.382789 0.187881
N18   N     N_3   0.966890 0.637848 0.568532 -0.313829
H19   H     H_    0.015232 0.751296 0.559070 0.176759
H20   H     H_    0.006234 0.608429 0.617210 0.187897

loop_
_geom_bond_atom_site_label_1
_geom_bond_atom_site_label_2
_geom_bond_distance
_ccdc_geom_bond_type
N4    C18   1.352874 A    
O7    Zn2   1.994222 S    
C7    N9    1.436042 S    
C13   N13   1.436441 S    
N18   H19   1.043959 S    
C10   C17   1.445749 S    
N1    N3    1.325827 A    
N9    H6    1.044698 S    
N5    N6    1.277941 D    
N5    N17   1.384551 S    
O6    C4    1.292672 A    
N16   H15   1.046057 S    
N15   H13   1.046054 S    
N13   H9    1.044762 S    
N2    N4    1.325816 A    
C19   C20   1.351474 D    
N1    C18   1.354054 A    
N7    H2    1.045637 S    
C6    C8    1.394036 A    
C4    C16   1.444602 S    
O5    C3    1.292634 A    
O7    C3    1.292207 A    
O2    C2    1.275511 A    
O3    Zn2   1.984589 S    
O8    C4    1.292231 A    
C6    N8    1.436361 S    
C19   N15   1.442570 S    
O1    C1    1.275515 A    
C9    C18   1.445841 S    
C8    N10   1.436042 S    
C11   N11   1.438738 S    
N8    H3    1.045826 S    
C9    C11   1.409805 A    
N7    H1    1.045830 S    
N12   O12   1.301384 A    
C20   N16   1.442568 S    
C12   N12   1.438762 S    
C8    C10   1.410190 A    
C1    C19   1.403213 S    
N13   H10   1.045641 S    
N9    H5    1.045582 S    
C6    C16   1.403201 A    
N6    N18   1.384551 S    
O2    Zn2   1.973074 S    
C12   C14   1.401004 A    
C5    C15   1.403124 A    
O4    C2    1.288247 A    
O1    Zn1   1.973074 S    
C10   C12   1.409776 A    
N14   H12   1.045652 S    
N17   H17   1.043958 S    
C14   N14   1.436441 S    
O3    C1    1.288243 A    
O5    Zn1   1.977063 S    
C13   C15   1.404450 A    
N12   O11   1.300931 A    
Zn1   N6    2.021407 S    
N3    C17   1.352869 A    
N11   O9    1.300927 A    
N17   H18   1.044613 S    
Zn2   N5    2.021406 S    
N15   H14   1.045798 S    
C3    C15   1.444502 S    
N10   H7    1.045578 S    
C5    N7    1.436352 S    
N18   H20   1.044613 S    
O6    Zn2   1.977065 S    
C7    C9    1.410270 A    
N14   H11   1.044762 S    
C5    C7    1.394053 A    
C11   C13   1.400995 A    
N10   H8    1.044705 S    
N2    C17   1.354019 A    
C2    C20   1.403217 S    
O4    Zn1   1.984588 S    
C14   C16   1.404518 A    
N8    H4    1.045638 S    
N11   O10   1.301383 A    
O8    Zn1   1.994226 S    
N16   H16   1.045798 S    
