data_mof_unit_2259.cif
_audit_creation_date              2012-12-11T16:45:46-0500
_audit_creation_method            fapswitch 2.2
_symmetry_space_group_name_H-M    P1
_symmetry_Int_Tables_number       1
_space_group_crystal_system       monoclinic
_cell_length_a                    19.791671
_cell_length_b                    17.126158
_cell_length_c                    15.309403
_cell_angle_alpha                 90.0
_cell_angle_beta                  52.683346
_cell_angle_gamma                 90.0
_cell_volume                      4126.95920883

loop_
_atom_site_label
_atom_site_type_symbol
_atom_type_description
_atom_site_fract_x
_atom_site_fract_y
_atom_site_fract_z
_atom_type_partial_charge
C1    C     C_R   0.874238 0.693846 0.993087 -0.124662
C2    C     C_R   0.210956 0.346789 0.977667 -0.021998
C3    C     C_R   0.289043 0.846789 0.022333 -0.021998
C4    C     C_R   0.710956 0.846789 0.977667 -0.021998
C5    C     C_R   0.807940 0.638137 0.324479 0.062537
C6    C     C_R   0.192060 0.638137 0.675521 0.062537
C7    C     C_R   0.307940 0.138137 0.324479 0.062537
C8    C     C_R   0.692060 0.138137 0.675521 0.062537
C9    C     C_R   0.706046 0.636285 0.528232 0.069480
C10   C     C_R   0.293954 0.636285 0.471768 0.069480
C11   C     C_R   0.206046 0.136285 0.528232 0.069480
C12   C     C_R   0.125761 0.693846 0.006913 -0.124662
C13   C     C_R   0.793954 0.136285 0.471768 0.069480
C14   C     C_R   0.729199 0.664190 0.427294 0.105314
C15   C     C_R   0.270801 0.664190 0.572706 0.105314
C16   C     C_R   0.229199 0.164190 0.427294 0.105314
C17   C     C_R   0.770801 0.164190 0.572706 0.105314
C18   C     C_R   0.183774 0.228063 0.428746 -0.183801
C19   C     C_R   0.816226 0.228063 0.571254 -0.183802
C20   C     C_R   0.683774 0.728063 0.428746 -0.183801
C21   C     C_R   0.316226 0.728063 0.571254 -0.183802
C22   C     C_R   0.134409 0.274235 0.523317 -0.171842
C23   C     C_R   0.374238 0.193846 0.993087 -0.124662
C24   C     C_R   0.865591 0.274235 0.476683 -0.171841
C25   C     C_R   0.634409 0.774235 0.523317 -0.171842
C26   C     C_R   0.365591 0.774235 0.476683 -0.171841
C27   C     C_R   0.130543 0.256033 0.615964 0.076504
C28   C     C_R   0.869457 0.256033 0.384036 0.076503
C29   C     C_R   0.630543 0.756033 0.615964 0.076504
C30   C     C_R   0.369457 0.756033 0.384036 0.076503
C31   C     C_R   0.657912 0.682000 0.620991 -0.068935
C32   C     C_R   0.342088 0.682000 0.379009 -0.068934
C33   C     C_R   0.157912 0.182000 0.620991 -0.068935
C34   C     C_R   0.625761 0.193846 0.006913 -0.124662
C35   C     C_R   0.842088 0.182000 0.379009 -0.068934
C36   C     C_3   0.705773 0.655496 0.662790 0.664528
C37   C     C_3   0.294227 0.655496 0.337210 0.664528
C38   C     C_3   0.205773 0.155496 0.662790 0.664528
C39   C     C_3   0.794227 0.155496 0.337210 0.664528
C40   C     C_R   0.899858 0.301951 0.207456 -0.001184
C41   C     C_R   0.100141 0.301951 0.792544 -0.001184
C42   C     C_R   0.399858 0.801951 0.207456 -0.001184
C43   C     C_R   0.600141 0.801951 0.792544 -0.001184
C44   C     C_3   0.758184 0.605213 0.561777 -0.615693
C45   C     C_R   0.888045 0.315797 0.304406 0.094678
C46   C     C_3   0.241816 0.605213 0.438223 -0.615693
C47   C     C_3   0.258184 0.105213 0.561777 -0.615693
C48   C     C_3   0.741816 0.105213 0.438223 -0.615693
C49   C     C_2   0.693633 0.236241 0.094085 -0.176494
C50   C     C_2   0.306367 0.236241 0.905915 -0.176495
C51   C     C_2   0.193633 0.736241 0.094085 -0.176494
C52   C     C_2   0.806367 0.736241 0.905915 -0.176494
C53   C     C_2   0.215451 0.806598 0.045892 -0.122137
C54   C     C_2   0.784549 0.806598 0.954108 -0.122136
C55   C     C_2   0.715451 0.306598 0.045892 -0.122137
C56   C     C_R   0.111955 0.315797 0.695594 0.094677
C57   C     C_2   0.284549 0.306598 0.954108 -0.122136
C58   C     C_R   0.830358 0.409362 0.950890 0.694754
C59   C     C_R   0.169642 0.409362 0.049110 0.694753
C60   C     C_R   0.330358 0.909362 0.950890 0.694754
C61   C     C_R   0.669642 0.909362 0.049110 0.694753
C62   C     C_R   0.858033 0.577634 0.314803 -0.120269
C63   C     C_R   0.141967 0.577634 0.685197 -0.120269
C64   C     C_R   0.358033 0.077634 0.314803 -0.120269
C65   C     C_R   0.641967 0.077634 0.685197 -0.120269
C66   C     C_R   0.840622 0.320170 0.048358 -0.225180
C67   C     C_R   0.388045 0.815797 0.304406 0.094678
C68   C     C_R   0.159378 0.320170 0.951642 -0.225181
C69   C     C_R   0.340622 0.820170 0.048358 -0.225180
C70   C     C_R   0.659378 0.820170 0.951642 -0.225180
C71   C     C_R   0.850272 0.671822 0.220897 -0.119657
C72   C     C_R   0.149728 0.671822 0.779103 -0.119657
C73   C     C_R   0.350272 0.171822 0.220897 -0.119657
C74   C     C_R   0.649728 0.171822 0.779103 -0.119657
C75   C     C_R   0.906057 0.393839 0.304692 -0.166283
C76   C     C_R   0.093943 0.393839 0.695308 -0.166283
C77   C     C_R   0.406057 0.893839 0.304692 -0.166283
C78   C     C_R   0.611955 0.815797 0.695594 0.094677
C79   C     C_R   0.593943 0.893839 0.695308 -0.166283
C80   C     C_R   0.865712 0.603063 0.896146 -0.047365
C81   C     C_R   0.134288 0.603063 0.103854 -0.047365
C82   C     C_R   0.365712 0.103063 0.896146 -0.047365
C83   C     C_R   0.634288 0.103063 0.103854 -0.047365
C84   C     C_R   0.846492 0.679765 0.931404 0.088235
C85   C     C_R   0.153508 0.679765 0.068596 0.088235
C86   C     C_R   0.346492 0.179765 0.931404 0.088235
C87   C     C_R   0.653508 0.179765 0.068596 0.088235
C88   C     C_R   0.789043 0.346789 0.022333 -0.021998
F1    F     F_    0.754362 0.714152 0.662101 -0.690256
F2    F     F_    0.245638 0.714152 0.337899 -0.690256
F3    F     F_    0.254362 0.214152 0.662101 -0.690256
F4    F     F_    0.745638 0.214152 0.337899 -0.690256
F5    F     F_    0.805740 0.446959 0.896652 -0.742636
F6    F     F_    0.194260 0.446959 0.103348 -0.742636
F7    F     F_    0.305740 0.946959 0.896652 -0.742636
F8    F     F_    0.694260 0.946959 0.103348 -0.742636
H1    H     H_    0.881148 0.749539 0.019881 0.095755
H2    H     H_    0.333580 0.621934 0.259204 -0.007811
H3    H     H_    0.166420 0.121934 0.740796 -0.007811
H4    H     H_    0.833580 0.121934 0.259204 -0.007811
H5    H     H_    0.825903 0.623695 0.506667 0.235260
H6    H     H_    0.174097 0.623695 0.493333 0.235260
H7    H     H_    0.325903 0.123695 0.506667 0.235260
H8    H     H_    0.674097 0.123695 0.493333 0.235260
H9    H     H_    0.747699 0.541735 0.580773 0.162245
H10   H     H_    0.252301 0.541735 0.419227 0.162245
H11   H     H_    0.247699 0.041735 0.580773 0.162245
H12   H     H_    0.118852 0.749539 0.980119 0.095755
H13   H     H_    0.752301 0.041735 0.419227 0.162245
H14   H     H_    0.717406 0.214534 0.137271 0.165411
H15   H     H_    0.282594 0.214534 0.862729 0.165411
H16   H     H_    0.217406 0.714534 0.137271 0.165411
H17   H     H_    0.782594 0.714534 0.862729 0.165411
H18   H     H_    0.189867 0.829177 0.005362 0.156826
H19   H     H_    0.810133 0.829177 0.994638 0.156826
H20   H     H_    0.689867 0.329177 0.005362 0.156826
H21   H     H_    0.310133 0.329177 0.994638 0.156826
H22   H     H_    0.907021 0.245693 0.170877 0.068745
H23   H     H_    0.381148 0.249539 0.019881 0.095755
H24   H     H_    0.092979 0.245693 0.829123 0.068745
H25   H     H_    0.407021 0.745693 0.170877 0.068745
H26   H     H_    0.592979 0.745693 0.829123 0.068745
H27   H     H_    0.843469 0.535877 0.376414 0.119443
H28   H     H_    0.156531 0.535877 0.623586 0.119443
H29   H     H_    0.343469 0.035877 0.376414 0.119443
H30   H     H_    0.656531 0.035877 0.623586 0.119443
H31   H     H_    0.831396 0.270870 0.098353 0.166296
H32   H     H_    0.168604 0.270870 0.901647 0.166296
H33   H     H_    0.331396 0.770870 0.098353 0.166296
H34   H     H_    0.618852 0.249539 0.980119 0.095755
H35   H     H_    0.668604 0.770870 0.901647 0.166296
H36   H     H_    0.829538 0.720628 0.198093 0.099661
H37   H     H_    0.170462 0.720628 0.801907 0.099661
H38   H     H_    0.329538 0.220628 0.198093 0.099661
H39   H     H_    0.670462 0.220628 0.801907 0.099661
H40   H     H_    0.916167 0.421467 0.359368 0.102348
H41   H     H_    0.083833 0.421467 0.640632 0.102348
H42   H     H_    0.416167 0.921467 0.359368 0.102348
H43   H     H_    0.583833 0.921467 0.640632 0.102348
H44   H     H_    0.863578 0.577438 0.833356 0.168524
H45   H     H_    0.108682 0.328298 0.518375 0.125890
H46   H     H_    0.136422 0.577438 0.166643 0.168524
H47   H     H_    0.363577 0.077438 0.833356 0.168524
H48   H     H_    0.636422 0.077438 0.166643 0.168524
H49   H     H_    0.194549 0.248353 0.354307 0.129995
H50   H     H_    0.805450 0.248353 0.645693 0.129995
H51   H     H_    0.694549 0.748353 0.354307 0.129995
H52   H     H_    0.305451 0.748353 0.645693 0.129995
H53   H     H_    0.891318 0.328298 0.481625 0.125889
H54   H     H_    0.608682 0.828298 0.518375 0.125890
H55   H     H_    0.391318 0.828298 0.481625 0.125889
H56   H     H_    0.666420 0.621934 0.740796 -0.007811
N1    N     N_R   0.908660 0.628630 0.995840 -0.050895
N2    N     N_R   0.096530 0.421430 0.063580 -0.110490
N3    N     N_R   0.403470 0.921430 0.936420 -0.110490
N4    N     N_R   0.596530 0.921430 0.063580 -0.110490
N5    N     N_R   0.927500 0.575670 0.211370 -0.044202
N6    N     N_R   0.072500 0.575670 0.788630 -0.044202
N7    N     N_R   0.427500 0.075670 0.211370 -0.044202
N8    N     N_R   0.572500 0.075670 0.788630 -0.044202
N9    N     N_R   0.908660 0.365680 0.995820 -0.086315
N10   N     N_R   0.091340 0.365680 0.004180 -0.086315
N11   N     N_R   0.408660 0.865680 0.995820 -0.086315
N12   N     N_R   0.091340 0.628630 0.004160 -0.050895
N13   N     N_R   0.591340 0.865680 0.004180 -0.086315
N14   N     N_R   0.922310 0.631420 0.151980 -0.042603
N15   N     N_R   0.077690 0.631420 0.848020 -0.042603
N16   N     N_R   0.422310 0.131420 0.151980 -0.042603
N17   N     N_R   0.577690 0.131420 0.848020 -0.042603
N18   N     N_R   0.927500 0.426330 0.211360 -0.046279
N19   N     N_R   0.072500 0.426330 0.788640 -0.046279
N20   N     N_R   0.427500 0.926330 0.211360 -0.046279
N21   N     N_R   0.572500 0.926330 0.788640 -0.046279
N22   N     N_R   0.903470 0.570760 0.936440 -0.054450
N23   N     N_R   0.408660 0.128630 0.995840 -0.050895
N24   N     N_R   0.096530 0.570760 0.063560 -0.054450
N25   N     N_R   0.403470 0.070760 0.936440 -0.054450
N26   N     N_R   0.596530 0.070760 0.063560 -0.054450
N27   N     N_R   0.591340 0.128630 0.004160 -0.050895
N28   N     N_R   0.922310 0.368460 0.151950 -0.048858
N29   N     N_R   0.077690 0.368460 0.848050 -0.048858
N30   N     N_R   0.422310 0.868460 0.151950 -0.048858
N31   N     N_R   0.577690 0.868460 0.848050 -0.048858
N32   N     N_R   0.903470 0.421430 0.936420 -0.110490
Ni1   Ni    Ni4+2 0.000000 0.630300 0.000000 0.212429
Ni2   Ni    Ni4+2 0.500000 0.130300 0.000000 0.212429
Ni3   Ni    Ni4+2 0.000000 0.369700 0.000000 0.194853
Ni4   Ni    Ni4+2 0.500000 0.869700 0.000000 0.194854
Ni5   Ni    Ni4+2 0.988090 0.497570 0.863760 0.234226
Ni6   Ni    Ni4+2 0.011910 0.497570 0.136240 0.234226
Ni7   Ni    Ni4+2 0.488090 0.997570 0.863760 0.234226
Ni8   Ni    Ni4+2 0.511910 0.997570 0.136240 0.234226

loop_
_geom_bond_atom_site_label_1
_geom_bond_atom_site_label_2
_ccdc_geom_bond_type
C36   F1    S    
C40   H22   S    
C21   C26   A    
C51   H16   S    
N25   Ni7   S    
N14   Ni1   S    
C22   H45   S    
C79   N21   A    
C11   C47   S    
C76   H41   S    
C67   C77   A    
C80   C84   A    
C18   H49   S    
C51   C85   S    
C4    C70   A    
C63   H28   S    
N29   Ni3   S    
C61   F8    S    
N23   N25   A    
N27   Ni2   S    
C44   H9    S    
N20   Ni8   S    
C43   C78   A    
C6    C72   A    
C46   H6    S    
C12   C85   A    
C56   C76   A    
C20   H51   S    
C26   H55   S    
C3    C69   A    
C58   F5    S    
N17   Ni2   S    
C13   C35   A    
C2    C68   A    
C10   C15   A    
C73   N16   A    
C23   H23   S    
C83   H48   S    
C23   N23   A    
C20   C25   A    
N15   Ni1   S    
C46   H10   S    
N7    N16   A    
N19   Ni5   S    
C58   N32   A    
C39   H4    S    
C55   C88   S    
C52   C84   S    
C49   C87   S    
N5    Ni6   S    
C71   H36   S    
C74   N17   A    
C6    C15   S    
C40   N28   A    
C29   C78   S    
C28   C35   A    
C23   C86   A    
C82   N25   A    
C10   C46   S    
N8    N17   A    
N9    Ni3   S    
C59   F6    S    
C69   H33   S    
C30   C32   A    
C24   C28   A    
C68   H32   S    
C30   C67   S    
C3    C60   A    
C48   H13   S    
N2    Ni6   S    
C8    C65   A    
C18   C22   A    
C54   H19   S    
C41   N29   A    
C34   N27   A    
C65   N8    A    
C62   H27   S    
C59   N2    A    
C52   C54   D    
N6    N15   A    
N26   N27   A    
N1    N22   A    
C25   C29   A    
C40   C45   A    
C66   H31   S    
C70   H35   S    
C28   C45   S    
C2    C57   S    
C19   H50   S    
N16   Ni2   S    
N13   Ni4   S    
C81   N24   A    
C14   C20   A    
C11   C33   A    
C47   H7    S    
C77   H42   S    
C7    C73   A    
C79   H43   S    
C70   N13   A    
C1    H1    S    
C12   H12   S    
C9    C31   A    
C78   C79   A    
C36   H56   S    
N3    N11   A    
C80   H44   S    
C38   F3    S    
C71   N14   A    
C27   C33   A    
C66   N9    A    
N18   N28   A    
C25   H54   S    
C1    C84   A    
C6    C63   A    
C76   N19   A    
C35   C39   S    
C9    C14   A    
C21   H52   S    
C41   C56   A    
N28   Ni3   S    
N20   N30   A    
C12   N12   A    
N26   Ni8   S    
C11   C16   A    
N24   Ni6   S    
C83   C87   A    
C49   C55   D    
C74   H39   S    
C75   N18   A    
C8    C74   A    
C5    C14   S    
C62   N5    A    
C37   H2    S    
N30   Ni4   S    
C32   C37   S    
C27   C56   S    
C1    N1    A    
C43   H26   S    
C34   H34   S    
C38   C47   S    
N3    Ni7   S    
C37   F2    S    
C16   C18   A    
C7    C16   S    
C2    C59   A    
N12   Ni1   S    
C47   H11   S    
C22   C27   A    
C42   C67   A    
C82   H47   S    
C72   N15   A    
N6    Ni5   S    
C61   N4    A    
N4    Ni8   S    
C39   F4    S    
C53   H18   S    
C57   H21   S    
C81   H46   S    
C9    C44   S    
C83   N26   A    
C4    C54   S    
C75   H40   S    
C50   C57   D    
N7    Ni8   S    
N19   N29   A    
C69   N11   A    
N8    Ni7   S    
C38   H3    S    
C39   C48   S    
C58   C88   A    
N5    N14   A    
C13   C48   S    
C44   H5    S    
C26   C30   A    
C68   N10   A    
N18   Ni6   S    
C8    C17   S    
C13   C17   A    
C45   C75   A    
C65   H30   S    
N9    N32   A    
C19   C24   A    
C60   N3    A    
C80   N22   A    
C29   C31   A    
C82   C86   A    
N31   Ni4   S    
N23   Ni2   S    
C66   C88   A    
C3    C53   S    
C72   H37   S    
N10   Ni3   S    
N1    Ni1   S    
N4    N13   A    
C42   N30   A    
C77   N20   A    
C52   H17   S    
C4    C61   A    
C64   N7    A    
C43   N31   A    
C50   H15   S    
C17   C19   A    
N21   Ni7   S    
C5    C62   A    
N12   N24   A    
C34   C87   A    
C41   H24   S    
C81   C85   A    
C7    C64   A    
C36   C44   S    
C24   H53   S    
C50   C86   S    
N22   Ni5   S    
C60   F7    S    
C10   C32   A    
C15   C21   A    
C73   H38   S    
N21   N31   A    
C5    C71   A    
C64   H29   S    
C55   H20   S    
C31   C36   S    
N11   Ni4   S    
C33   C38   S    
C63   N6    A    
C51   C53   D    
C37   C46   S    
N32   Ni5   S    
N2    N10   A    
C42   H25   S    
C49   H14   S    
C48   H8    S    
