data_mof_unit_4601.cif
_audit_creation_date              2012-12-11T15:43:44-0500
_audit_creation_method            fapswitch 2.2
_symmetry_space_group_name_H-M    P1
_symmetry_Int_Tables_number       1
_space_group_crystal_system       triclinic
_cell_length_a                    14.599978
_cell_length_b                    16.129043
_cell_length_c                    6.904517
_cell_angle_alpha                 90.000066
_cell_angle_beta                  98.63149
_cell_angle_gamma                 89.999981
_cell_volume                      1607.48614374

loop_
_atom_site_label
_atom_site_type_symbol
_atom_type_description
_atom_site_fract_x
_atom_site_fract_y
_atom_site_fract_z
_atom_type_partial_charge
O1    O     O_R   0.831700 0.662810 0.581550 -0.544073
O2    O     O_R   0.168300 0.337190 0.418450 -0.545207
O3    O     O_R   0.168300 0.162810 0.418450 -0.544072
O4    O     O_R   0.831700 0.837190 0.581550 -0.545205
O5    O     O_R   0.842890 0.834390 0.255500 -0.546806
O6    O     O_R   0.157110 0.165610 0.744500 -0.543090
O7    O     O_R   0.157110 0.334390 0.744500 -0.546804
O8    O     O_R   0.842890 0.665610 0.255500 -0.543091
O9    O     O_R   0.661690 0.835580 0.024130 -0.509556
O10   O     O_R   0.338310 0.164420 0.975870 -0.503911
O11   O     O_R   0.338310 0.335580 0.975870 -0.509557
O12   O     O_R   0.661690 0.664420 0.024130 -0.503908
C1    C     C_R   0.865879 0.864424 0.431520 0.682842
C2    C     C_R   0.134374 0.135355 0.568689 0.691889
C3    C     C_R   0.134121 0.364424 0.568480 0.682848
C4    C     C_R   0.865627 0.635355 0.431311 0.691888
C5    C     C_R   0.065378 0.066119 0.534613 -0.050260
C6    C     C_R   0.935316 0.933276 0.466106 -0.049752
C7    C     C_R   0.934622 0.566119 0.465387 -0.050257
C8    C     C_R   0.064683 0.433275 0.533895 -0.049750
H1    H     H_    0.968951 0.934686 0.171109 0.112760
H2    H     H_    0.031875 0.064608 0.829772 0.114980
H3    H     H_    0.031060 0.434695 0.828901 0.112756
H4    H     H_    0.968113 0.564598 0.170219 0.114981
H5    H     H_    0.080085 0.048170 0.228939 0.117295
H6    H     H_    0.920197 0.951519 0.771519 0.115765
H7    H     H_    0.919926 0.548179 0.771070 0.117294
H8    H     H_    0.079790 0.451509 0.228472 0.115765
C9    C     C_R   0.982002 0.962283 0.315591 -0.156180
C10   C     C_R   0.018979 0.036888 0.685395 -0.164691
C11   C     C_R   0.018004 0.462289 0.684415 -0.156175
C12   C     C_R   0.981014 0.536883 0.314600 -0.164690
O13   O     O_3   0.687240 0.750000 0.366320 -0.349643
O14   O     O_3   0.312760 0.250000 0.633680 -0.349648
V1    V     V_3+5 0.757720 0.750000 0.115230 1.454175
V2    V     V_3+5 0.242280 0.250000 0.884770 1.454170
O15   O     O_R   0.650500 0.664000 0.690740 -0.547745
O16   O     O_R   0.349500 0.336000 0.309260 -0.545582
O17   O     O_R   0.349500 0.164000 0.309260 -0.547741
O18   O     O_R   0.650500 0.836000 0.690740 -0.545582
C13   C     C_R   0.626710 0.637197 0.854278 0.768660
C14   C     C_R   0.369875 0.365423 0.145367 0.760655
C15   C     C_R   0.373292 0.137198 0.145722 0.768658
C16   C     C_R   0.630125 0.865423 0.854633 0.760657
C17   C     C_R   0.045819 0.027758 0.349164 -0.142297
C18   C     C_R   0.954863 0.971628 0.651594 -0.154010
C19   C     C_R   0.954187 0.527763 0.650841 -0.142301
C20   C     C_R   0.045130 0.471622 0.348401 -0.154022
V3    V     V_3+5 0.735670 0.750000 0.607790 1.443842
V4    V     V_3+5 0.264330 0.250000 0.392210 1.443840
O19   O     O_3   0.806150 0.750000 0.906560 -0.386434
O20   O     O_3   0.193850 0.250000 0.093440 -0.386433
C21   C     C_2   0.564071 0.935382 0.849225 -0.411518
C22   C     C_2   0.445713 0.072354 0.151045 -0.421409
C23   C     C_2   0.435929 0.435382 0.150774 -0.411518
C24   C     C_2   0.554292 0.572350 0.848955 -0.421412
C25   C     C_2   0.557074 0.983826 0.007755 0.354138
C26   C     C_2   0.486205 0.051715 0.992196 0.350738
C27   C     C_2   0.442929 0.483823 0.992240 0.354135
C28   C     C_2   0.513798 0.551712 0.007802 0.350742
H9    H     H_    0.467851 0.041725 0.290385 0.126424
H10   H     H_    0.521625 0.948886 0.709672 0.131741
H11   H     H_    0.532157 0.541720 0.709616 0.126421
H12   H     H_    0.478371 0.448889 0.290329 0.131740
O21   O     O_3   0.456235 0.088743 0.811553 -0.559174
C29   C     C_3   0.529267 0.133130 0.744875 0.089077
H13   H     H_    0.507085 0.147261 0.587464 0.143690
H14   H     H_    0.593638 0.095939 0.751226 0.076145
C30   C     C_3   0.548795 0.215533 0.854907 -0.305011
H15   H     H_    0.484237 0.252737 0.842011 0.229357
H16   H     H_    0.572994 0.203602 0.012650 0.161212
C31   C     C_3   0.622704 0.265594 0.772261 -0.836729
H17   H     H_    0.688739 0.230281 0.787404 0.230463
H18   H     H_    0.635023 0.324795 0.854173 0.237003
H19   H     H_    0.599573 0.280022 0.615184 0.227743
O22   O     O_3   0.611938 0.966945 0.186371 -0.560905
C32   C     C_3   0.668596 0.035854 0.251518 0.071511
H20   H     H_    0.698491 0.023976 0.406707 0.133240
H21   H     H_    0.628777 0.094541 0.251945 0.087830
C33   C     C_3   0.748791 0.046215 0.132708 -0.324947
H22   H     H_    0.789109 0.987843 0.137620 0.199379
H23   H     H_    0.721585 0.059485 0.977197 0.169057
C34   C     C_3   0.812588 0.117200 0.212478 -0.825279
H24   H     H_    0.773768 0.176674 0.201142 0.230670
H25   H     H_    0.870568 0.122312 0.125841 0.230814
H26   H     H_    0.841799 0.105740 0.368136 0.241129
O23   O     O_3   0.543767 0.588741 0.188444 -0.559173
C35   C     C_3   0.470734 0.633125 0.255126 0.089085
H27   H     H_    0.492925 0.647269 0.412528 0.143699
H28   H     H_    0.406370 0.595926 0.248811 0.076134
C36   C     C_3   0.451186 0.715520 0.145065 -0.305046
H29   H     H_    0.515737 0.752732 0.157931 0.229336
H30   H     H_    0.426981 0.703576 0.987331 0.161228
C37   C     C_3   0.377273 0.765576 0.227710 -0.836718
H31   H     H_    0.311247 0.730250 0.212607 0.230461
H32   H     H_    0.364935 0.824768 0.145766 0.236998
H33   H     H_    0.400412 0.780021 0.384775 0.227745
O24   O     O_3   0.388072 0.466934 0.813617 -0.560901
C38   C     C_3   0.331421 0.535844 0.748427 0.071523
H34   H     H_    0.301528 0.523951 0.593242 0.133241
H35   H     H_    0.371247 0.594527 0.747966 0.087813
C39   C     C_3   0.251225 0.546230 0.867227 -0.324956
H36   H     H_    0.210909 0.487858 0.862376 0.199370
H37   H     H_    0.278431 0.559530 0.022727 0.169061
C40   C     C_3   0.187427 0.617205 0.787382 -0.825242
H38   H     H_    0.226248 0.676679 0.798641 0.230661
H39   H     H_    0.129449 0.622340 0.874023 0.230813
H40   H     H_    0.158211 0.605713 0.631738 0.241124

loop_
_geom_bond_atom_site_label_1
_geom_bond_atom_site_label_2
_ccdc_geom_bond_type
C29   H14   S    
O23   C35   S    
C23   C27   D    
O7    V2    S    
C32   H20   S    
C40   H39   S    
C1    C6    S    
C39   C40   S    
C25   O22   S    
O11   V2    S    
C5    C17   A    
O16   C14   A    
C31   H19   S    
C7    C19   A    
C29   C30   S    
C36   H30   S    
O13   V3    S    
O18   V3    S    
O11   C14   A    
O4    C1    A    
C30   H16   S    
O2    V4    S    
C16   C21   S    
C28   O23   S    
C38   H34   S    
V3    O19   S    
C38   C39   S    
V4    O20   S    
O5    C1    A    
V2    O20   S    
O7    C3    A    
C29   H13   S    
C27   C28   S    
O8    C4    A    
C11   C19   A    
C5    C10   A    
C12   C20   A    
C2    C5    S    
C30   H15   S    
C33   C34   S    
C7    C12   A    
C6    C18   A    
O3    V4    S    
C32   H21   S    
C3    C8    S    
C40   H40   S    
O14   V4    S    
C39   H36   S    
O22   C32   S    
C33   H23   S    
C36   H29   S    
C6    C9    A    
C21   C25   D    
C31   H17   S    
O17   C15   A    
C37   H33   S    
H1    C9    S    
C24   C28   D    
C9    C17   A    
O8    V1    S    
H3    C11   S    
C30   C31   S    
C39   H37   S    
H4    C12   S    
C13   C24   S    
O12   C13   A    
C14   C23   S    
O6    C2    A    
O15   V3    S    
C21   H10   S    
C26   O21   S    
C34   H24   S    
C35   C36   S    
C23   H12   S    
O17   V4    S    
C24   H11   S    
O1    C4    A    
O12   V1    S    
C37   H32   S    
O2    C3    A    
C8    C20   A    
O3    C2    A    
C31   H18   S    
C34   H25   S    
C35   H28   S    
O24   C38   S    
V1    O19   S    
H5    C17   S    
C22   C26   D    
C32   C33   S    
H7    C19   S    
H8    C20   S    
O9    C16   A    
H2    C10   S    
C38   H35   S    
O10   C15   A    
C10   C18   A    
C33   H22   S    
O16   V4    S    
C22   H9    S    
C40   H38   S    
O4    V3    S    
C36   C37   S    
C25   C26   S    
C4    C7    S    
O5    V1    S    
O13   V1    S    
O6    V2    S    
O14   V2    S    
O15   C13   A    
C37   H31   S    
C15   C22   S    
H6    C18   S    
O18   C16   A    
C34   H26   S    
C35   H27   S    
O21   C29   S    
O9    V1    S    
C27   O24   S    
O10   V2    S    
O1    V3    S    
C8    C11   A    
