data_mof_unit_3259.cif
_audit_creation_date              2012-12-10T19:04:43-0500
_audit_creation_method            fapswitch 2.2
_symmetry_space_group_name_H-M    P1
_symmetry_Int_Tables_number       1
_space_group_crystal_system       triclinic
_cell_length_a                    15.840708
_cell_length_b                    10.900296
_cell_length_c                    9.612782
_cell_angle_alpha                 91.094376
_cell_angle_beta                  90.42929
_cell_angle_gamma                 91.806755
_cell_volume                      1658.64153324

loop_
_atom_site_label
_atom_site_type_symbol
_atom_type_description
_atom_site_fract_x
_atom_site_fract_y
_atom_site_fract_z
_atom_type_partial_charge
C1    C     C_R   0.497497 0.262293 0.498609 0.834828
C2    C     C_3   0.082792 0.502138 0.498584 0.091607
C3    C     C_3   0.974195 0.584063 0.595872 -0.172513
C4    C     C_3   0.917108 0.501692 0.500946 0.099790
C5    C     C_3   0.030001 0.614707 0.468420 -0.226148
C6    C     C_3   0.971215 0.532565 0.373555 -0.119971
C7    C     C_1   0.174565 0.501596 0.498151 0.031224
C8    C     C_1   0.825399 0.501150 0.501547 -0.002722
C9    C     C_R   0.517787 0.068146 0.618948 0.064226
C10   C     C_R   0.499455 0.128515 0.495965 -0.202390
C11   C     C_R   0.485104 0.057841 0.372842 0.443776
C12   C     C_R   0.339974 0.500095 0.499520 0.840391
C13   C     C_R   0.496423 0.931078 0.374633 -0.349051
C14   C     C_R   0.507096 0.870806 0.500673 -0.153691
C15   C     C_R   0.520569 0.941189 0.622219 0.154988
C16   C     C_3   0.473419 0.936481 0.756217 -0.494456
C17   C     C_3   0.469863 0.074444 0.751703 -0.400786
C18   C     C_R   0.567801 0.546179 0.075128 0.130461
C19   C     C_R   0.438682 0.438005 0.071453 0.406489
C20   C     C_R   0.439401 0.436277 0.923438 0.385232
C21   C     C_R   0.568688 0.544113 0.928646 0.091703
C22   C     C_3   0.609930 0.668539 0.924821 0.144631
C23   C     C_R   0.501880 0.737431 0.501054 0.805250
C24   C     C_3   0.605970 0.672600 0.084148 0.221624
C25   C     C_R   0.660010 0.500376 0.500469 0.823981
C26   C     C_3   0.969638 0.388947 0.531190 -0.196939
C27   C     C_3   0.025403 0.419985 0.403864 -0.180747
C28   C     C_1   0.250192 0.500864 0.498504 -0.089035
C29   C     C_1   0.749771 0.500729 0.501396 -0.091970
C30   C     C_3   0.028028 0.471727 0.624335 0.436140
Cu1   Cu    Cu3+1 0.500000 0.499980 0.640670 1.024634
Cu2   Cu    Cu3+1 0.500000 0.500020 0.359330 1.032052
H1    H     H_    0.047636 0.352997 0.324902 0.179210
H2    H     H_    0.512516 0.908149 0.845010 0.190700
H3    H     H_    0.404573 0.106469 0.736740 0.240236
H4    H     H_    0.506894 0.122421 0.836333 0.223845
H5    H     H_    0.569590 0.734764 0.873490 0.078445
H6    H     H_    0.560579 0.739399 0.127073 0.023767
H7    H     H_    0.943831 0.296576 0.557915 0.164871
H8    H     H_    0.946223 0.557774 0.270097 0.172653
H9    H     H_    0.055949 0.707143 0.442306 0.162156
H10   H     H_    0.952035 0.650699 0.675291 0.182751
H11   H     H_    0.487075 0.879364 0.278186 0.176114
H12   H     H_    0.410430 0.888983 0.746050 0.207479
N1    N     N_R   0.500530 0.500930 0.147930 -0.273360
N2    N     N_R   0.500530 0.500890 0.852020 -0.268769
O1    O     O_R   0.500000 0.319640 0.618810 -0.555366
O2    O     O_R   0.500010 0.319680 0.381230 -0.512616
O3    O     O_R   0.379070 0.499970 0.618770 -0.524832
O4    O     O_R   0.379080 0.500010 0.381190 -0.533518
O5    O     O_R   0.499990 0.680320 0.618770 -0.583032
O6    O     O_R   0.500000 0.680360 0.381190 -0.599961
O7    O     O_R   0.620920 0.499990 0.618810 -0.536874
O8    O     O_R   0.620930 0.500030 0.381230 -0.553007
Cl1   Cl    Cl    0.355705 0.357561 0.152645 -0.547377
Cl2   Cl    Cl    0.362052 0.344202 0.834834 -0.555866
Cl3   Cl    Cl    0.714083 0.663103 0.854676 -0.560107
O9    O     O_3   0.685844 0.671435 0.150550 -0.501652
C31   C     C_3   0.709728 0.791601 0.195420 0.126895
H13   H     H_    0.666934 0.823511 0.279128 0.131536
H14   H     H_    0.708429 0.856559 0.107324 0.158613
C32   C     C_3   0.799196 0.791885 0.253974 -0.737403
H15   H     H_    0.843418 0.759462 0.173070 0.265799
H16   H     H_    0.819028 0.886390 0.288156 0.197418
H17   H     H_    0.801975 0.730603 0.344675 0.239540
Cl4   Cl    Cl    0.066830 0.431385 0.791140 -0.555765
O10   O     O_3   0.454593 0.110258 0.253253 -0.547361
C33   C     C_3   0.371314 0.063602 0.223581 0.111771
H18   H     H_    0.325204 0.132582 0.256504 0.207630
H19   H     H_    0.352232 0.977682 0.277977 0.104918
C34   C     C_3   0.361923 0.037799 0.068257 -0.714040
H20   H     H_    0.404260 0.963112 0.036862 0.215341
H21   H     H_    0.295676 0.008810 0.042912 0.215014
H22   H     H_    0.378732 0.121396 0.009432 0.301594

loop_
_geom_bond_atom_site_label_1
_geom_bond_atom_site_label_2
_ccdc_geom_bond_type
C3    H10   S    
C18   C21   A    
Cu2   N1    S    
C19   C20   A    
C20   Cl2   S    
C22   Cl3   S    
C12   O3    A    
C27   H1    S    
C26   C27   S    
C12   C28   S    
C18   C24   S    
C8    C29   T    
C25   O7    A    
C5    C6    S    
C26   H7    S    
C15   C16   S    
Cu2   O6    S    
C32   H16   S    
C2    C7    S    
C16   H2    S    
C33   H18   S    
Cu1   Cu2   S    
C12   O4    A    
Cu1   N2    S    
C24   H6    S    
C2    C27   S    
C17   H4    S    
C9    C10   A    
C16   H12   S    
C4    C8    S    
C31   H13   S    
Cu1   O1    S    
C21   C22   S    
Cu2   O2    S    
Cu1   O3    S    
Cu2   O8    S    
C11   O10   S    
C25   C29   S    
C31   H14   S    
O10   C33   S    
C25   O8    A    
C4    C6    S    
C34   H21   S    
C1    O1    A    
O9    C31   S    
C22   H5    S    
C7    C28   T    
C14   C23   S    
C3    C30   S    
C32   H15   S    
C23   O5    A    
C6    C27   S    
Cu1   O7    S    
Cu2   O4    S    
C30   Cl4   S    
C9    C17   S    
C26   C30   S    
C6    H8    S    
C2    C5    S    
C3    C4    S    
C18   N1    A    
C13   H11   S    
C21   N2    A    
C19   Cl1   S    
C5    H9    S    
C31   C32   S    
C32   H17   S    
C1    C10   S    
Cu1   O5    S    
C3    C5    S    
C34   H22   S    
C4    C26   S    
C19   N1    A    
C1    O2    A    
C2    C30   S    
C9    C15   A    
C34   H20   S    
C11   C13   A    
C23   O6    A    
C16   C17   S    
C33   C34   S    
C22   C24   S    
C10   C11   A    
C24   O9    S    
C33   H19   S    
C14   C15   A    
C17   H3    S    
C13   C14   A    
C20   N2    A    
