data_mof_unit_4972.cif
_audit_creation_date              2012-12-11T14:04:06-0500
_audit_creation_method            fapswitch 2.2
_symmetry_space_group_name_H-M    P1
_symmetry_Int_Tables_number       1
_space_group_crystal_system       triclinic
_cell_length_a                    18.954251
_cell_length_b                    11.001874
_cell_length_c                    18.743602
_cell_angle_alpha                 89.934857
_cell_angle_beta                  89.969745
_cell_angle_gamma                 89.615747
_cell_volume                      3908.55512962

loop_
_atom_site_label
_atom_site_type_symbol
_atom_type_description
_atom_site_fract_x
_atom_site_fract_y
_atom_site_fract_z
_atom_type_partial_charge
C1    C     C_R   0.224009 0.525853 0.639665 0.563082
C2    C     C_R   0.761415 0.469090 0.354108 0.561586
C3    C     C_R   0.724010 0.025857 0.639667 0.563099
C4    C     C_R   0.261415 0.969086 0.354107 0.561597
C5    C     C_2   0.270621 0.798121 0.528505 -0.145543
C6    C     C_2   0.701038 0.987811 0.440127 -0.162509
C7    C     C_2   0.770620 0.298137 0.528507 -0.145481
C8    C     C_2   0.201024 0.487821 0.440122 -0.161947
C9    C     C_R   0.968388 0.661892 0.439896 -0.005912
C10   C     C_R   0.972848 0.656811 0.589626 -0.012100
C11   C     C_R   0.468365 0.161864 0.439911 -0.005973
C12   C     C_R   0.472833 0.156836 0.589643 -0.012169
C13   C     C_R   0.942297 0.888197 0.449701 -0.051866
C14   C     C_R   0.937939 0.867589 0.597703 -0.042732
C15   C     C_R   0.442227 0.388162 0.449706 -0.051942
C16   C     C_R   0.437934 0.367604 0.597710 -0.042758
C17   C     C_R   0.923556 0.987829 0.491677 -0.113717
C18   C     C_R   0.920100 0.976519 0.565248 -0.086073
C19   C     C_R   0.423426 0.487766 0.491674 -0.114421
C20   C     C_R   0.420034 0.476494 0.565250 -0.086387
C21   C     C_R   0.955509 0.765616 0.556186 0.047614
C22   C     C_R   0.954320 0.771391 0.480324 0.042924
C23   C     C_R   0.455503 0.265629 0.556196 0.047655
C24   C     C_R   0.454296 0.271377 0.480334 0.042943
C25   C     C_R   0.965556 0.548437 0.550817 -0.010022
C26   C     C_R   0.980515 0.550942 0.478080 -0.032957
C27   C     C_R   0.465481 0.048463 0.550858 -0.010039
C28   C     C_R   0.480432 0.050899 0.478116 -0.032956
C29   C     C_R   0.956970 0.436386 0.585581 -0.080140
C30   C     C_R   0.008424 0.442597 0.447512 -0.088964
C31   C     C_R   0.456821 0.936468 0.585655 -0.079970
C32   C     C_R   0.508254 0.942462 0.447568 -0.088781
C33   C     C_R   0.983411 0.329712 0.555502 0.151565
C34   C     C_R   0.009241 0.331162 0.485066 0.182188
C35   C     C_R   0.483143 0.829703 0.555589 0.151474
C36   C     C_R   0.508974 0.831042 0.485145 0.181971
C37   C     C_2   0.238794 0.896439 0.929052 -0.103630
C38   C     C_2   0.741882 0.937818 0.086308 -0.106668
C39   C     C_2   0.738794 0.396439 0.929052 -0.103628
C40   C     C_2   0.241882 0.437818 0.086308 -0.106675
C41   C     C_2   0.247913 0.895746 0.085492 -0.108511
C42   C     C_2   0.727683 0.988208 0.933478 -0.098945
C43   C     C_2   0.747913 0.395746 0.085492 -0.108521
C44   C     C_2   0.227683 0.488208 0.933478 -0.098946
C45   C     C_R   0.206818 0.823960 0.641681 0.590232
C46   C     C_R   0.770947 0.876807 0.351021 0.550409
C47   C     C_R   0.706817 0.323960 0.641681 0.590233
C48   C     C_R   0.270941 0.376810 0.351018 0.550306
C49   C     C_2   0.188311 0.914321 0.049396 -0.158664
C50   C     C_2   0.763015 0.060223 0.978422 -0.163168
C51   C     C_2   0.688311 0.414321 0.049396 -0.158658
C52   C     C_2   0.263015 0.560223 0.978422 -0.163169
C53   C     C_2   0.183329 0.888413 0.973728 -0.154557
C54   C     C_2   0.778387 0.024097 0.052107 -0.153347
C55   C     C_2   0.683329 0.388413 0.973728 -0.154556
C56   C     C_2   0.278387 0.524096 0.052107 -0.153342
C57   C     C_2   0.989755 0.664910 0.916285 -0.105037
C58   C     C_2   0.988964 0.655420 0.073275 -0.095625
C59   C     C_2   0.489755 0.164910 0.916285 -0.105045
C60   C     C_2   0.488963 0.155420 0.073275 -0.095625
C61   C     C_2   0.960737 0.571168 0.029881 -0.151939
C62   C     C_2   0.975010 0.565628 0.954032 -0.165245
C63   C     C_2   0.460736 0.071168 0.029881 -0.151937
C64   C     C_2   0.475010 0.065628 0.954032 -0.165245
C65   C     C_R   0.022020 0.654259 0.651420 0.527234
C66   C     C_R   0.948623 0.652579 0.363157 0.566431
C67   C     C_R   0.522019 0.154263 0.651423 0.527224
C68   C     C_R   0.448660 0.152578 0.363150 0.566361
C69   C     C_R   0.224126 0.518408 0.858387 0.577472
C70   C     C_R   0.760582 0.462953 0.150510 0.556069
C71   C     C_R   0.724126 0.018408 0.858387 0.577462
C72   C     C_R   0.260582 0.962953 0.150510 0.556028
C73   C     C_R   0.226044 0.870358 0.854628 0.558647
C74   C     C_R   0.771264 0.876619 0.148512 0.554564
C75   C     C_R   0.726044 0.370358 0.854628 0.558660
C76   C     C_R   0.271264 0.376619 0.148512 0.554528
C77   C     C_R   0.027829 0.652983 0.849750 0.544118
C78   C     C_R   0.968556 0.651501 0.147633 0.559564
C79   C     C_R   0.527829 0.152983 0.849749 0.544100
C80   C     C_R   0.468555 0.151501 0.147633 0.559540
C81   C     C_2   0.211588 0.830421 0.564385 0.061858
C82   C     C_2   0.749478 0.902035 0.423786 0.072187
C83   C     C_2   0.711584 0.330427 0.564385 0.061935
C84   C     C_2   0.249451 0.402023 0.423779 0.072852
C85   C     C_2   0.253634 0.928549 0.426356 -0.055394
C86   C     C_2   0.732155 0.010247 0.563395 -0.086343
C87   C     C_2   0.753634 0.428562 0.426358 -0.055450
C88   C     C_2   0.232149 0.510215 0.563395 -0.086540
C89   C     C_2   0.279552 0.824367 0.452141 -0.143544
C90   C     C_2   0.680439 0.008093 0.515306 -0.130345
C91   C     C_2   0.779551 0.324380 0.452144 -0.143489
C92   C     C_2   0.180434 0.508125 0.515304 -0.130262
Cr1   Cr    Cr6+3 0.113970 0.508630 0.747920 0.998366
Cr2   Cr    Cr6+3 0.886030 0.508630 0.252080 1.013662
Cr3   Cr    Cr6+3 0.613970 0.008630 0.747920 0.998464
Cr4   Cr    Cr6+3 0.386030 0.008630 0.252080 1.013975
Cr5   Cr    Cr6+3 0.269200 0.666740 0.749850 0.989006
Cr6   Cr    Cr6+3 0.730800 0.666740 0.250150 1.011646
Cr7   Cr    Cr6+3 0.769200 0.166740 0.749850 0.989035
Cr8   Cr    Cr6+3 0.230800 0.166740 0.250150 1.011711
Cr9   Cr    Cr6+3 0.112300 0.820070 0.749800 1.009332
Cr10  Cr    Cr6+3 0.887700 0.820070 0.250200 1.013102
Cr11  Cr    Cr6+3 0.612300 0.320070 0.749800 1.009328
Cr12  Cr    Cr6+3 0.387700 0.320070 0.250200 1.013244
H1    H     H_    0.310752 0.763565 0.418936 0.134842
H2    H     H_    0.626066 0.025510 0.530282 0.155019
H3    H     H_    0.810752 0.263578 0.418940 0.134734
H4    H     H_    0.126073 0.525637 0.530280 0.155012
H5    H     H_    0.130590 0.871028 0.953485 0.150901
H6    H     H_    0.825451 0.062520 0.075961 0.151376
H7    H     H_    0.630590 0.371027 0.953485 0.150902
H8    H     H_    0.325451 0.562520 0.075961 0.151397
H9    H     H_    0.291434 0.844398 0.062371 0.093067
H10   H     H_    0.702748 0.904804 0.950763 0.110826
H11   H     H_    0.791434 0.344398 0.062371 0.093058
H12   H     H_    0.202749 0.404803 0.950763 0.110821
H13   H     H_    0.292173 0.912822 0.947470 0.088774
H14   H     H_    0.692360 0.904023 0.065537 0.104325
H15   H     H_    0.792173 0.412822 0.947470 0.088775
H16   H     H_    0.192360 0.404023 0.065537 0.104317
H17   H     H_    0.928694 0.497862 0.051068 0.152624
H18   H     H_    0.977986 0.475630 0.930339 0.154190
H19   H     H_    0.428693 0.997863 0.051068 0.152626
H20   H     H_    0.477985 0.975630 0.930339 0.154194
H21   H     H_    0.020759 0.730001 0.053577 0.087742
H22   H     H_    0.983186 0.755150 0.938948 0.107034
H23   H     H_    0.520759 0.230000 0.053577 0.087751
H24   H     H_    0.483185 0.255150 0.938948 0.107038
H25   H     H_    0.315367 0.758055 0.556282 0.130472
H26   H     H_    0.678439 0.045442 0.398858 0.117397
H27   H     H_    0.815369 0.258081 0.556284 0.130357
H28   H     H_    0.178449 0.545483 0.398856 0.117183
H29   H     H_    0.229616 0.994530 0.461682 0.177664
H30   H     H_    0.785840 0.008633 0.543787 0.139926
H31   H     H_    0.729615 0.494547 0.461682 0.177585
H32   H     H_    0.285828 0.508529 0.543789 0.139903
H33   H     H_    0.911694 0.074526 0.466904 0.136297
H34   H     H_    0.902301 0.051696 0.597326 0.143567
H35   H     H_    0.411479 0.574422 0.466892 0.136262
H36   H     H_    0.402220 0.551663 0.597325 0.143931
H37   H     H_    0.949942 0.909490 0.394577 0.175238
H38   H     H_    0.934932 0.861582 0.655324 0.128452
H39   H     H_    0.449857 0.409463 0.394583 0.175442
H40   H     H_    0.434954 0.361615 0.655333 0.128454
H41   H     H_    0.035258 0.446260 0.396998 0.148355
H42   H     H_    0.938412 0.434379 0.640325 0.135668
H43   H     H_    0.535087 0.946027 0.397048 0.148413
H44   H     H_    0.438290 0.934554 0.640411 0.135659
H45   H     H_    0.143202 0.959170 0.073966 0.153599
H46   H     H_    0.788552 0.141593 0.958410 0.140188
H47   H     H_    0.643202 0.459170 0.073966 0.153618
H48   H     H_    0.288552 0.641593 0.958410 0.140191
O1    O     O_R   0.043230 0.549300 0.667990 -0.539010
O2    O     O_R   0.956770 0.549300 0.332010 -0.529089
O3    O     O_R   0.543230 0.049300 0.667990 -0.538974
O4    O     O_R   0.456770 0.049300 0.332010 -0.528987
O5    O     O_R   0.262920 0.788600 0.824420 -0.514120
O6    O     O_R   0.737080 0.788600 0.175580 -0.499070
O7    O     O_R   0.762920 0.288600 0.824420 -0.514117
O8    O     O_R   0.237080 0.288600 0.175580 -0.499155
O9    O     O_R   0.167530 0.905110 0.830340 -0.504008
O10   O     O_R   0.832470 0.905110 0.169660 -0.514009
O11   O     O_R   0.667530 0.405110 0.830340 -0.503995
O12   O     O_R   0.332470 0.405110 0.169660 -0.513970
O13   O     O_R   0.054010 0.748440 0.822860 -0.508706
O14   O     O_R   0.945990 0.748440 0.177140 -0.488733
O15   O     O_R   0.554010 0.248440 0.822860 -0.508716
O16   O     O_R   0.445990 0.248440 0.177140 -0.488724
O17   O     O_3   0.165160 0.665150 0.749190 -0.313871
O18   O     O_3   0.834840 0.665150 0.250810 -0.249720
O19   O     O_3   0.665160 0.165150 0.749190 -0.313900
O20   O     O_3   0.334840 0.165150 0.250810 -0.249780
O21   O     O_R   0.178620 0.457600 0.674100 -0.470153
O22   O     O_R   0.821380 0.457600 0.325900 -0.502120
O23   O     O_R   0.678620 0.957600 0.674100 -0.470067
O24   O     O_R   0.321380 0.957600 0.325900 -0.502078
O25   O     O_R   0.284680 0.542100 0.669460 -0.534905
O26   O     O_R   0.715320 0.542100 0.330540 -0.509829
O27   O     O_R   0.784680 0.042100 0.669460 -0.534895
O28   O     O_R   0.215320 0.042100 0.330540 -0.509414
O29   O     O_R   0.262860 0.790390 0.676650 -0.531127
O30   O     O_R   0.737140 0.790390 0.323350 -0.500649
O31   O     O_R   0.762860 0.290390 0.676650 -0.531112
O32   O     O_R   0.237140 0.290390 0.323350 -0.500486
O33   O     O_R   0.167460 0.907030 0.670940 -0.473984
O34   O     O_R   0.832540 0.907030 0.329060 -0.531051
O35   O     O_R   0.667460 0.407030 0.670940 -0.473923
O36   O     O_R   0.332540 0.407030 0.329060 -0.531129
O37   O     O_R   0.053950 0.750220 0.675100 -0.501175
O38   O     O_R   0.946050 0.750220 0.324900 -0.514444
O39   O     O_R   0.553950 0.250220 0.675100 -0.501198
O40   O     O_R   0.446050 0.250220 0.324900 -0.514449
O41   O     O_R   0.043300 0.547370 0.827390 -0.522802
O42   O     O_R   0.956700 0.547370 0.172610 -0.515752
O43   O     O_R   0.543300 0.047370 0.827390 -0.522798
O44   O     O_R   0.456700 0.047370 0.172610 -0.515716
O45   O     O_R   0.178690 0.455820 0.821860 -0.486625
O46   O     O_R   0.821310 0.455820 0.178140 -0.507873
O47   O     O_R   0.678690 0.955820 0.821860 -0.486605
O48   O     O_R   0.321310 0.955820 0.178140 -0.507856
O49   O     O_R   0.284750 0.540170 0.828860 -0.497091
O50   O     O_R   0.715250 0.540170 0.171140 -0.511481
O51   O     O_R   0.784750 0.040170 0.828860 -0.497092
O52   O     O_R   0.215250 0.040170 0.171140 -0.511560
I1    I     I_    0.114731 0.878473 0.514261 -0.455757
I2    I     I_    0.769683 0.751438 0.493852 -0.418511
I3    I     I_    0.614724 0.378490 0.514260 -0.456062
I4    I     I_    0.269598 0.251392 0.493830 -0.417862
N1    N     N_2   0.990580 0.224992 0.599412 -0.548551
H49   H     H_    0.952329 0.220302 0.638493 0.231715
C93   C     C_3   0.060159 0.209205 0.630090 -0.265338
H50   H     H_    0.063165 0.119874 0.657590 0.167591
H51   H     H_    0.070486 0.282127 0.669634 0.166294
H52   H     H_    0.101734 0.211477 0.588340 0.199447
N2    N     N_2   0.032285 0.219913 0.452388 -0.525744
H53   H     H_    0.045420 0.148119 0.485143 0.303876
C94   C     C_3   0.066892 0.220448 0.383635 -0.287915
H54   H     H_    0.080351 0.125814 0.367907 0.174538
H55   H     H_    0.116147 0.273773 0.386646 0.186202
H56   H     H_    0.031101 0.258603 0.342286 0.135524
N3    N     N_2   0.490259 0.725020 0.599543 -0.549050
H57   H     H_    0.452070 0.720492 0.638696 0.231867
C95   C     C_3   0.559892 0.708965 0.630065 -0.265441
H58   H     H_    0.562803 0.619719 0.657671 0.167415
H59   H     H_    0.570454 0.781983 0.669489 0.166439
H60   H     H_    0.601366 0.710843 0.588201 0.199595
N4    N     N_2   0.531829 0.719681 0.452445 -0.526315
H61   H     H_    0.544325 0.647601 0.485260 0.303652
C96   C     C_3   0.567820 0.720482 0.384396 -0.287393
H62   H     H_    0.581396 0.625850 0.368727 0.175325
H63   H     H_    0.617130 0.773486 0.388562 0.186885
H64   H     H_    0.532938 0.759078 0.342366 0.135327

loop_
_geom_bond_atom_site_label_1
_geom_bond_atom_site_label_2
_ccdc_geom_bond_type
Cr6   O6    S    
C70   O50   A    
C67   O39   A    
C7    C83   D    
C14   H38   S    
C15   C19   A    
C69   O49   A    
C46   O30   A    
C6    C82   D    
C87   C91   D    
Cr8   O20   S    
C14   C18   A    
C35   C36   A    
C62   H18   S    
C6    H26   S    
C30   C34   A    
C45   O33   A    
C95   H60   S    
C79   O43   A    
C57   C62   D    
C32   H43   S    
C11   C68   S    
C94   H56   S    
C71   O51   A    
C12   C23   A    
Cr1   O17   S    
C59   C64   D    
C50   C54   S    
C60   C63   D    
C32   C36   A    
C14   C21   A    
C61   H17   S    
C17   H33   S    
C16   H40   S    
C48   O36   A    
C96   H64   S    
Cr7   O7    S    
C34   N2    S    
C35   N3    S    
C3    O27   A    
C9    C22   A    
Cr7   O19   S    
C68   O40   A    
C77   O13   A    
Cr12  O40   S    
C73   O5    A    
C11   C24   A    
Cr5   O17   S    
C54   H6    S    
C75   O11   A    
C78   O42   A    
Cr1   O21   S    
C18   H34   S    
N4    H61   S    
Cr3   O23   S    
C9    C66   S    
C42   C71   S    
C65   O1    A    
C43   H11   S    
C46   C82   S    
C33   N1    S    
C86   H30   S    
C39   C55   D    
C88   C92   D    
C29   C33   A    
C40   C56   D    
C17   C18   A    
C8    H28   S    
C83   I3    S    
C23   C24   A    
C29   H42   S    
Cr9   O17   S    
C8    C92   S    
C39   C75   S    
Cr6   O26   S    
Cr7   O31   S    
N2    C94   S    
C52   H48   S    
C72   O52   A    
Cr12  O20   S    
C37   C53   D    
C36   N4    S    
C44   C52   D    
C1    C88   S    
C5    H25   S    
C51   H47   S    
C70   O46   A    
C8    C84   D    
C21   C22   A    
C3    C86   S    
C69   O45   A    
C61   C62   S    
C1    O25   A    
C4    O28   A    
Cr9   O33   S    
C41   C49   D    
C48   O32   A    
C92   H4    S    
C9    C26   A    
C33   C34   A    
Cr10  O38   S    
Cr2   O22   S    
C10   C21   A    
C25   C29   A    
Cr12  O36   S    
C12   C67   S    
C45   C81   S    
C78   O14   A    
C42   H10   S    
C74   O6    A    
C12   C27   A    
C45   O29   A    
Cr5   O29   S    
C11   C28   A    
C87   H31   S    
C28   C32   A    
Cr11  O35   S    
C90   H2    S    
C95   H58   S    
C47   O31   A    
C86   C90   D    
C59   C79   S    
C57   H22   S    
C74   O10   A    
C85   C89   D    
C4    C85   S    
C25   C26   A    
C64   H20   S    
C27   C31   A    
C40   C76   S    
Cr5   O25   S    
Cr2   O46   S    
Cr5   O5    S    
Cr6   O30   S    
Cr1   O45   S    
N2    H53   S    
Cr7   O27   S    
C96   H62   S    
C57   C77   S    
C72   O48   A    
N3    H57   S    
C5    C81   D    
C84   I4    S    
C73   O9    A    
C93   H50   S    
C38   C54   D    
C16   C20   A    
C1    O21   A    
C59   H24   S    
N1    H49   S    
C2    C87   S    
Cr10  O34   S    
Cr11  O15   S    
C46   O34   A    
Cr9   O13   S    
C88   H32   S    
C42   C50   D    
C41   C72   S    
C15   H39   S    
C31   H44   S    
C10   C25   A    
C3    O23   A    
C15   C24   A    
C93   H51   S    
C65   O37   A    
C26   C30   A    
C16   C23   A    
C47   C83   S    
C4    O24   A    
C40   H16   S    
C96   H63   S    
C31   C35   A    
C76   O12   A    
C55   H7    S    
Cr11  O39   S    
C66   O2    A    
C47   O35   A    
Cr8   O28   S    
C7    C91   S    
C82   I2    S    
Cr10  O10   S    
C30   H41   S    
C81   I1    S    
C38   C74   S    
C10   C65   S    
C75   O7    A    
Cr4   O48   S    
C37   C73   S    
C60   C80   S    
Cr3   O43   S    
Cr4   O24   S    
N4    C96   S    
C77   O41   A    
Cr2   O42   S    
Cr11  O11   S    
C13   H37   S    
Cr6   O50   S    
C60   H23   S    
Cr1   O41   S    
C41   H9    S    
Cr8   O8    S    
C68   O4    A    
Cr12  O12   S    
C63   H19   S    
Cr12  O16   S    
C95   H59   S    
C71   O47   A    
C67   O3    A    
C49   H45   S    
C43   C70   S    
Cr9   O37   S    
C13   C17   A    
C80   O44   A    
C89   H1    S    
C20   H36   S    
C19   C20   A    
Cr9   O9    S    
C94   H54   S    
C7    H27   S    
N3    C95   S    
C6    C90   S    
C2    O22   A    
Cr2   O2    S    
Cr8   O52   S    
Cr11  O19   S    
C43   C51   D    
Cr4   O4    S    
C76   O8    A    
Cr10  O18   S    
C58   C61   D    
C39   H15   S    
C66   O38   A    
Cr1   O1    S    
C50   H46   S    
N1    C93   S    
C56   H8    S    
C13   C22   A    
C51   C55   S    
Cr3   O3    S    
C94   H55   S    
Cr8   O32   S    
C5    C89   S    
C49   C53   S    
C58   C78   S    
C63   C64   S    
Cr6   O18   S    
C48   C84   S    
Cr4   O44   S    
C93   H52   S    
C37   H13   S    
C44   H12   S    
C58   H21   S    
Cr10  O14   S    
Cr5   O49   S    
Cr4   O20   S    
Cr7   O51   S    
C27   C28   A    
C44   C69   S    
C38   H14   S    
C53   H5    S    
C2    O26   A    
C79   O15   A    
Cr3   O47   S    
Cr3   O19   S    
C80   O16   A    
C19   H35   S    
Cr2   O18   S    
C52   C56   S    
C85   H29   S    
C91   H3    S    
