data_mof_unit_1056.cif
_audit_creation_date              2012-12-10T20:52:13-0500
_audit_creation_method            fapswitch 2.2
_symmetry_space_group_name_H-M    P1
_symmetry_Int_Tables_number       1
_space_group_crystal_system       triclinic
_cell_length_a                    10.901602
_cell_length_b                    8.888815
_cell_length_c                    8.371421
_cell_angle_alpha                 89.762425
_cell_angle_beta                  94.383414
_cell_angle_gamma                 90.328558
_cell_volume                      808.818397152

loop_
_atom_site_label
_atom_site_type_symbol
_atom_type_description
_atom_site_fract_x
_atom_site_fract_y
_atom_site_fract_z
_atom_type_partial_charge
C1    C     C_R   0.499853 0.219186 0.500169 0.924535
C2    C     C_R   0.740220 0.493969 0.504927 0.855569
C3    C     C_R   0.168826 0.654654 0.032511 -0.164545
C4    C     C_R   0.831174 0.345347 0.967489 -0.164545
C5    C     C_R   0.093199 0.619325 0.151289 -0.103376
C6    C     C_R   0.906801 0.380675 0.848711 -0.103376
C7    C     C_R   0.086135 0.470196 0.204357 0.101237
C8    C     C_R   0.913865 0.529804 0.795643 0.101238
C9    C     C_R   0.140394 0.353311 0.125884 -0.110971
C10   C     C_R   0.859605 0.646690 0.874115 -0.110972
C11   C     C_R   0.213996 0.387644 0.001608 0.060111
C12   C     C_R   0.500147 0.780814 0.499831 0.924535
C13   C     C_R   0.786004 0.612356 0.998392 0.060111
C14   C     C_R   0.232371 0.540450 0.963437 -0.201938
C15   C     C_R   0.767629 0.459550 0.036562 -0.201937
C16   C     C_R   0.927631 0.426319 0.381183 -0.242959
C17   C     C_R   0.072369 0.573681 0.618817 -0.242959
C18   C     C_2   0.275792 0.265822 0.919608 0.368201
C19   C     C_2   0.724207 0.734178 0.080391 0.368201
C20   C     C_R   0.874090 0.486997 0.510916 -0.084005
C21   C     C_R   0.125910 0.513003 0.489084 -0.084006
C22   C     C_R   0.949202 0.550814 0.635731 -0.000501
C23   C     C_R   0.050798 0.449186 0.364269 -0.000502
C24   C     C_1   0.499943 0.065540 0.500283 -0.158052
C25   C     C_1   0.500057 0.934460 0.499717 -0.158052
C26   C     C_R   0.259781 0.506031 0.495072 0.855570
H1    H     H_    0.295193 0.577597 0.881474 0.191312
H2    H     H_    0.126937 0.633703 0.709688 0.166311
H3    H     H_    0.336515 0.291620 0.827750 0.141296
H4    H     H_    0.663485 0.708380 0.172250 0.141296
H5    H     H_    0.704806 0.422404 0.118526 0.191312
H6    H     H_    0.182074 0.770813 0.997992 0.177507
H7    H     H_    0.817926 0.229188 0.002008 0.177506
H8    H     H_    0.050073 0.709455 0.213113 0.142190
H9    H     H_    0.949927 0.290545 0.786887 0.142191
H10   H     H_    0.132942 0.238985 0.169796 0.159342
H11   H     H_    0.867057 0.761015 0.830203 0.159343
H12   H     H_    0.873063 0.366297 0.290312 0.166311
N1    N     N_1   0.500020 0.500030 0.073640 -0.092921
N2    N     N_1   0.499980 0.499970 0.926360 -0.092921
O1    O     O_R   0.499990 0.285340 0.636850 -0.624579
O2    O     O_2   0.740798 0.866085 0.046238 -0.591248
O3    O     O_R   0.500010 0.714660 0.363150 -0.624579
O4    O     O_R   0.500010 0.285350 0.363100 -0.602744
O5    O     O_R   0.499990 0.714650 0.636900 -0.602743
O6    O     O_R   0.316750 0.500000 0.636870 -0.680711
O7    O     O_R   0.683250 0.500000 0.363130 -0.680711
O8    O     O_R   0.316770 0.500020 0.363120 -0.593806
O9    O     O_R   0.683230 0.499980 0.636880 -0.593806
O10   O     O_2   0.259199 0.133915 0.953760 -0.591248
Zn1   Zn    Zn3+2 0.499990 0.499990 0.682780 0.964743
Zn2   Zn    Zn3+2 0.500010 0.500010 0.317220 0.964743

loop_
_geom_bond_atom_site_label_1
_geom_bond_atom_site_label_2
_ccdc_geom_bond_type
C9    H10   S    
C8    C22   S    
C21   C26   S    
C11   C18   S    
C15   H5    S    
O7    Zn2   S    
C2    O9    A    
C2    O7    A    
C16   C23   A    
N2    Zn1   S    
C1    O4    A    
C17   C22   A    
C19   O2    D    
C26   O8    A    
C12   C25   S    
C16   C20   A    
C5    H8    S    
O4    Zn2   S    
C4    C15   A    
C21   C23   A    
N1    Zn2   S    
C18   H3    S    
C6    H9    S    
C9    C11   A    
C3    C14   A    
C10   H11   S    
C7    C23   S    
C4    C6    A    
C20   C22   A    
C12   O3    A    
C5    C7    A    
C13   C15   A    
C3    H6    S    
C14   H1    S    
C11   C14   A    
O3    Zn2   S    
C26   O6    A    
C2    C20   S    
C3    C5    A    
O8    Zn2   S    
C24   C25   T    
C18   O10   D    
C1    C24   S    
C8    C10   A    
C1    O1    A    
N1    N2    T    
C7    C9    A    
O5    Zn1   S    
C4    H7    S    
C13   C19   S    
C6    C8    A    
C17   H2    S    
C19   H4    S    
O6    Zn1   S    
O1    Zn1   S    
C17   C21   A    
C16   H12   S    
C12   O5    A    
O9    Zn1   S    
C10   C13   A    
