data_mof_unit_2572.cif
_audit_creation_date              2012-12-10T17:42:10-0500
_audit_creation_method            fapswitch 2.2
_symmetry_space_group_name_H-M    P1
_symmetry_Int_Tables_number       1
_space_group_crystal_system       triclinic
_cell_length_a                    15.091969
_cell_length_b                    13.686332
_cell_length_c                    10.744013
_cell_angle_alpha                 90.423263
_cell_angle_beta                  89.597183
_cell_angle_gamma                 89.251702
_cell_volume                      2218.90943981

loop_
_atom_site_label
_atom_site_type_symbol
_atom_type_description
_atom_site_fract_x
_atom_site_fract_y
_atom_site_fract_z
_atom_type_partial_charge
C1    C     C_R   0.328733 0.500611 0.500049 0.814027
C2    C     C_3   0.589922 0.554195 0.931033 0.525111
C3    C     C_R   0.817241 0.417661 0.439353 0.207080
C4    C     C_R   0.768711 0.496816 0.493349 -0.137844
C5    C     C_R   0.813134 0.575346 0.547674 -0.297392
C6    C     C_R   0.905682 0.577296 0.551486 0.036407
C7    C     C_R   0.954321 0.499422 0.495364 -0.032528
C8    C     C_R   0.910344 0.420159 0.438431 0.099551
C9    C     C_R   0.951213 0.655926 0.607979 0.265809
C10   C     C_R   0.043794 0.656558 0.605793 -0.234863
C11   C     C_R   0.092067 0.579811 0.550450 0.048771
C12   C     C_R   0.500166 0.499503 0.259822 0.768808
C13   C     C_R   0.047465 0.500833 0.495306 0.075312
C14   C     C_R   0.096273 0.423108 0.439884 0.132140
C15   C     C_R   0.052511 0.346282 0.381835 -0.240931
C16   C     C_R   0.960607 0.345258 0.379807 -0.198631
C17   C     C_R   0.184583 0.580234 0.550362 -0.234197
C18   C     C_R   0.232471 0.501698 0.497854 -0.072481
C19   C     C_R   0.188378 0.423565 0.442711 -0.252964
C20   C     C_R   0.452784 0.794459 0.588982 -0.001932
C21   C     C_R   0.453348 0.207861 0.589550 0.004548
C22   C     C_R   0.547352 0.792114 0.411207 0.010569
C23   C     C_R   0.545801 0.205482 0.409716 -0.007802
C24   C     C_R   0.548169 0.895148 0.408758 -0.006125
C25   C     C_R   0.547347 0.102386 0.407969 -0.003618
C26   C     C_R   0.671564 0.499062 0.496661 0.804706
C27   C     C_R   0.500093 0.948149 0.500128 0.086472
C28   C     C_R   0.499963 0.051799 0.500003 0.089234
C29   C     C_R   0.452044 0.897559 0.591517 -0.001727
C30   C     C_R   0.452235 0.104813 0.591702 -0.006834
C31   C     C_R   0.595572 0.946213 0.317404 -0.202370
C32   C     C_R   0.594973 0.048916 0.316827 -0.216399
C33   C     C_R   0.404693 0.053746 0.682909 -0.206002
C34   C     C_R   0.404503 0.951041 0.682719 -0.204915
C35   C     C_R   0.501150 0.500571 0.740509 0.763385
C36   C     C_3   0.424002 0.563255 0.073245 -0.360227
C37   C     C_3   0.492185 0.393754 0.070407 -0.394604
C38   C     C_3   0.419920 0.558331 0.929971 -0.442140
C39   C     C_3   0.493257 0.395474 0.928200 -0.399002
C40   C     C_3   0.591603 0.538758 0.075364 -0.348610
C41   C     C_3   0.501765 0.498765 0.122299 0.074659
C42   C     C_3   0.503007 0.502331 0.878793 0.073954
Cu1   Cu    Cu3+1 0.499990 0.597420 0.500010 0.924388
Cu2   Cu    Cu3+1 0.499990 0.402580 0.500010 0.921635
H1    H     H_    0.433004 0.640553 0.102985 0.190604
H2    H     H_    0.547299 0.345948 0.103572 0.163779
H3    H     H_    0.078057 0.716904 0.649217 0.157221
H4    H     H_    0.219333 0.640515 0.593212 0.144092
H5    H     H_    0.225899 0.363653 0.400518 0.150796
H6    H     H_    0.089417 0.286998 0.337419 0.144620
H7    H     H_    0.929480 0.285115 0.331861 0.179957
H8    H     H_    0.415730 0.754464 0.658103 0.117971
H9    H     H_    0.416783 0.249633 0.659243 0.126006
H10   H     H_    0.584504 0.750320 0.342126 0.126894
H11   H     H_    0.581534 0.245416 0.339264 0.127035
H12   H     H_    0.632893 0.906751 0.246213 0.136368
H13   H     H_    0.631874 0.086507 0.245239 0.134315
H14   H     H_    0.367573 0.093210 0.754288 0.135173
H15   H     H_    0.367216 0.913467 0.753922 0.134852
H16   H     H_    0.359956 0.538377 0.113189 0.157263
H17   H     H_    0.428912 0.361758 0.103768 0.180942
H18   H     H_    0.358466 0.520294 0.901308 0.167381
H19   H     H_    0.429820 0.364354 0.894544 0.168299
H20   H     H_    0.414089 0.633370 0.891925 0.168843
H21   H     H_    0.544963 0.344738 0.892038 0.183874
H22   H     H_    0.604007 0.608796 0.125034 0.161059
H23   H     H_    0.646566 0.489749 0.104710 0.133817
H24   H     H_    0.774272 0.634749 0.587777 0.170932
N1    N     N_R   0.499930 0.743810 0.499950 -0.181256
N2    N     N_R   0.499930 0.256190 0.499950 -0.181772
O1    O     O_R   0.370250 0.582280 0.500040 -0.579655
O2    O     O_R   0.370250 0.417720 0.500040 -0.582094
O3    O     O_R   0.499970 0.582270 0.317700 -0.590883
O4    O     O_R   0.499970 0.417730 0.317700 -0.595353
O5    O     O_R   0.629730 0.582260 0.499980 -0.586098
O6    O     O_R   0.629730 0.417740 0.499980 -0.576523
O7    O     O_R   0.500000 0.582270 0.682320 -0.609958
O8    O     O_R   0.500000 0.417730 0.682320 -0.588173
N3    N     N_2   0.584830 0.660733 0.911730 -0.450632
H25   H     H_    0.549972 0.686026 0.836603 0.262768
C43   C     C_3   0.664067 0.717877 0.931577 -0.711461
H26   H     H_    0.644600 0.794656 0.953260 0.226789
H27   H     H_    0.705571 0.717211 0.845803 0.222074
H28   H     H_    0.704259 0.689373 0.009743 0.238303
N4    N     N_2   0.671347 0.517571 0.869233 -0.426571
H29   H     H_    0.682637 0.547028 0.782494 0.251908
C44   C     C_3   0.701783 0.416890 0.875778 -0.741545
H30   H     H_    0.775053 0.414905 0.866203 0.241715
H31   H     H_    0.674557 0.374261 0.796811 0.227594
H32   H     H_    0.684630 0.382021 0.965134 0.225437
N5    N     N_2   0.773999 0.337485 0.380947 -0.446715
H33   H     H_    0.718449 0.354473 0.329819 0.250149
C45   C     C_3   0.766451 0.250707 0.456622 -0.677454
H34   H     H_    0.742276 0.189398 0.398504 0.216196
H35   H     H_    0.719447 0.263610 0.535094 0.249300
H36   H     H_    0.831760 0.228809 0.495166 0.225100
N6    N     N_2   0.905991 0.734134 0.670410 -0.433432
H37   H     H_    0.853653 0.713843 0.726186 0.243827
C46   C     C_3   0.886760 0.817589 0.592978 -0.695913
H38   H     H_    0.856094 0.876792 0.650605 0.227308
H39   H     H_    0.839910 0.797265 0.518052 0.225328
H40   H     H_    0.948793 0.845619 0.550804 0.237174

loop_
_geom_bond_atom_site_label_1
_geom_bond_atom_site_label_2
_ccdc_geom_bond_type
Cu1   O3    S    
C44   H30   S    
C33   H14   S    
C12   O4    A    
C27   C29   A    
C17   H4    S    
C6    C9    A    
N6    H37   S    
C7    C8    A    
C22   H10   S    
N4    H29   S    
C25   C28   A    
C1    C18   S    
C45   H34   S    
C38   C42   S    
C5    C6    A    
C15   C16   A    
C2    N4    S    
C3    N5    S    
C18   C19   A    
C15   H6    S    
Cu2   O6    S    
C35   C42   S    
C2    N3    S    
C43   H27   S    
C46   H38   S    
C9    N6    S    
C40   H23   S    
C26   O6    A    
C24   C27   A    
Cu2   N2    S    
C13   C14   A    
C31   H12   S    
C9    C10   A    
C22   N1    A    
C25   C32   A    
C8    C16   A    
C40   H22   S    
C12   O3    A    
C39   H21   S    
C23   N2    A    
C36   C41   S    
C32   H13   S    
C5    H24   S    
N6    C46   S    
C33   C34   A    
C39   C42   S    
C38   H20   S    
C20   C29   A    
N4    C44   S    
Cu1   O5    S    
C37   C39   S    
C1    O2    A    
C3    C8    A    
N5    H33   S    
N3    C43   S    
C29   C34   A    
C35   O7    A    
C43   H26   S    
Cu1   Cu2   S    
C12   C41   S    
N5    C45   S    
C19   H5    S    
C4    C26   S    
C31   C32   A    
C17   C18   A    
C36   H1    S    
C1    O1    A    
Cu2   O4    S    
C40   C41   S    
C46   H39   S    
C45   H36   S    
C44   H31   S    
C34   H15   S    
C22   C24   A    
C20   N1    A    
C3    C4    A    
C10   H3    S    
C43   H28   S    
C11   C17   A    
C16   H7    S    
Cu1   O1    S    
C30   C33   A    
C14   C19   A    
C4    C5    A    
C36   H16   S    
C37   H17   S    
C23   H11   S    
C6    C7    A    
Cu1   O7    S    
C39   H19   S    
C21   C30   A    
C35   O8    A    
C21   N2    A    
C26   O5    A    
Cu2   O8    S    
C24   C31   A    
C20   H8    S    
C36   C38   S    
C21   H9    S    
C11   C13   A    
C2    C42   S    
C28   C30   A    
Cu2   O2    S    
C23   C25   A    
C37   C41   S    
C10   C11   A    
N3    H25   S    
C2    C40   S    
C7    C13   A    
C46   H40   S    
C45   H35   S    
C44   H32   S    
C27   C28   A    
C14   C15   A    
C37   H2    S    
Cu1   N1    S    
C38   H18   S    
