data_mof_unit_4647.cif
_audit_creation_date              2012-12-10T20:44:41-0500
_audit_creation_method            fapswitch 2.2
_symmetry_space_group_name_H-M    P1
_symmetry_Int_Tables_number       1
_space_group_crystal_system       triclinic
_cell_length_a                    9.861277
_cell_length_b                    10.693567
_cell_length_c                    16.869275
_cell_angle_alpha                 89.119301
_cell_angle_beta                  94.385008
_cell_angle_gamma                 89.005273
_cell_volume                      1773.17930882

loop_
_atom_site_label
_atom_site_type_symbol
_atom_type_description
_atom_site_fract_x
_atom_site_fract_y
_atom_site_fract_z
_atom_type_partial_charge
C1    C     C_R   0.500199 0.259634 0.496758 0.873284
C2    C     C_R   0.652342 0.496448 0.783286 -0.232821
C3    C     C_R   0.576450 0.415625 0.144653 -0.169745
C4    C     C_R   0.585218 0.435308 0.225528 -0.252638
C5    C     C_R   0.453968 0.443357 0.098786 0.331891
C6    C     C_R   0.472093 0.481789 0.261708 -0.020431
C7    C     C_R   0.348336 0.504269 0.216815 -0.220188
C8    C     C_R   0.339605 0.484660 0.135472 -0.194470
C9    C     C_R   0.614672 0.061170 0.467741 0.127325
C10   C     C_R   0.496765 0.128405 0.481574 -0.102330
C11   C     C_R   0.371388 0.067020 0.476562 -0.218741
C12   C     C_R   0.517645 0.496219 0.653220 0.862316
C13   C     C_R   0.369922 0.937675 0.476023 -0.232676
C14   C     C_R   0.493868 0.871046 0.480045 -0.113423
C15   C     C_R   0.613004 0.933317 0.466911 0.160838
C16   C     C_3   0.751873 0.919633 0.508105 -0.444637
C17   C     C_3   0.753615 0.060874 0.509509 -0.535329
C18   C     C_R   0.080795 0.451724 0.563290 0.165934
C19   C     C_R   0.063947 0.563460 0.443039 -0.276911
C20   C     C_R   0.917919 0.563409 0.442030 0.519207
C21   C     C_R   0.938306 0.452051 0.563623 0.118727
C22   C     C_3   0.942214 0.320156 0.594118 -0.058711
C23   C     C_R   0.498365 0.740003 0.496106 0.887659
C24   C     C_3   0.096341 0.321503 0.594943 -0.482666
C25   C     C_R   0.482401 0.498884 0.346882 0.866687
C26   C     C_R   0.528109 0.479835 0.738923 -0.029402
C27   C     C_R   0.413980 0.440830 0.776442 -0.230919
C28   C     C_R   0.422926 0.420701 0.857658 -0.165759
C29   C     C_R   0.546377 0.441411 0.902790 0.328406
C30   C     C_R   0.661248 0.476604 0.865049 -0.190704
H1    H     H_    0.680359 0.413279 0.259721 0.155749
H2    H     H_    0.273775 0.891057 0.479258 0.173405
H3    H     H_    0.751951 0.875836 0.568348 0.203180
H4    H     H_    0.826247 0.878477 0.469087 0.230521
H5    H     H_    0.753569 0.097789 0.570764 0.215503
H6    H     H_    0.829605 0.099974 0.471017 0.198936
H7    H     H_    0.114868 0.614026 0.398469 0.166408
H8    H     H_    0.896056 0.256951 0.549404 0.174079
H9    H     H_    0.150491 0.317344 0.655184 0.199833
H10   H     H_    0.665839 0.380615 0.118052 0.146711
H11   H     H_    0.137132 0.256286 0.551665 0.185861
H12   H     H_    0.756500 0.492449 0.899473 0.136852
H13   H     H_    0.741622 0.526220 0.755056 0.162694
H14   H     H_    0.259348 0.538370 0.244289 0.153244
H15   H     H_    0.332754 0.391091 0.885063 0.146939
H16   H     H_    0.244957 0.505374 0.100466 0.135886
H17   H     H_    0.317686 0.425293 0.743150 0.156512
H18   H     H_    0.275726 0.117194 0.479458 0.164936
N1    N     N_2   0.556550 0.436166 0.986419 -0.210408
N2    N     N_2   0.444114 0.438556 0.015300 -0.209876
N3    N     N_R   0.142860 0.499130 0.500540 -0.122071
N4    N     N_R   0.857210 0.499170 0.500530 -0.163107
O1    O     O_R   0.614690 0.316790 0.499990 -0.624080
O2    O     O_R   0.385350 0.316760 0.500000 -0.623138
O3    O     O_R   0.627460 0.498860 0.616130 -0.622234
O4    O     O_R   0.398120 0.498820 0.616130 -0.612203
O5    O     O_R   0.614650 0.683240 0.500000 -0.582520
O6    O     O_R   0.385310 0.683210 0.500010 -0.622707
O7    O     O_R   0.601880 0.501180 0.383870 -0.582936
O8    O     O_R   0.372540 0.501140 0.383870 -0.628737
Zn1   Zn    Zn3+2 0.653130 0.500020 0.499990 0.978085
Zn2   Zn    Zn3+2 0.346870 0.499980 0.500010 0.943018
O9    O     O_3   0.834053 0.635321 0.388392 -0.582376
C31   C     C_3   0.879300 0.640856 0.310803 0.087259
H19   H     H_    0.789782 0.626790 0.268099 0.179089
H20   H     H_    0.954192 0.566013 0.298021 0.102499
C32   C     C_3   0.933721 0.770422 0.293930 -0.890254
H21   H     H_    0.020385 0.792489 0.336938 0.243642
H22   H     H_    0.968345 0.774336 0.232854 0.221568
H23   H     H_    0.852071 0.842195 0.298680 0.263923
C33   C     C_3   0.889503 0.304964 0.676541 -0.854830
H24   H     H_    0.930090 0.378214 0.717453 0.238226
H25   H     H_    0.776819 0.310465 0.671641 0.259335
H26   H     H_    0.921171 0.211627 0.701910 0.237811

loop_
_geom_bond_atom_site_label_1
_geom_bond_atom_site_label_2
_ccdc_geom_bond_type
C14   C23   S    
O6    Zn2   S    
C23   O6    A    
C1    O2    A    
O5    Zn1   S    
C29   C30   A    
C17   H6    S    
C16   H3    S    
C33   H26   S    
C18   C21   A    
C19   H7    S    
C9    C10   A    
C22   C33   S    
C13   H2    S    
C19   C20   A    
C2    H13   S    
C2    C30   A    
C32   H23   S    
C25   O7    A    
C31   H19   S    
C3    C5    A    
C20   O9    S    
C11   H18   S    
C33   H24   S    
C20   N4    A    
C29   N1    S    
C13   C14   A    
O8    Zn2   S    
C24   H11   S    
C11   C13   A    
C31   H20   S    
C26   C27   A    
C12   O4    A    
N3    Zn2   S    
C18   C24   S    
O3    Zn1   S    
C9    C17   S    
C28   C29   A    
C25   O8    A    
C3    H10   S    
N1    N2    D    
C6    C7    A    
C22   C24   S    
N4    Zn1   S    
C9    C15   A    
C28   H15   S    
O4    Zn2   S    
C5    N2    S    
O7    Zn1   S    
C12   O3    A    
C16   C17   S    
C10   C11   A    
C1    C10   S    
C15   C16   S    
C6    C25   S    
C31   C32   S    
C19   N3    A    
C4    H1    S    
C7    C8    A    
C24   H9    S    
C17   H5    S    
C2    C26   A    
C4    C6    A    
C27   H17   S    
C27   C28   A    
C23   O5    A    
C5    C8    A    
C14   C15   A    
C30   H12   S    
C1    O1    A    
O2    Zn2   S    
C8    H16   S    
C16   H4    S    
C21   C22   S    
O1    Zn1   S    
C33   H25   S    
C7    H14   S    
C21   N4    A    
C18   N3    A    
C3    C4    A    
C32   H21   S    
C12   C26   S    
O9    C31   S    
C32   H22   S    
C22   H8    S    
