data_mof_unit_3389.cif
_audit_creation_date              2012-12-11T16:53:26-0500
_audit_creation_method            fapswitch 2.2
_symmetry_space_group_name_H-M    P1
_symmetry_Int_Tables_number       1
_space_group_crystal_system       triclinic
_cell_length_a                    14.787243
_cell_length_b                    14.830789
_cell_length_c                    16.928192
_cell_angle_alpha                 108.773413
_cell_angle_beta                  105.493832
_cell_angle_gamma                 107.856448
_cell_volume                      3057.59035811

loop_
_atom_site_label
_atom_site_type_symbol
_atom_type_description
_atom_site_fract_x
_atom_site_fract_y
_atom_site_fract_z
_atom_type_partial_charge
C1    C     C_R   0.084514 0.290464 0.085664 0.593486
C2    C     C_R   0.062205 0.553226 0.262581 -0.100822
C3    C     C_R   0.284569 0.778168 0.174106 0.746848
C4    C     C_R   0.937158 0.514612 0.744303 -0.080179
C5    C     C_R   0.695673 0.400500 0.990702 0.731553
C6    C     C_R   0.337768 0.770205 0.250360 -0.333780
C7    C     C_R   0.635823 0.431970 0.937611 -0.335667
C8    C     C_R   0.970422 0.544535 0.273420 -0.026661
C9    C     C_R   0.991311 0.819850 0.979861 -0.080872
C10   C     C_R   0.389664 0.456967 0.869146 -0.058142
C11   C     C_R   0.337943 0.401833 0.909055 0.059809
C12   C     C_R   0.027998 0.572247 0.740479 -0.110517
C13   C     C_R   0.364176 0.322436 0.922365 0.519059
C14   C     C_R   0.458522 0.322307 0.921796 -0.146467
C15   C     C_R   0.522747 0.396096 0.902011 0.175584
C16   C     C_R   0.766537 0.201922 0.814025 0.814312
C17   C     C_R   0.482081 0.454563 0.865980 -0.139849
C18   C     C_3   0.446825 0.435011 0.767929 0.679936
C19   C     C_3   0.347012 0.438003 0.771239 0.210528
C20   C     C_R   0.965240 0.600673 0.361700 -0.186530
C21   C     C_R   0.036938 0.603010 0.667264 -0.104497
C22   C     C_R   0.139628 0.657628 0.587000 -0.142783
C23   C     C_R   0.733880 0.194028 0.727369 -0.162059
C24   C     C_R   0.131539 0.631082 0.656880 0.831047
C25   C     C_R   0.948953 0.595656 0.602467 -0.081429
C26   C     C_R   0.953748 0.610491 0.525674 -0.121070
C27   C     C_R   0.050980 0.644241 0.519761 -0.124344
C28   C     C_R   0.252399 0.525492 0.942856 0.709071
C29   C     C_R   0.056401 0.654273 0.442156 0.438155
C30   C     C_R   0.870668 0.587490 0.371078 0.420397
C31   C     C_R   0.864621 0.592377 0.453951 0.410678
C32   C     C_R   0.670957 0.096518 0.645641 -0.297524
C33   C     C_R   0.439175 0.840613 0.324497 0.081464
C34   C     C_R   0.278744 0.447020 0.953520 -0.329887
C35   C     C_R   0.607881 0.988786 0.395122 0.561916
C36   C     C_R   0.519641 0.911381 0.316898 -0.162132
C37   C     C_R   0.448452 0.842440 0.408659 0.078697
C38   C     C_R   0.531374 0.919480 0.487330 -0.255223
C39   C     C_R   0.613147 0.996608 0.482846 -0.185637
C40   C     C_R   0.760161 0.295446 0.734797 0.466273
C41   C     C_R   0.690264 0.080928 0.566366 0.522459
C42   C     C_R   0.589858 0.019445 0.647529 0.782966
C43   C     C_R   0.526310 0.926784 0.570668 0.349057
C44   C     C_R   0.061273 0.113658 0.163545 -0.127477
C45   C     C_R   0.273117 0.680481 0.247965 0.648968
C46   C     C_R   0.985074 0.110706 0.090525 -0.076100
C47   C     C_R   0.889389 0.016542 0.045855 0.807386
C48   C     C_R   0.872188 0.938315 0.078231 -0.306984
C49   C     C_R   0.950239 0.946703 0.152516 0.138565
C50   C     C_R   0.043208 0.035560 0.191920 -0.112063
C51   C     C_3   0.148279 0.081137 0.263867 0.157675
C52   C     C_R   0.250119 0.433526 0.022166 0.746148
C53   C     C_3   0.171391 0.170579 0.234801 0.726438
C54   C     C_R   0.107078 0.606153 0.823950 0.658269
C55   C     C_R   0.915058 0.206142 0.006271 0.033331
C56   C     C_R   0.703394 0.498964 0.917369 0.731757
C57   C     C_R   0.998152 0.196022 0.058410 -0.107514
C58   C     C_R   0.889911 0.464729 0.189543 0.485362
C59   C     C_R   0.078600 0.806026 0.017526 0.352722
C60   C     C_R   0.909478 0.721367 0.941573 0.664176
Cl1   Cl    Cl    0.193004 0.355643 0.189973 -0.441099
Cl2   Cl    Cl    0.698085 0.079203 0.375654 -0.407519
Cl3   Cl    Cl    0.434260 0.827038 0.581282 -0.395882
Cl4   Cl    Cl    0.147321 0.120624 0.374857 -0.429823
Cl5   Cl    Cl    0.697784 0.327027 0.650852 -0.462438
Cl6   Cl    Cl    0.215758 0.730023 0.879721 -0.363301
Cl7   Cl    Cl    0.773863 0.373639 0.179929 -0.421538
Cl8   Cl    Cl    0.203634 0.905971 0.061389 -0.366739
Cl9   Cl    Cl    0.279553 0.218195 0.932938 -0.377848
Cl10  Cl    Cl    0.233478 0.315737 0.698116 -0.370510
Cl11  Cl    Cl    0.170097 0.751993 0.452769 -0.560165
Cl12  Cl    Cl    0.767227 0.584480 0.287005 -0.443311
Cl13  Cl    Cl    0.744738 0.569636 0.464343 -0.392381
Cl14  Cl    Cl    0.813326 0.163596 0.577755 -0.447823
F1    F     F_    0.673797 0.520615 0.845502 -0.606303
F2    F     F_    0.275245 0.571197 0.889245 -0.641446
F3    F     F_    0.242721 0.172922 0.195689 -0.546136
F4    F     F_    0.279710 0.381520 0.068524 -0.570318
F5    F     F_    0.304112 0.623695 0.288987 -0.615649
F6    F     F_    0.811838 0.696201 0.886131 -0.587971
F7    F     F_    0.333582 0.830092 0.134275 -0.594183
F8    F     F_    0.657529 0.308666 0.996571 -0.608068
F9    F     F_    0.434918 0.337037 0.710898 -0.553548
F10   F     F_    0.214215 0.624138 0.708854 -0.620173
F11   F     F_    0.753876 0.121389 0.837543 -0.603509
F12   F     F_    0.568390 0.036004 0.722834 -0.551854
F13   F     F_    0.812972 0.995598 0.967960 -0.611361
H1    H     H_    0.140409 0.599368 0.312888 0.226210
H2    H     H_    0.798615 0.868902 0.043328 0.217841
H3    H     H_    0.190793 0.031998 0.249308 0.161888
H4    H     H_    0.189502 0.247882 0.289138 0.111979
H5    H     H_    0.835191 0.164545 0.994402 0.254501
H6    H     H_    0.481996 0.267311 0.940237 0.257218
H7    H     H_    0.494089 0.500900 0.757416 0.111489
H8    H     H_    0.860169 0.495477 0.699835 0.212104
H9    H     H_    0.337696 0.506903 0.764086 0.175060
H10   H     H_    0.213308 0.677888 0.580512 0.236909
H11   H     H_    0.875950 0.573395 0.609513 0.203151
H12   H     H_    0.512749 0.909014 0.250924 0.236523
H13   H     H_    0.383392 0.790891 0.414223 0.217519
N1    N     N_R   0.055640 0.348550 0.045600 -0.129125
N2    N     N_R   0.811290 0.303400 0.871650 -0.172111
N3    N     N_R   0.205180 0.552990 0.997660 -0.163870
N4    N     N_R   0.814810 0.361830 0.823710 -0.149861
N5    N     N_R   0.201660 0.494570 0.045600 -0.165599
N6    N     N_R   0.068420 0.560530 0.871650 -0.132712
N7    N     N_R   0.948050 0.295860 0.997660 -0.117192
N8    N     N_R   0.185190 0.638170 0.176290 -0.160031
N9    N     N_R   0.798340 0.505430 0.954400 -0.169779
N10   N     N_R   0.931580 0.439470 0.128350 -0.115405
N11   N     N_R   0.051950 0.704140 0.002340 -0.152499
N12   N     N_R   0.944360 0.651450 0.954400 -0.161048
N13   N     N_R   0.039170 0.492150 0.176290 -0.080618
N14   N     N_R   0.188710 0.696600 0.128350 -0.163421
N15   N     N_R   0.794820 0.447010 0.002340 -0.179729
N16   N     N_R   0.960830 0.507850 0.823710 -0.095027
Ni1   Ni    Ni4+2 0.119330 0.493420 0.109950 0.321098
Ni2   Ni    Ni4+2 0.880670 0.506580 0.890050 0.295708
Ni3   Ni    Ni4+2 0.872590 0.372590 0.000000 0.299189
Ni4   Ni    Ni4+2 0.127410 0.627410 0.000000 0.322652

loop_
_geom_bond_atom_site_label_1
_geom_bond_atom_site_label_2
_ccdc_geom_bond_type
N1    N7    A    
C6    C45   A    
C27   C29   A    
C36   H12   S    
C53   F3    S    
N11   N12   A    
C3    C6    A    
C43   Cl3   S    
C39   C41   A    
C20   C30   A    
C18   F9    S    
C26   C27   A    
C8    C20   S    
C51   H3    S    
C30   C31   A    
C2    N13   A    
C31   Cl13  S    
C10   C17   A    
C23   C40   A    
C33   C36   A    
C18   C19   S    
N8    N14   A    
C8    C58   A    
C41   Cl14  S    
C44   C53   S    
N3    Ni4   S    
C3    F7    S    
C59   N11   A    
C32   C41   A    
C2    H1    S    
C42   F12   S    
C4    C12   A    
C14   H6    S    
C45   N8    A    
C7    C15   S    
C28   C34   A    
C26   C31   A    
C22   H10   S    
C12   C54   A    
C13   C14   A    
C5    N15   A    
N5    Ni1   S    
C7    C56   A    
C52   F4    S    
N7    Ni3   S    
C44   C46   A    
N9    Ni2   S    
C50   C51   S    
N4    Ni2   S    
C20   C29   A    
C54   N6    A    
N3    N5    A    
C5    C7    A    
C25   C26   A    
N2    Ni3   S    
C12   C21   S    
C33   C37   A    
C55   N7    A    
N11   Ni4   S    
C9    C59   A    
C35   C36   A    
C47   F13   S    
C35   C39   A    
C53   H4    S    
C37   C38   A    
C60   N12   A    
C1    C57   A    
C59   Cl8   S    
C40   N4    A    
C4    H8    S    
C25   H11   S    
C47   C48   A    
C10   C19   S    
C17   C18   S    
C45   F5    S    
N2    N4    A    
N10   N13   A    
N13   Ni1   S    
C16   N2    A    
C48   C49   A    
C55   H5    S    
C52   N5    A    
C16   C23   A    
N15   Ni3   S    
C48   H2    S    
C55   C57   A    
C46   C57   S    
C16   F11   S    
C18   H7    S    
C22   C24   A    
C42   C43   A    
C28   F2    S    
C1    N1    A    
C56   N9    A    
C44   C50   A    
C15   C17   A    
C21   C25   A    
C46   C47   A    
C60   F6    S    
N6    Ni4   S    
C58   N10   A    
N8    Ni1   S    
C4    N16   A    
C11   C34   S    
C2    C8    A    
C51   Cl4   S    
C3    N14   A    
C1    Cl1   S    
N10   Ni3   S    
C30   Cl12  S    
C54   Cl6   S    
C34   C52   A    
C6    C33   S    
C22   C27   A    
C9    C60   A    
N1    Ni1   S    
C23   C32   S    
C24   F10   S    
C38   C43   A    
N12   Ni2   S    
C5    F8    S    
C11   C13   A    
C28   N3    A    
C38   C39   A    
C13   Cl9   S    
N16   Ni2   S    
C35   Cl2   S    
C40   Cl5   S    
C10   C11   A    
N9    N15   A    
C58   Cl7   S    
C49   C50   A    
C21   C24   A    
N6    N16   A    
C56   F1    S    
C32   C42   A    
C14   C15   A    
C19   Cl10  S    
C51   C53   S    
C37   H13   S    
N14   Ni4   S    
C19   H9    S    
C29   Cl11  S    
