data_mof_unit_1447.cif
_audit_creation_date              2012-10-26T17:12:29-0400
_audit_creation_method            fapswitch 2.2
_symmetry_space_group_name_H-M    P1
_symmetry_Int_Tables_number       1
_space_group_crystal_system       triclinic
_cell_length_a                    16.668416
_cell_length_b                    16.668411
_cell_length_c                    16.815487
_cell_angle_alpha                 67.719323
_cell_angle_beta                  67.719318
_cell_angle_gamma                 67.873007
_cell_volume                      3849.51572687

loop_
_atom_site_label
_atom_site_type_symbol
_atom_type_description
_atom_site_fract_x
_atom_site_fract_y
_atom_site_fract_z
_atom_type_partial_charge
C1    C     C_R   0.030003 0.827895 0.564105 0.607068
C2    C     C_R   0.028987 0.564496 0.828092 0.513017
C3    C     C_2   0.389711 0.759144 0.136876 0.280444
C4    C     C_2   0.144375 0.478591 0.170560 0.272510
C5    C     C_2   0.134329 0.388145 0.763715 0.283326
C6    C     C_R   0.172105 0.969997 0.435895 0.607067
C7    C     C_R   0.828008 0.028519 0.564492 0.514767
C8    C     C_R   0.516244 0.921157 0.741290 0.018822
C9    C     C_R   0.552879 0.926610 0.294012 0.030421
C10   C     C_R   0.097015 0.698010 0.447130 0.016178
C11   C     C_R   0.929870 0.305701 0.543080 0.027453
C12   C     C_R   0.702989 0.447536 0.073405 0.016803
C13   C     C_R   0.297839 0.552805 0.925041 0.063577
C14   C     C_R   0.301989 0.902986 0.552870 0.016178
C15   C     C_R   0.971481 0.171992 0.435508 0.514768
C16   C     C_R   0.694299 0.070129 0.456920 0.027453
C17   C     C_R   0.552464 0.297011 0.926592 0.016803
C18   C     C_R   0.447195 0.702160 0.074958 0.063580
C19   C     C_R   0.078843 0.483755 0.258710 0.018822
C20   C     C_R   0.073389 0.447121 0.705988 0.030421
C21   C     C_R   0.555813 0.983578 0.554820 0.033504
C22   C     C_R   0.464393 0.951296 0.463541 0.034376
C23   C     C_R   0.048704 0.535607 0.536459 0.034376
C24   C     C_R   0.016422 0.444187 0.445180 0.033505
C25   C     C_R   0.541811 0.541659 0.026237 0.027792
C26   C     C_R   0.827793 0.564161 0.029425 0.585249
C27   C     C_R   0.458342 0.458189 0.973761 0.027794
C28   C     C_R   0.587331 0.999073 0.461241 -0.013495
C29   C     C_R   0.429907 0.939306 0.556710 0.009716
C30   C     C_R   0.027973 0.452217 0.582094 -0.013990
C31   C     C_R   0.052748 0.518993 0.396503 -0.003785
C32   C     C_R   0.454123 0.585493 0.015795 -0.005284
C33   C     C_R   0.545889 0.414058 0.984677 0.013230
C34   C     C_R   0.547783 0.972027 0.417905 -0.013990
C35   C     C_R   0.481007 0.947252 0.603496 -0.003785
C36   C     C_R   0.414507 0.545877 0.984204 -0.005278
C37   C     C_R   0.172273 0.436232 0.969663 0.495368
C38   C     C_R   0.585943 0.454111 0.015320 0.013231
C39   C     C_R   0.000926 0.412669 0.538759 -0.013494
C40   C     C_R   0.060695 0.570093 0.443289 0.009716
C41   C     C_R   0.464826 0.913242 0.696759 -0.099118
C42   C     C_R   0.593535 0.954957 0.334169 -0.106893
C43   C     C_R   0.086180 0.651174 0.399768 -0.153944
C44   C     C_R   0.955087 0.345564 0.586865 -0.105111
C45   C     C_R   0.663956 0.406002 0.044787 -0.159010
C46   C     C_R   0.337382 0.594488 0.953337 -0.052622
C47   C     C_R   0.348825 0.913823 0.600231 -0.153944
C48   C     C_R   0.570048 0.013761 0.831437 0.556415
C49   C     C_R   0.654436 0.044912 0.413135 -0.105111
C50   C     C_R   0.593999 0.336045 0.955210 -0.159011
C51   C     C_R   0.405512 0.662618 0.046662 -0.052623
C52   C     C_R   0.086758 0.535174 0.303241 -0.099115
C53   C     C_R   0.045042 0.406465 0.665831 -0.106893
C54   C     C_R   0.575263 0.977365 0.694805 -0.030867
C55   C     C_R   0.457926 0.939904 0.324903 -0.032695
C56   C     C_R   0.069504 0.671473 0.542228 0.030734
C57   C     C_R   0.962140 0.323906 0.448443 -0.021778
C58   C     C_R   0.674153 0.542861 0.056606 0.031732
C59   C     C_R   0.435505 0.971013 0.171908 0.513016
C60   C     C_R   0.326025 0.457407 0.942908 -0.020500
C61   C     C_R   0.328527 0.930496 0.457772 0.030734
C62   C     C_R   0.676094 0.037859 0.551557 -0.021778
C63   C     C_R   0.457139 0.325847 0.943392 0.031731
C64   C     C_R   0.542593 0.673975 0.057091 -0.020506
C65   C     C_R   0.022634 0.424737 0.305195 -0.030869
C66   C     C_R   0.060096 0.542074 0.675097 -0.032695
C67   C     C_R   0.612234 0.008131 0.738187 -0.035846
C68   C     C_R   0.403227 0.950707 0.271273 -0.048577
C69   C     C_R   0.052459 0.727509 0.596826 0.028281
C70   C     C_R   0.435839 0.172207 0.970575 0.585249
C71   C     C_R   0.960548 0.270698 0.399582 -0.048532
C72   C     C_R   0.727805 0.596500 0.049217 0.003447
C73   C     C_R   0.272257 0.403863 0.950131 -0.052820
C74   C     C_R   0.272490 0.947540 0.403174 0.028280
C75   C     C_R   0.729302 0.039451 0.600418 -0.048532
C76   C     C_R   0.403500 0.272195 0.950783 0.003448
C77   C     C_R   0.596137 0.727743 0.049869 -0.052822
C78   C     C_R   0.991868 0.387766 0.261813 -0.035847
C79   C     C_R   0.049293 0.596773 0.728727 -0.048577
C80   C     C_R   0.691422 0.034350 0.691054 -0.131998
C81   C     C_R   0.563768 0.827727 0.030336 0.495368
C82   C     C_R   0.311671 0.955406 0.311575 -0.142645
C83   C     C_R   0.044593 0.688329 0.688425 -0.142645
C84   C     C_R   0.965649 0.308578 0.308946 -0.131997
C85   C     C_R   0.687388 0.687573 0.046347 -0.164394
C86   C     C_R   0.312427 0.312612 0.953653 -0.164394
C87   C     C_R   0.601671 0.000704 0.600268 0.019479
C88   C     C_R   0.416397 0.941506 0.415160 0.003873
C89   C     C_R   0.058494 0.583603 0.584840 0.003872
C90   C     C_R   0.999295 0.398329 0.399732 0.019480
C91   C     C_R   0.586382 0.586383 0.046293 0.003113
C92   C     C_R   0.986238 0.429952 0.168563 0.556412
C93   C     C_R   0.413617 0.413619 0.953706 0.003116
C94   C     C_2   0.521404 0.855628 0.829442 0.272506
C95   C     C_2   0.611855 0.865670 0.236285 0.283326
C96   C     C_2   0.153371 0.761580 0.393970 0.278104
C97   C     C_2   0.859770 0.256315 0.595896 0.278537
C98   C     C_2   0.759013 0.387595 0.135508 0.286979
C99   C     C_2   0.240856 0.610289 0.863123 0.280440
C100  C     C_2   0.238418 0.846631 0.606031 0.278108
C101  C     C_2   0.743684 0.140229 0.404104 0.278538
C102  C     C_2   0.612404 0.240987 0.864489 0.286976
Cu1   Cu    Cu3+1 0.995180 0.995180 0.424630 1.001693
Cu2   Cu    Cu3+1 0.004820 0.004820 0.575370 1.001691
Cu3   Cu    Cu3+1 0.995180 0.424630 0.995180 1.001956
Cu4   Cu    Cu3+1 0.004820 0.575370 0.004820 1.059280
Cu5   Cu    Cu3+1 0.424630 0.995180 0.995180 1.059295
Cu6   Cu    Cu3+1 0.575370 0.004820 0.004820 1.001957
H1    H     H_    0.419294 0.871459 0.734867 0.161009
H2    H     H_    0.333436 0.687694 0.056073 0.166670
H3    H     H_    0.128539 0.580707 0.265132 0.161013
H4    H     H_    0.047770 0.335626 0.694105 0.159542
H5    H     H_    0.726282 0.046718 0.726275 0.180495
H6    H     H_    0.269232 0.969124 0.269995 0.168213
H7    H     H_    0.030875 0.730768 0.730005 0.168213
H8    H     H_    0.953280 0.273718 0.273725 0.180495
H9    H     H_    0.728733 0.728972 0.037309 0.173322
H10   H     H_    0.271028 0.271266 0.962691 0.173321
H11   H     H_    0.579001 0.839960 0.853319 0.096898
H12   H     H_    0.664374 0.952229 0.305895 0.159542
H13   H     H_    0.583422 0.825501 0.221946 0.105798
H14   H     H_    0.155381 0.795968 0.324265 0.125460
H15   H     H_    0.824849 0.241865 0.562171 0.105680
H16   H     H_    0.790547 0.317320 0.136235 0.121869
H17   H     H_    0.225880 0.580328 0.825063 0.103504
H18   H     H_    0.204027 0.844626 0.675734 0.125457
H19   H     H_    0.758135 0.175150 0.437829 0.105680
H20   H     H_    0.682680 0.209454 0.863761 0.121871
H21   H     H_    0.419672 0.774119 0.174937 0.103502
H22   H     H_    0.160034 0.420998 0.146680 0.096906
H23   H     H_    0.100588 0.678576 0.328109 0.106283
H24   H     H_    0.174499 0.416577 0.778054 0.105798
H25   H     H_    0.932514 0.329091 0.659146 0.157293
H26   H     H_    0.689685 0.333917 0.054190 0.102037
H27   H     H_    0.312306 0.666564 0.943925 0.166667
H28   H     H_    0.321420 0.899417 0.671891 0.106284
H29   H     H_    0.670909 0.067485 0.340854 0.157294
H30   H     H_    0.666084 0.310318 0.945805 0.102038
O1    O     O_R   0.124540 0.978640 0.385460 -0.502245
O2    O     O_R   0.124540 0.385460 0.978640 -0.511724
O3    O     O_R   0.021360 0.875460 0.614540 -0.502247
O4    O     O_R   0.978640 0.124540 0.385460 -0.501316
O5    O     O_R   0.013780 0.867370 0.487190 -0.507320
O6    O     O_R   0.986220 0.132630 0.512810 -0.504890
O7    O     O_R   0.867370 0.487190 0.013780 -0.497984
O8    O     O_R   0.132630 0.512810 0.986220 -0.488964
O9    O     O_R   0.487190 0.013780 0.867370 -0.490169
O10   O     O_R   0.512810 0.986220 0.132630 -0.510576
O11   O     O_R   0.512810 0.132630 0.986220 -0.497983
O12   O     O_R   0.875460 0.021360 0.614540 -0.501316
O13   O     O_R   0.487190 0.867370 0.013780 -0.488955
O14   O     O_R   0.986220 0.512810 0.132630 -0.490175
O15   O     O_R   0.013780 0.487190 0.867370 -0.510575
O16   O     O_R   0.132630 0.986220 0.512810 -0.507323
O17   O     O_R   0.867370 0.013780 0.487190 -0.504890
O18   O     O_2   0.462928 0.816737 0.875061 -0.511452
O19   O     O_2   0.692529 0.858877 0.204986 -0.506310
O20   O     O_2   0.201860 0.772345 0.426013 -0.459423
O21   O     O_2   0.839391 0.232121 0.677524 -0.518023
O22   O     O_2   0.767348 0.415023 0.189004 -0.485918
O23   O     O_R   0.978640 0.385460 0.124540 -0.494744
O24   O     O_2   0.210925 0.691505 0.853086 -0.519736
O25   O     O_2   0.227657 0.798139 0.573989 -0.459420
O26   O     O_2   0.767879 0.160608 0.322476 -0.518021
O27   O     O_2   0.584976 0.232651 0.810995 -0.485919
O28   O     O_2   0.308495 0.789075 0.146912 -0.519735
O29   O     O_2   0.183280 0.537057 0.124946 -0.511462
O30   O     O_2   0.141122 0.307471 0.795014 -0.506309
O31   O     O_R   0.021360 0.614540 0.875460 -0.502110
O32   O     O_R   0.385460 0.124540 0.978640 -0.504513
O33   O     O_R   0.614540 0.875460 0.021360 -0.511726
O34   O     O_R   0.614540 0.021360 0.875460 -0.494745
O35   O     O_R   0.385460 0.978640 0.124540 -0.502110
O36   O     O_R   0.875460 0.614540 0.021360 -0.504513

loop_
_geom_bond_atom_site_label_1
_geom_bond_atom_site_label_2
_ccdc_geom_bond_type
C92   O23   A    
Cu3   O15   S    
C21   C87   A    
C22   C29   A    
C49   H29   S    
C47   H28   S    
C26   C72   S    
C64   C77   A    
C96   O20   D    
C34   C42   A    
C31   C52   A    
C58   C72   A    
C95   O19   D    
C72   C85   A    
C99   H17   S    
C13   C60   A    
C27   C33   A    
C98   H16   S    
C66   C79   A    
C45   H26   S    
C29   C47   A    
C100  H18   S    
C97   O21   D    
C20   C66   A    
C2    O15   A    
Cu6   O33   S    
C102  H20   S    
C54   C87   A    
C25   C38   A    
C14   C47   A    
C69   C83   A    
C63   C76   A    
C26   O36   A    
C23   C40   A    
C99   O24   D    
C48   O9    A    
C60   C73   A    
C6    O1    A    
C24   C39   A    
C31   C40   A    
C3    C18   S    
C28   C49   A    
C5    O30   D    
Cu2   O12   S    
C55   C88   A    
C38   C45   A    
C2    C79   S    
C46   H27   S    
C48   O34   A    
C4    C19   S    
C19   C52   A    
C40   C43   A    
C37   O2    A    
C92   O14   A    
Cu5   Cu6   S    
C23   C89   A    
C36   C46   A    
C9    C55   A    
C22   C88   A    
C37   O8    A    
C10   C56   A    
C58   C91   A    
C9    C95   S    
C12   C98   S    
Cu5   O13   S    
C60   C93   A    
C95   H13   S    
C25   C32   A    
C28   C34   A    
C84   H8    S    
C41   H1    S    
C70   O11   A    
C16   C62   A    
C74   C82   A    
C18   C51   A    
C6    C74   S    
C66   C89   A    
C5    H24   S    
Cu4   O36   S    
C65   C90   A    
C22   C34   A    
C30   C53   A    
C25   C91   A    
Cu4   O14   S    
C57   C90   A    
C62   C87   A    
C18   C64   A    
C23   C30   A    
C83   H7    S    
C8    C94   S    
C8    C41   A    
C82   H6    S    
C8    C54   A    
C5    C20   S    
C55   C68   A    
C20   C53   A    
C4    H22   S    
C54   C67   A    
Cu5   O35   S    
C52   H3    S    
C78   C92   S    
C33   C50   A    
C81   O13   A    
C14   C61   A    
C1    C69   S    
Cu6   O11   S    
C24   C90   A    
C13   C99   S    
C26   O7    A    
C17   C102  S    
C32   C51   A    
C1    O5    A    
C61   C88   A    
Cu1   O1    S    
C59   C68   S    
C7    O12   A    
Cu5   O9    S    
C94   H11   S    
C10   C96   S    
Cu3   O7    S    
Cu2   O6    S    
C9    C42   A    
C11   C44   A    
C86   H10   S    
C57   C71   A    
C85   H9    S    
C6    O16   A    
C53   H4    S    
Cu1   O17   S    
C56   C89   A    
C21   C28   A    
C98   O22   D    
C56   C69   A    
C51   H2    S    
Cu6   O34   S    
C70   C76   S    
C27   C36   A    
Cu4   O31   S    
Cu3   O23   S    
C62   C75   A    
C27   C93   A    
Cu1   O4    S    
C32   C36   A    
C16   C49   A    
C71   C84   A    
C75   C80   A    
C44   H25   S    
C37   C73   S    
C65   C78   A    
C10   C43   A    
C3    H21   S    
C101  O26   D    
C67   C80   A    
C12   C45   A    
C59   O35   A    
Cu1   O5    S    
C17   C50   A    
C7    C75   S    
C50   H30   S    
C14   C100  S    
C39   C44   A    
C21   C35   A    
C61   C74   A    
C102  O27   D    
C15   C71   S    
Cu3   Cu4   S    
C29   C35   A    
C33   C38   A    
Cu4   O8    S    
C4    O29   D    
C96   H14   S    
C11   C97   S    
C68   C82   A    
C43   H23   S    
C70   O32   A    
C24   C31   A    
C12   C58   A    
C97   H15   S    
C59   O10   A    
Cu3   O2    S    
C79   C83   A    
C42   H12   S    
C13   C46   A    
C101  H19   S    
C30   C39   A    
C19   C65   A    
C100  O25   D    
C81   O33   A    
C48   C67   S    
C35   C41   A    
C73   C86   A    
C1    O3    A    
C2    O31   A    
C77   C85   A    
C15   O6    A    
C78   C84   A    
C16   C101  S    
C7    O17   A    
C80   H5    S    
C94   O18   D    
C77   C81   S    
C15   O4    A    
C76   C86   A    
Cu1   Cu2   S    
Cu2   O3    S    
C64   C91   A    
Cu2   O16   S    
C63   C93   A    
C11   C57   A    
C17   C63   A    
C3    O28   D    
Cu6   O10   S    
Cu5   O32   S    
