data_mof_unit_4635.cif
_audit_creation_date              2013-03-05T16:41:45-0500
_audit_creation_method            fapswitch 2.2
_symmetry_space_group_name_H-M    P1
_symmetry_Int_Tables_number       1
_space_group_crystal_system       triclinic
_cell_length_a                    10.635906
_cell_length_b                    10.710224
_cell_length_c                    9.909502
_cell_angle_alpha                 90.458641
_cell_angle_beta                  87.540629
_cell_angle_gamma                 90.585715
_cell_volume                      1127.68943991

loop_
_atom_site_label
_atom_site_type_symbol
_atom_site_description
_atom_site_fract_x
_atom_site_fract_y
_atom_site_fract_z
_atom_type_partial_charge
O1    O     O_R   0.500020 0.316790 0.614690 -0.597718
O2    O     O_R   0.500000 0.316760 0.385350 -0.624233
C1    C     C_R   0.506391 0.260240 0.499156 0.876118
O3    O     O_R   0.316770 0.500020 0.614690 -0.577634
O4    O     O_R   0.316760 0.499980 0.385350 -0.610112
C2    C     C_R   0.259930 0.505545 0.503951 0.875399
Zn1   Zn    Zn3+2 0.500010 0.500020 0.653130 1.015422
Zn2   Zn    Zn3+2 0.499990 0.499980 0.346870 0.957780
O5    O     O_R   0.500000 0.683240 0.614650 -0.583954
O6    O     O_R   0.499980 0.683210 0.385310 -0.623024
O7    O     O_R   0.683240 0.500020 0.614650 -0.641853
O8    O     O_R   0.683230 0.499980 0.385310 -0.620542
C3    C     C_R   0.504197 0.740188 0.500025 0.856299
C4    C     C_R   0.739430 0.501207 0.496682 0.841774
H1    H     H_    0.119529 0.331519 0.401903 0.145879
C5    C     C_R   0.107812 0.699040 0.660605 0.284232
C6    C     C_R   0.046771 0.814108 0.676266 -0.185407
H2    H     H_    0.084726 0.885610 0.741341 0.159805
C7    C     C_R   0.927869 0.830545 0.626232 -0.155041
H3    H     H_    0.878801 0.917639 0.643752 0.157290
C8    C     C_R   0.867040 0.730177 0.566303 -0.157598
H4    H     H_    0.771270 0.742217 0.536717 0.123666
C9    C     C_R   0.931050 0.616940 0.541814 0.082816
C10   C     C_R   0.057672 0.607475 0.572594 -0.027633
C11   C     C_R   0.126112 0.505835 0.513958 -0.100620
C12   C     C_R   0.066548 0.408784 0.446124 -0.188926
H5    H     H_    0.890674 0.329341 0.394586 0.145877
C13   C     C_R   0.938212 0.408919 0.438560 -0.199494
C14   C     C_R   0.871613 0.511437 0.488323 -0.052408
C15   C     C_R   0.532171 0.065916 0.619533 -0.000432
C16   C     C_R   0.530581 0.129353 0.497726 -0.080301
C17   C     C_R   0.551655 0.064273 0.375691 -0.210164
H6    H     H_    0.559654 0.112224 0.279819 0.175996
C18   C     C_R   0.549769 0.934792 0.376398 -0.184172
H7    H     H_    0.557262 0.885068 0.280809 0.185458
C19   C     C_R   0.526451 0.871963 0.499083 -0.142740
C20   C     C_R   0.530048 0.937812 0.620512 0.022678
C21   C     C_3   0.437484 0.936219 0.739022 0.321464
C22   C     C_3   0.442005 0.077053 0.738154 -0.473194
H8    H     H_    0.343624 0.898748 0.714462 0.159694
H9    H     H_    0.351428 0.117656 0.709299 0.223410
H10   H     H_    0.485970 0.120573 0.827079 0.240444
C23   C     C_R   0.436227 0.409706 0.073396 0.112822
N1    N     N_R   0.499160 0.499140 0.142800 -0.145204
C24   C     C_R   0.572473 0.581355 0.070887 -0.094063
H11   H     H_    0.629273 0.648371 0.124206 0.169776
C25   C     C_R   0.573817 0.582041 0.928117 0.525382
N2    N     N_R   0.499160 0.499180 0.857150 -0.177230
C26   C     C_R   0.437318 0.408246 0.931002 0.144184
C27   C     C_3   0.299237 0.380267 0.933901 0.230099
C28   C     C_3   0.298762 0.383599 0.087086 -0.486803
H12   H     H_    0.244113 0.453318 0.886810 0.202331
H13   H     H_    0.244886 0.463441 0.131508 0.214780
H14   H     H_    0.278029 0.291958 0.135554 0.216333
O9    O     O_3   0.485503 0.884337 0.856045 -0.667156
H15   H     H_    0.571914 0.917891 0.867255 0.350808
O10   O     O_3   0.651822 0.669324 0.866241 -0.751589
H16   H     H_    0.650844 0.657249 0.768620 0.387781
O11   O     O_3   0.273724 0.260510 0.884911 -0.774786
H17   H     H_    0.180735 0.251114 0.889816 0.342040
N3    N     N_R   0.174422 0.659397 0.774425 0.184353
O12   O     O_R   0.291213 0.691855 0.786501 -0.383387
O13   O     O_R   0.108205 0.629143 0.882966 -0.414771

loop_
_geom_bond_atom_site_label_1
_geom_bond_atom_site_label_2
_geom_bond_distance
_ccdc_geom_bond_type
O4    Zn2   1.969649 S    
C27   H12   1.101064 S    
O9    H15   0.993752 S    
C20   C21   1.499812 S    
C25   O10   1.373989 S    
C28   H13   1.111632 S    
Zn1   O7    1.969647 S    
C16   C17   1.401765 A    
Zn2   O8    2.001778 S    
C28   H14   1.112055 S    
Zn1   N2    2.021460 S    
C24   C25   1.414312 A    
C27   C28   1.517909 S    
O11   H17   0.992248 S    
C5    C10   1.422076 A    
O1    Zn1   1.996067 S    
C8    H4    1.081235 S    
C17   H6    1.083303 S    
C1    C16   1.427685 S    
C21   H8    1.108131 S    
C23   C28   1.486423 S    
O10   H16   0.975434 S    
N3    O12   1.296703 A    
C19   C20   1.391620 A    
O3    Zn1   2.001778 S    
O4    C2    1.299543 A    
C9    C14   1.400709 A    
Zn2   O6    1.996067 S    
N2    C26   1.368850 A    
C7    C8    1.391158 A    
C18   C19   1.405764 A    
O8    C4    1.277384 A    
C15   C22   1.489630 S    
C6    H2    1.083216 S    
C22   H10   1.112091 S    
O2    C1    1.288891 A    
C8    C9    1.411110 A    
C23   N1    1.361761 A    
C15   C16   1.390677 A    
C18   H7    1.083301 S    
O7    C4    1.289970 A    
O2    Zn2   2.002028 S    
C2    C11   1.422506 S    
C5    N3    1.427142 S    
C27   O11   1.395949 S    
C9    C10   1.398406 A    
C25   N2    1.391468 A    
Zn2   N1    2.022578 S    
C21   C22   1.508724 S    
C10   C11   1.422078 A    
C22   H9    1.110481 S    
C3    C19   1.428695 S    
O3    C2    1.277460 A    
C26   C27   1.494977 S    
H5    C13   1.084484 S    
Zn1   O5    2.002028 S    
O5    C3    1.292436 A    
C13   C14   1.388441 A    
H1    C12   1.084853 S    
C4    C14   1.407968 S    
C6    C7    1.391356 A    
C11   C12   1.394823 A    
C24   H11   1.082482 S    
C12   C13   1.370249 A    
O6    C3    1.288168 A    
N3    O13   1.301448 A    
C23   C26   1.410561 A    
N1    C24   1.356285 A    
C7    H3    1.082680 S    
C15   C20   1.372080 A    
C5    C6    1.403236 A    
O1    C1    1.290451 A    
C21   O9    1.407594 S    
C17   C18   1.386779 A    
