data_mof_unit_704.cif
_audit_creation_date              2012-12-10T16:47:17-0500
_audit_creation_method            fapswitch 2.2
_symmetry_space_group_name_H-M    P1
_symmetry_Int_Tables_number       1
_space_group_crystal_system       triclinic
_cell_length_a                    12.102049
_cell_length_b                    12.126268
_cell_length_c                    7.852301
_cell_angle_alpha                 89.651072
_cell_angle_beta                  94.825356
_cell_angle_gamma                 89.976613
_cell_volume                      1148.24028191

loop_
_atom_site_label
_atom_site_type_symbol
_atom_type_description
_atom_site_fract_x
_atom_site_fract_y
_atom_site_fract_z
_atom_type_partial_charge
C1    C     C_R   0.354770 0.850932 0.455450 0.962322
C2    C     C_2   0.725538 0.767461 0.568053 -0.354021
C3    C     C_2   0.725860 0.231862 0.568022 -0.348842
C4    C     C_2   0.274140 0.768138 0.431978 -0.348842
C5    C     C_2   0.774462 0.732539 0.431947 -0.354021
C6    C     C_2   0.225538 0.267461 0.568053 -0.354021
C7    C     C_2   0.225860 0.731862 0.568022 -0.348842
C8    C     C_2   0.774140 0.268138 0.431978 -0.348842
C9    C     C_2   0.638562 0.948595 0.007409 1.113023
C10   C     C_2   0.361438 0.051405 0.992591 1.113023
C11   C     C_2   0.138562 0.448595 0.007409 1.113023
C12   C     C_R   0.645230 0.149068 0.544550 0.962321
C13   C     C_2   0.861438 0.551405 0.992591 1.113023
C14   C     C_R   0.645205 0.850807 0.544850 0.949183
C15   C     C_R   0.354794 0.149193 0.455150 0.949183
C16   C     C_R   0.854770 0.350932 0.455450 0.962322
C17   C     C_R   0.145230 0.649068 0.544550 0.962321
C18   C     C_R   0.145205 0.350807 0.544850 0.949183
C19   C     C_R   0.854795 0.649193 0.455150 0.949183
C20   C     C_2   0.274462 0.232539 0.431947 -0.354021
H1    H     H_    0.756152 0.765075 0.303489 0.232205
H2    H     H_    0.209885 0.033266 0.077438 0.332968
H3    H     H_    0.290115 0.466734 0.922562 0.332968
H4    H     H_    0.709885 0.533266 0.077438 0.332968
H5    H     H_    0.243847 0.234925 0.696511 0.232205
H6    H     H_    0.245233 0.762708 0.696894 0.209529
H7    H     H_    0.754767 0.237292 0.303106 0.209529
H8    H     H_    0.256152 0.265075 0.303489 0.232205
H9    H     H_    0.743847 0.734925 0.696511 0.232205
H10   H     H_    0.745233 0.262708 0.696894 0.209529
H11   H     H_    0.254767 0.737292 0.303106 0.209529
H12   H     H_    0.790115 0.966734 0.922562 0.332968
N1    N     N_2   0.541470 0.000000 0.055820 -0.193410
N2    N     N_2   0.458530 0.000000 0.944180 -0.193411
N3    N     N_2   0.041470 0.500000 0.055820 -0.193410
N4    N     N_2   0.958530 0.500000 0.944180 -0.193411
O1    O     O_R   0.375700 0.885870 0.609240 -0.629718
O2    O     O_R   0.597720 0.114130 0.675960 -0.596482
O3    O     O_R   0.597720 0.885870 0.675960 -0.617925
O4    O     O_R   0.402280 0.114130 0.324040 -0.617925
O5    O     O_R   0.902280 0.385870 0.324040 -0.596482
O6    O     O_R   0.097720 0.614130 0.675960 -0.596482
O7    O     O_R   0.097720 0.385870 0.675960 -0.617925
O8    O     O_R   0.902280 0.614130 0.324040 -0.617925
O9    O     O_2   0.649115 0.848679 0.022546 -0.636705
O10   O     O_R   0.724399 0.012791 0.951584 -0.808164
O11   O     O_2   0.350885 0.151321 0.977454 -0.636705
O12   O     O_R   0.624300 0.114130 0.390760 -0.629718
O13   O     O_R   0.275601 0.987209 0.048416 -0.808164
O14   O     O_2   0.149115 0.348679 0.022546 -0.636705
O15   O     O_R   0.224399 0.512791 0.951584 -0.808164
O16   O     O_2   0.850885 0.651321 0.977454 -0.636705
O17   O     O_R   0.775601 0.487209 0.048416 -0.808164
O18   O     O_R   0.624300 0.885870 0.390760 -0.620446
O19   O     O_R   0.375700 0.114130 0.609240 -0.620446
O20   O     O_R   0.875700 0.385870 0.609240 -0.629718
O21   O     O_R   0.124300 0.614130 0.390760 -0.629718
O22   O     O_R   0.124300 0.385870 0.390760 -0.620446
O23   O     O_R   0.875700 0.614130 0.609240 -0.620446
O24   O     O_R   0.402280 0.885870 0.324040 -0.596482
Zn1   Zn    Zn3+2 0.482250 0.000000 0.690430 1.006486
Zn2   Zn    Zn3+2 0.517750 0.000000 0.309570 1.006486
Zn3   Zn    Zn3+2 0.982250 0.500000 0.690430 1.006486
Zn4   Zn    Zn3+2 0.017750 0.500000 0.309570 1.006486

loop_
_geom_bond_atom_site_label_1
_geom_bond_atom_site_label_2
_ccdc_geom_bond_type
C3    H10   S    
O1    Zn1   S    
C16   O20   A    
C9    O9    D    
N3    Zn4   S    
C5    C19   S    
O6    Zn3   S    
N4    Zn3   S    
C6    C20   D    
O23   Zn3   S    
N3    N4    D    
O5    Zn4   S    
C1    O1    A    
C12   O12   A    
O2    Zn1   S    
C1    C4    S    
C11   N3    S    
N1    N2    D    
H4    O17   S    
O20   Zn3   S    
O7    Zn3   S    
C9    O10   S    
C10   N2    S    
C11   O14   D    
C18   O7    A    
O8    Zn4   S    
C9    N1    S    
C6    H5    S    
C7    H6    S    
H12   O10   S    
O21   Zn4   S    
C4    C7    D    
C2    C14   S    
O19   Zn1   S    
C14   O18   A    
C13   O17   S    
C2    H9    S    
C12   O2    A    
C15   C20   S    
C6    C18   S    
C15   O4    A    
C4    H11   S    
C11   O15   S    
C13   O16   D    
C2    C5    D    
C20   H8    S    
O3    Zn1   S    
O4    Zn2   S    
C19   O8    A    
C13   N4    S    
O24   Zn2   S    
C3    C8    D    
C8    C16   S    
C1    O24   A    
H2    O13   S    
C10   O11   D    
C8    H7    S    
C17   O6    A    
C3    C12   S    
O18   Zn2   S    
O22   Zn4   S    
C19   O23   A    
C14   O3    A    
C10   O13   S    
O12   Zn2   S    
C16   O5    A    
C18   O22   A    
N2    Zn1   S    
H3    O15   S    
C17   O21   A    
N1    Zn2   S    
C7    C17   S    
C5    H1    S    
C15   O19   A    
