data_mof_unit_3325.cif
_audit_creation_date              2013-03-05T15:42:40-0500
_audit_creation_method            fapswitch 2.2
_symmetry_space_group_name_H-M    P1
_symmetry_Int_Tables_number       1
_space_group_crystal_system       triclinic
_cell_length_a                    7.786448
_cell_length_b                    8.650102
_cell_length_c                    27.762005
_cell_angle_alpha                 91.197405
_cell_angle_beta                  87.047779
_cell_angle_gamma                 93.514174
_cell_volume                      1863.58197323

loop_
_atom_site_label
_atom_site_type_symbol
_atom_site_description
_atom_site_fract_x
_atom_site_fract_y
_atom_site_fract_z
_atom_type_partial_charge
O1    O     O_R   0.389250 0.738570 0.503220 -0.597162
O2    O     O_R   0.610750 0.261430 0.496780 -0.597459
O3    O     O_R   0.678390 0.711630 0.494810 -0.571035
O4    O     O_R   0.321610 0.288370 0.505190 -0.571156
C1    C     C_R   0.544811 0.793716 0.498241 0.885035
C2    C     C_R   0.455189 0.206284 0.501763 0.883685
O5    O     O_R   0.355440 0.513440 0.575450 -0.564187
O6    O     O_R   0.644560 0.486560 0.424550 -0.573037
O7    O     O_R   0.644590 0.486500 0.567040 -0.605165
O8    O     O_R   0.355410 0.513500 0.432960 -0.599234
C3    C     C_R   0.503144 0.495667 0.593704 0.909891
C4    C     C_R   0.496889 0.504599 0.406294 0.907096
Zn1   Zn    Zn3+2 0.306940 0.517990 0.505620 1.192489
Zn2   Zn    Zn3+2 0.693060 0.482010 0.494380 1.187729
C5    C     C_R   0.559803 0.628121 0.821645 0.538375
C6    C     C_R   0.443307 0.379705 0.178629 0.625662
O9    O     O_2   0.561847 0.760423 0.796688 -0.447330
O10   O     O_2   0.438922 0.247981 0.203944 -0.470344
N1    N     N_R   0.537145 0.489341 0.797847 -0.371116
N2    N     N_R   0.464701 0.518954 0.202238 -0.342505
C7    C     C_R   0.503657 0.354826 0.822254 0.558494
C8    C     C_R   0.500381 0.652924 0.177707 0.594486
C9    C     C_R   0.383637 0.427185 0.725104 -0.087068
C10   C     C_R   0.616631 0.579350 0.275225 -0.156873
C11   C     C_R   0.373628 0.419294 0.675151 0.288610
C12   C     C_R   0.626860 0.584210 0.325177 0.263031
C13   C     C_R   0.662027 0.545366 0.667352 -0.112071
C14   C     C_R   0.337689 0.459728 0.332443 -0.236071
C15   C     C_R   0.677661 0.540903 0.717175 -0.011302
C16   C     C_R   0.321334 0.468434 0.282829 0.008682
C17   C     C_R   0.534050 0.485868 0.746285 0.126573
C18   C     C_R   0.465695 0.523216 0.253814 0.214353
C19   C     C_R   0.521435 0.497042 0.897916 -0.091472
C20   C     C_R   0.486325 0.509417 0.102194 -0.091650
C21   C     C_R   0.574726 0.632416 0.871949 -0.019506
C22   C     C_R   0.431741 0.374400 0.128200 -0.007403
C23   C     C_R   0.631080 0.767985 0.897239 0.008463
C24   C     C_R   0.377314 0.238273 0.102866 0.004295
C25   C     C_R   0.473884 0.358945 0.872465 -0.141941
C26   C     C_R   0.532881 0.647854 0.127604 -0.151090
C27   C     C_R   0.511780 0.485966 0.646063 -0.190225
C28   C     C_R   0.488502 0.516532 0.353973 -0.135650
H1    H     H_    0.767770 0.595150 0.644950 0.251520
H2    H     H_    0.231158 0.409437 0.354498 0.224295
C29   C     C_R   0.557396 0.640645 0.025564 0.006115
C30   C     C_R   0.452964 0.365059 0.974546 0.005569
C31   C     C_R   0.447812 0.367134 0.025794 0.084842
C32   C     C_R   0.562587 0.638593 0.974320 0.083065
C33   C     C_R   0.496392 0.505880 0.051012 0.084232
C34   C     C_R   0.513247 0.500037 0.949097 0.080412
C35   C     C_R   0.619376 0.771415 0.052315 -0.292594
C36   C     C_R   0.390907 0.234262 0.947812 -0.298039
C37   C     C_R   0.610542 0.775689 0.102452 0.305383
C38   C     C_R   0.397891 0.230539 0.897674 0.304057
O11   O     O_2   0.502413 0.789950 0.201900 -0.448796
O12   O     O_2   0.501185 0.218185 0.797841 -0.446763
C39   C     C_R   0.616002 0.771451 0.947364 -0.250363
C40   C     C_R   0.394520 0.234288 0.052764 -0.249716
H3    H     H_    0.724761 0.624687 0.252555 0.216545
H4    H     H_    0.276129 0.381716 0.747975 0.199770
H5    H     H_    0.685628 0.870399 0.035553 0.182317
H6    H     H_    0.325646 0.134891 0.964616 0.183019
H7    H     H_    0.649988 0.881476 0.964156 0.126338
H8    H     H_    0.361964 0.123931 0.035979 0.126491
C41   C     C_2   0.569086 0.955699 0.500733 -0.001144
C42   C     C_2   0.430914 0.044301 0.499270 -0.000827
N3    N     N_2   0.950320 0.457960 0.486880 0.058989
N4    N     N_2   0.049680 0.542040 0.513120 0.054948
N5    N     N_R   0.011065 0.445420 0.439390 0.289034
O13   O     O_R   0.032963 0.570003 0.413807 -0.301198
O14   O     O_R   0.994365 0.311717 0.417344 -0.341102
N6    N     N_R   0.988891 0.554967 0.560598 0.289087
O15   O     O_R   0.967439 0.430671 0.586331 -0.292427
O16   O     O_R   0.005585 0.688905 0.582503 -0.305484
C43   C     C_2   0.844300 0.590392 0.738231 0.619529
H9    H     H_    0.864710 0.570114 0.775864 0.051369
O17   O     O_2   0.961989 0.653338 0.713649 -0.482984
C44   C     C_2   0.151351 0.422114 0.263343 0.600990
H10   H     H_    0.055388 0.355846 0.285464 0.095005
O18   O     O_2   0.113308 0.462025 0.223541 -0.537324
C45   C     C_2   0.718903 0.906376 0.873876 0.611439
H11   H     H_    0.698982 0.021070 0.888966 0.041139
O19   O     O_2   0.823642 0.893107 0.839993 -0.470450
C46   C     C_2   0.289195 0.099768 0.126079 0.622475
H12   H     H_    0.311270 0.985005 0.111368 0.038648
O20   O     O_2   0.181843 0.112903 0.159319 -0.448138
N7    N     N_R   0.772180 0.666816 0.345752 0.249965
O21   O     O_R   0.921526 0.673117 0.322327 -0.327556
O22   O     O_R   0.748114 0.761631 0.382157 -0.306578
N8    N     N_R   0.228979 0.334508 0.654911 0.258697
O23   O     O_R   0.079809 0.327355 0.678433 -0.305935
O24   O     O_R   0.253711 0.239204 0.618667 -0.305388
N9    N     N_R   0.699220 0.903092 0.126856 0.244036
O25   O     O_R   0.699897 0.042341 0.109978 -0.399137
O26   O     O_R   0.808591 0.875414 0.159065 -0.282102
N10   N     N_R   0.308619 0.103186 0.873405 0.247256
O27   O     O_R   0.309319 0.963747 0.890056 -0.397615
O28   O     O_R   0.197422 0.130941 0.841706 -0.292473
N11   N     N_R   0.741334 0.016465 0.508746 0.239662
O29   O     O_R   0.856169 0.022254 0.473033 -0.218922
O30   O     O_R   0.785010 0.056991 0.552042 -0.273610
N12   N     N_R   0.258657 0.983536 0.491268 0.239637
O31   O     O_R   0.143785 0.977985 0.526972 -0.215253
O32   O     O_R   0.214974 0.942909 0.447980 -0.278847

loop_
_geom_bond_atom_site_label_1
_geom_bond_atom_site_label_2
_geom_bond_distance
_ccdc_geom_bond_type
N7    O21   1.301538 A    
N9    O25   1.301150 A    
C13   C15   1.396310 A    
C42   N12   1.436677 S    
C35   H5    1.074041 S    
O7    Zn2   2.032998 S    
N1    C17   1.432570 S    
C45   H11   1.085657 S    
C32   C39   1.413886 A    
C31   C33   1.417800 A    
C5    N1    1.364418 A    
C11   N8    1.438368 S    
C19   C25   1.414476 A    
C2    C42   1.403072 S    
O1    C1    1.276128 A    
N1    C7    1.363295 A    
C10   C12   1.392755 A    
N5    O13   1.300699 A    
C44   O18   1.220702 D    
C25   C38   1.408157 A    
C29   C35   1.413831 A    
C30   C36   1.413935 A    
O4    Zn1   1.996248 S    
N5    O14   1.299723 A    
C4    C28   1.463443 S    
C24   C40   1.390405 A    
C12   N7    1.437920 S    
N10   O28   1.301750 A    
Zn2   N3    2.026208 S    
C38   N10   1.440155 S    
C6    N2    1.364512 A    
C24   C46   1.485739 S    
C32   C34   1.417952 A    
N9    O26   1.301748 A    
C23   C45   1.485851 S    
O2    C2    1.276132 A    
C5    C21   1.406835 A    
C45   O19   1.221081 D    
C36   C38   1.389968 A    
C39   H7    1.075373 S    
C40   H8    1.075437 S    
C9    H4    1.083473 S    
C37   N9    1.440138 S    
N3    N4    1.274803 D    
C46   H12   1.085613 S    
C41   N11   1.436675 S    
N6    O16   1.299713 A    
C11   C27   1.412733 A    
C44   H10   1.085813 S    
C19   C34   1.418804 A    
C14   H2    1.080168 S    
N4    N6    1.382018 S    
N3    N5    1.381959 S    
C9    C17   1.400241 A    
O5    C3    1.299285 A    
C43   H9    1.084311 S    
C10   C18   1.400100 A    
C43   O17   1.221431 D    
C13   C27   1.402424 A    
N8    O24   1.301534 A    
N11   O29   1.300111 A    
C7    C25   1.401363 A    
C29   C33   1.419744 A    
O6    C4    1.299485 A    
C8    C26   1.401181 A    
N10   O27   1.301124 A    
N12   O32   1.301228 A    
O7    C3    1.300590 A    
O3    Zn2   1.996249 S    
O8    C4    1.300588 A    
C1    C41   1.403067 S    
N11   O30   1.301225 A    
N2    C8    1.363071 A    
C26   C37   1.408120 A    
N7    O22   1.301509 A    
C20   C26   1.414518 A    
O4    C2    1.293279 A    
O1    Zn1   1.976567 S    
C22   C24   1.412698 A    
C12   C28   1.412787 A    
N2    C18   1.431956 S    
C29   C32   1.420882 A    
C5    O9    1.348997 S    
C30   C31   1.421015 A    
C20   C33   1.418818 A    
O6    Zn2   1.995705 S    
C21   C23   1.412422 A    
C46   O20   1.221064 D    
N6    O15   1.300786 A    
O3    C1    1.293279 A    
O8    Zn1   2.032998 S    
C7    O12   1.349740 S    
C8    O11   1.349742 S    
C15   C43   1.485962 S    
C30   C34   1.419806 A    
C14   C16   1.393797 A    
C15   C17   1.409924 A    
C36   H6    1.074018 S    
C6    C22   1.407125 A    
C31   C40   1.413779 A    
C16   C18   1.412203 A    
N8    O23   1.301577 A    
C10   H3    1.083512 S    
C14   C28   1.402484 A    
C19   C21   1.417045 A    
C3    C27   1.462998 S    
C20   C22   1.417280 A    
C9    C11   1.392998 A    
N12   O31   1.300104 A    
O2    Zn2   1.976567 S    
C16   C44   1.484823 S    
C13   H1    1.079424 S    
O5    Zn1   1.995704 S    
C6    O10   1.348925 S    
C41   C42   1.361412 D    
C35   C37   1.389878 A    
C23   C39   1.390316 A    
Zn1   N4    2.026209 S    
