data_mof_unit_1518.cif
_audit_creation_date              2012-12-11T14:40:09-0500
_audit_creation_method            fapswitch 2.2
_symmetry_space_group_name_H-M    P1
_symmetry_Int_Tables_number       1
_space_group_crystal_system       triclinic
_cell_length_a                    19.665236
_cell_length_b                    11.109689
_cell_length_c                    19.317877
_cell_angle_alpha                 90.310905
_cell_angle_beta                  96.689719
_cell_angle_gamma                 90.039811
_cell_volume                      4191.6663232

loop_
_atom_site_label
_atom_site_type_symbol
_atom_type_description
_atom_site_fract_x
_atom_site_fract_y
_atom_site_fract_z
_atom_type_partial_charge
C1    C     C_R   0.727266 0.947709 0.357920 0.569670
C2    C     C_R   0.271532 0.944511 0.643094 0.543912
C3    C     C_R   0.209358 0.495076 0.367805 0.519397
C4    C     C_R   0.773013 0.448624 0.640929 0.572308
C5    C     C_3   0.750226 0.286059 0.485960 -0.138358
C6    C     C_3   0.267628 0.288762 0.487295 -0.188806
C7    C     C_3   0.219160 0.792708 0.483415 -0.188066
C8    C     C_3   0.792791 0.777522 0.501674 -0.202756
C9    C     C_3   0.739513 0.389947 0.433881 0.029480
C10   C     C_3   0.267132 0.351516 0.559199 0.000778
C11   C     C_3   0.240128 0.891809 0.435406 0.032547
C12   C     C_3   0.768547 0.854623 0.560151 -0.000293
C13   C     C_3   0.684933 0.443746 0.475461 0.180171
C14   C     C_3   0.302221 0.462077 0.532274 0.249102
C15   C     C_3   0.201457 0.983079 0.475220 0.208483
C16   C     C_3   0.796606 0.966343 0.527976 0.251178
C17   C     C_3   0.741638 0.518965 0.516804 -0.176938
C18   C     C_3   0.231931 0.519857 0.509251 -0.194216
C19   C     C_3   0.269505 0.008506 0.522143 -0.121212
C20   C     C_3   0.725734 0.985973 0.486103 -0.148491
C21   C     C_3   0.794954 0.461829 0.474015 0.137707
C22   C     C_3   0.196972 0.407182 0.533578 0.175517
C23   C     C_3   0.305969 0.912575 0.482851 0.193806
C24   C     C_3   0.698660 0.871893 0.517479 0.196712
C25   C     C_3   0.806833 0.360298 0.526793 -0.036249
C26   C     C_3   0.197499 0.345200 0.463672 -0.069730
C27   C     C_3   0.287305 0.813608 0.531215 -0.108119
C28   C     C_3   0.721047 0.793559 0.458815 -0.111960
C29   C     C_3   0.753504 0.414731 0.568794 -0.016422
C30   C     C_3   0.231643 0.455731 0.438435 -0.052818
C31   C     C_3   0.251281 0.908089 0.571198 -0.022651
C32   C     C_3   0.748183 0.906729 0.427636 -0.026131
C33   C     C_3   0.475289 0.285548 0.982922 -0.154171
C34   C     C_3   0.455574 0.211411 0.045037 -0.143115
C35   C     C_3   0.044643 0.710781 0.955221 -0.126972
C36   C     C_3   0.025199 0.785141 0.017781 -0.161063
C37   C     C_3   0.550028 0.249392 0.001766 0.239311
C38   C     C_3   0.446528 0.098821 0.998810 0.246161
C39   C     C_3   0.052954 0.598079 0.000729 0.237859
C40   C     C_3   0.950251 0.750041 0.998576 0.239307
C41   C     C_3   0.531063 0.176294 0.063448 -0.005998
C42   C     C_3   0.465716 0.172336 0.937005 0.001871
C43   C     C_3   0.033997 0.671685 0.062950 0.004868
C44   C     C_3   0.968962 0.676846 0.936462 -0.007933
C45   C     C_R   0.536420 0.180400 0.338399 0.560026
C46   C     C_R   0.465935 0.180269 0.663347 0.556273
C47   C     C_R   0.038504 0.681887 0.339977 0.564730
C48   C     C_R   0.967704 0.681427 0.664702 0.543576
C49   C     C_3   0.521590 0.062690 0.018244 -0.140884
C50   C     C_3   0.541131 0.136734 0.955592 -0.112804
C51   C     C_3   0.958401 0.637216 0.043983 -0.102710
C52   C     C_3   0.977687 0.562962 0.980884 -0.168359
C53   C     C_1   0.787798 0.490483 0.918285 0.047690
C54   C     C_1   0.250773 0.393877 0.106626 0.088953
C55   C     C_1   0.248932 0.894502 0.893207 0.097704
C56   C     C_1   0.711734 0.990650 0.081892 0.047756
C57   C     C_1   0.771120 0.460907 0.050343 0.094092
C58   C     C_1   0.274584 0.339714 0.979360 0.082086
C59   C     C_1   0.225586 0.840006 0.020460 0.080147
C60   C     C_1   0.728984 0.961567 0.949946 0.092652
C61   C     C_1   0.781416 0.481348 0.979688 0.071718
C62   C     C_1   0.266134 0.362118 0.050366 0.073913
C63   C     C_1   0.233701 0.862645 0.949402 0.085087
C64   C     C_1   0.718308 0.981752 0.020533 0.071880
C65   C     C_1   0.757449 0.427250 0.106728 0.121256
C66   C     C_1   0.277029 0.325935 0.917439 0.064253
C67   C     C_1   0.223304 0.826064 0.082389 0.055289
C68   C     C_1   0.742818 0.927893 0.893502 0.116718
C69   C     C_R   0.737640 0.360088 0.362151 0.590534
C70   C     C_R   0.275538 0.311111 0.631602 0.552062
C71   C     C_R   0.238512 0.862791 0.362147 0.594192
C72   C     C_R   0.774942 0.814464 0.631850 0.543208
C73   C     C_R   0.703456 0.000679 0.154990 0.541320
C74   C     C_R   0.275399 0.947551 0.833444 0.562365
C75   C     C_R   0.224547 0.447204 0.166579 0.574860
C76   C     C_R   0.796300 0.500515 0.845189 0.544226
C77   C     C_R   0.560003 0.182456 0.135811 0.542280
C78   C     C_R   0.438694 0.182046 0.863953 0.532013
C79   C     C_R   0.061119 0.681616 0.136002 0.534400
C80   C     C_R   0.939965 0.682865 0.864171 0.550607
C81   C     C_R   0.738881 0.366480 0.167819 0.569956
C82   C     C_R   0.278547 0.307970 0.843482 0.550060
C83   C     C_R   0.221589 0.808043 0.156335 0.537868
C84   C     C_R   0.761184 0.866781 0.832223 0.579341
C85   C     C_1   0.490911 0.173885 0.597652 0.112014
C86   C     C_1   0.518785 0.173057 0.407193 0.094498
C87   C     C_1   0.998420 0.682485 0.601652 0.090336
C88   C     C_1   0.025592 0.682667 0.410842 0.070138
C89   C     C_1   0.511174 0.171072 0.467698 0.073895
C90   C     C_1   0.502978 0.172503 0.538440 0.093958
C91   C     C_1   0.021098 0.689479 0.472143 0.040480
C92   C     C_1   0.013867 0.690002 0.543553 0.069803
C93   C     C_3   0.695444 0.340702 0.529021 -0.138911
C94   C     C_3   0.302209 0.400823 0.460593 -0.065009
C95   C     C_3   0.182912 0.885885 0.525813 -0.119168
C96   C     C_3   0.819458 0.890604 0.468051 -0.063103
Cr1   Cr    Cr6+3 0.765830 0.160660 0.268180 1.114567
Cr2   Cr    Cr6+3 0.234170 0.160660 0.731820 1.093236
Cr3   Cr    Cr6+3 0.265830 0.660660 0.268180 1.111194
Cr4   Cr    Cr6+3 0.734170 0.660660 0.731820 1.103689
Cr5   Cr    Cr6+3 0.612110 0.009150 0.248770 1.089379
Cr6   Cr    Cr6+3 0.387890 0.009150 0.751230 1.099762
Cr7   Cr    Cr6+3 0.112110 0.509150 0.248770 1.106256
Cr8   Cr    Cr6+3 0.887890 0.509150 0.751230 1.073633
Cr9   Cr    Cr6+3 0.615930 0.324050 0.248450 1.134658
Cr10  Cr    Cr6+3 0.384070 0.324050 0.751550 1.121598
Cr11  Cr    Cr6+3 0.115930 0.824050 0.248450 1.128401
Cr12  Cr    Cr6+3 0.884070 0.824050 0.751550 1.106598
H1    H     H_    0.762267 0.196944 0.466566 0.173471
H2    H     H_    0.285207 0.205844 0.463586 0.168403
H3    H     H_    0.191457 0.716976 0.455349 0.095042
H4    H     H_    0.826222 0.700140 0.516573 0.149785
H5    H     H_    0.655250 0.289801 0.552297 0.140755
H6    H     H_    0.346004 0.399862 0.429068 0.193217
H7    H     H_    0.132964 0.872093 0.546103 0.137147
H8    H     H_    0.868790 0.897221 0.445582 0.185253
H9    H     H_    0.295677 0.088499 0.546923 0.107324
H10   H     H_    0.690361 0.063732 0.479576 0.101682
H11   H     H_    0.728328 0.606678 0.537671 0.151785
H12   H     H_    0.214218 0.597494 0.537583 0.146459
H13   H     H_    0.858067 0.332212 0.550802 0.252683
H14   H     H_    0.150120 0.311176 0.434771 0.252162
H15   H     H_    0.320244 0.748569 0.560732 0.221216
H16   H     H_    0.691725 0.723689 0.427315 0.217978
H17   H     H_    0.456306 0.377410 0.968996 0.148915
H18   H     H_    0.420028 0.241293 0.082374 0.140113
H19   H     H_    0.080420 0.739941 0.918089 0.162903
H20   H     H_    0.044692 0.876759 0.032360 0.146525
H21   H     H_    0.540763 0.971323 0.033037 0.161862
H22   H     H_    0.576619 0.107030 0.918160 0.160099
H23   H     H_    0.922703 0.607909 0.081153 0.161745
H24   H     H_    0.958002 0.471859 0.965414 0.142233
O1    O     O_R   0.783230 0.287800 0.346510 -0.464262
O2    O     O_R   0.216770 0.287800 0.653490 -0.423140
O3    O     O_R   0.283230 0.787800 0.346510 -0.457445
O4    O     O_R   0.716770 0.787800 0.653490 -0.443408
O5    O     O_R   0.554500 0.081650 0.170370 -0.501061
O6    O     O_R   0.445500 0.081650 0.829630 -0.477118
O7    O     O_R   0.054500 0.581650 0.170370 -0.472519
O8    O     O_R   0.945500 0.581650 0.829630 -0.514812
O9    O     O_R   0.545430 0.285140 0.163100 -0.485997
O10   O     O_R   0.454570 0.285140 0.836900 -0.489208
O11   O     O_R   0.045430 0.785140 0.163100 -0.482019
O12   O     O_R   0.954570 0.785140 0.836900 -0.488853
O13   O     O_R   0.677850 0.374730 0.185500 -0.461506
O14   O     O_R   0.322150 0.374730 0.814500 -0.488851
O15   O     O_R   0.177850 0.874730 0.185500 -0.499916
O16   O     O_R   0.822150 0.874730 0.814500 -0.456654
O17   O     O_3   0.664630 0.164620 0.255130 -0.354123
O18   O     O_3   0.335370 0.164620 0.744870 -0.366258
O19   O     O_3   0.164630 0.664620 0.255130 -0.370127
O20   O     O_3   0.835370 0.664620 0.744870 -0.362835
O21   O     O_R   0.760130 0.037060 0.338610 -0.495761
O22   O     O_R   0.239870 0.037060 0.661390 -0.512665
O23   O     O_R   0.260130 0.537060 0.338610 -0.479129
O24   O     O_R   0.739870 0.537060 0.661390 -0.514381
O25   O     O_R   0.666620 0.921370 0.332440 -0.498081
O26   O     O_R   0.333380 0.921370 0.667560 -0.490922
O27   O     O_R   0.166620 0.421370 0.332440 -0.486635
O28   O     O_R   0.833380 0.421370 0.667560 -0.481357
O29   O     O_R   0.557170 0.082420 0.312350 -0.497794
O30   O     O_R   0.442830 0.082420 0.687650 -0.475161
O31   O     O_R   0.057170 0.582420 0.312350 -0.499317
O32   O     O_R   0.942830 0.582420 0.687650 -0.481609
O33   O     O_R   0.548310 0.285980 0.316250 -0.437083
O34   O     O_R   0.451690 0.285980 0.683750 -0.474044
O35   O     O_R   0.048310 0.785980 0.316250 -0.446266
O36   O     O_R   0.951690 0.785980 0.683750 -0.483142
O37   O     O_R   0.680520 0.375500 0.327470 -0.467722
O38   O     O_R   0.319480 0.375500 0.672530 -0.422096
O39   O     O_R   0.180520 0.875500 0.327470 -0.449086
O40   O     O_R   0.819480 0.875500 0.672530 -0.423937
O41   O     O_R   0.780350 0.286970 0.193350 -0.512305
O42   O     O_R   0.219650 0.286970 0.806650 -0.445133
O43   O     O_R   0.280350 0.786970 0.193350 -0.451667
O44   O     O_R   0.719650 0.786970 0.806650 -0.511800
O45   O     O_R   0.757460 0.036290 0.196640 -0.456181
O46   O     O_R   0.242540 0.036290 0.803360 -0.531644
O47   O     O_R   0.257460 0.536290 0.196640 -0.517212
O48   O     O_R   0.742540 0.536290 0.803360 -0.457777
O49   O     O_R   0.663740 0.920540 0.179290 -0.488476
O50   O     O_R   0.336260 0.920540 0.820710 -0.455635
O51   O     O_R   0.163740 0.420540 0.179290 -0.450143
O52   O     O_R   0.836260 0.420540 0.820710 -0.492397
S1    S     S_3+6 0.606205 0.514659 0.441241 0.048785
O53   O     O_2   0.591824 0.617104 0.487783 -0.206843
O54   O     O_2   0.611025 0.563209 0.369565 -0.227946
O55   O     O_3   0.540052 0.419899 0.437781 -0.493219
H25   H     H_    0.529855 0.414472 0.486559 0.354400
S2    S     S_3+6 0.381528 0.531667 0.565655 0.021208
O56   O     O_2   0.401284 0.622011 0.513977 -0.237876
O57   O     O_2   0.375779 0.591680 0.634663 -0.278915
O58   O     O_3   0.443050 0.427354 0.575226 -0.544658
H26   H     H_    0.484430 0.471034 0.596163 0.378362
S3    S     S_3+6 0.130064 0.063960 0.434422 0.028196
O59   O     O_2   0.103674 0.147471 0.486353 -0.245924
O60   O     O_2   0.149871 0.130805 0.372399 -0.261525
O61   O     O_3   0.066928 0.967387 0.406920 -0.470188
H27   H     H_    0.042260 0.953014 0.447988 0.345791
S4    S     S_3+6 0.858651 0.067636 0.569633 0.011852
O62   O     O_2   0.888070 0.138899 0.514311 -0.276829
O63   O     O_2   0.825990 0.148169 0.618977 -0.284277
O64   O     O_3   0.922962 0.990906 0.613787 -0.488145
H28   H     H_    0.956043 0.053178 0.633114 0.376317
S5    S     S_3+6 0.869743 0.510543 0.438742 0.018523
O65   O     O_2   0.890061 0.423767 0.385024 -0.174825
O66   O     O_2   0.862528 0.633758 0.407276 -0.317729
O67   O     O_3   0.929929 0.506247 0.506778 -0.454274
H29   H     H_    0.906491 0.529435 0.547465 0.306248
S6    S     S_3+6 0.114950 0.414616 0.566247 0.083652
O68   O     O_2   0.095488 0.298234 0.598000 -0.152016
O69   O     O_2   0.116130 0.513465 0.619664 -0.286125
O70   O     O_3   0.055408 0.441629 0.498823 -0.410308
H30   H     H_    0.080343 0.471086 0.460707 0.306667
S7    S     S_3+6 0.389143 0.927672 0.458133 0.065793
O71   O     O_2   0.408569 0.819942 0.417452 -0.146163
O72   O     O_2   0.390698 0.038222 0.414129 -0.308129
O73   O     O_3   0.443356 0.940207 0.531529 -0.463464
H31   H     H_    0.439472 0.863091 0.556242 0.392503
S8    S     S_3+6 0.613941 0.881652 0.542501 0.093052
O74   O     O_2   0.596345 0.776718 0.585748 -0.162179
O75   O     O_2   0.608823 0.994955 0.584201 -0.301827
O76   O     O_3   0.558343 0.886124 0.469612 -0.383191
H32   H     H_    0.579853 0.939065 0.437345 0.330372
S9    S     S_3+6 0.619006 0.345678 0.993964 -0.009825
O77   O     O_2   0.682604 0.271127 0.008650 -0.335341
O78   O     O_2   0.614639 0.393690 0.921004 -0.246442
O79   O     O_3   0.617085 0.460421 0.050726 -0.510742
H33   H     H_    0.571571 0.497988 0.039009 0.351328
S10   S     S_3+6 0.378935 0.000797 0.009001 -0.013649
O80   O     O_2   0.313370 0.067149 0.988159 -0.377901
O81   O     O_2   0.385310 0.891657 0.964101 -0.244984
O82   O     O_3   0.382547 0.958198 0.092743 -0.473511
H34   H     H_    0.370546 0.031195 0.118350 0.348372
S11   S     S_3+6 0.120559 0.499721 0.990745 -0.014676
O83   O     O_2   0.185769 0.566656 0.013062 -0.333147
O84   O     O_2   0.113903 0.390036 0.034526 -0.282376
O85   O     O_3   0.118677 0.459052 0.906586 -0.476337
H35   H     H_    0.072975 0.422185 0.894201 0.351058
S12   S     S_3+6 0.881608 0.847179 0.006475 -0.008290
O86   O     O_2   0.817720 0.772945 0.991815 -0.333834
O87   O     O_2   0.886221 0.896565 0.079450 -0.241173
O88   O     O_3   0.883748 0.960807 0.949717 -0.513186
H36   H     H_    0.929623 0.997596 0.960924 0.347515

loop_
_geom_bond_atom_site_label_1
_geom_bond_atom_site_label_2
_ccdc_geom_bond_type
C58   C62   S    
C79   O7    A    
O64   H28   S    
Cr2   O22   S    
C67   C83   S    
S2    O56   D    
Cr10  O18   S    
C71   O3    A    
C83   O43   A    
C17   C29   S    
C9    C21   S    
C14   C18   S    
Cr10  O38   S    
C19   C23   S    
C35   C36   S    
C8    C96   S    
Cr1   O1    S    
C44   C80   S    
C75   O51   A    
Cr6   O26   S    
S8    O75   D    
C48   O32   A    
C94   H6    S    
C68   C84   S    
O73   H31   S    
C38   S10   S    
C38   C49   S    
Cr11  O39   S    
S5    O65   D    
C10   C22   S    
C15   C19   S    
Cr2   O18   S    
C5    C9    S    
Cr9   O37   S    
Cr7   O51   S    
C33   C42   S    
C72   O40   A    
C16   C20   S    
C77   O5    A    
C38   C42   S    
C78   O10   A    
S6    O68   D    
C15   C95   S    
Cr2   O42   S    
C41   C77   S    
C11   C71   S    
C72   O4    A    
C43   C79   S    
O88   H36   S    
Cr4   O48   S    
S9    O79   S    
C7    C27   S    
S10   O82   S    
C35   H19   S    
Cr6   O6    S    
C21   S5    S    
C73   O45   A    
C45   O29   A    
O79   H33   S    
C9    C13   S    
C50   H22   S    
S2    O58   S    
C59   C67   T    
C43   C51   S    
Cr12  O20   S    
C55   C74   S    
C11   C15   S    
C58   C66   T    
C79   O11   A    
C12   C16   S    
C95   H7    S    
O67   H29   S    
C6    C94   S    
C55   C63   T    
Cr4   O44   S    
S2    O57   D    
S11   O83   D    
C56   C64   T    
Cr10  O10   S    
O61   H27   S    
C18   C30   S    
Cr1   O21   S    
Cr2   O46   S    
C75   O47   A    
O82   H34   S    
C4    C29   S    
C16   S4    S    
C24   S8    S    
Cr7   O19   S    
C46   C85   S    
Cr11  O19   S    
C19   C31   S    
Cr4   O24   S    
C37   S9    S    
C39   C52   S    
Cr12  O36   S    
Cr5   O25   S    
C2    O22   A    
C18   C22   S    
C87   C92   T    
C3    O27   A    
S12   O87   D    
C6    H2    S    
C36   H20   S    
C34   C41   S    
C53   C61   T    
Cr8   O28   S    
C46   O34   A    
C78   O6    A    
C41   C49   S    
S8    O74   D    
C82   O14   A    
C7    C11   S    
C77   O9    A    
C23   C27   S    
C84   O16   A    
C25   C29   S    
C51   H23   S    
Cr11  O35   S    
C16   C96   S    
C30   C94   S    
C13   S1    S    
Cr5   O5    S    
C29   C93   S    
C27   C31   S    
C51   C52   S    
Cr6   O50   S    
C20   C24   S    
C36   C40   S    
Cr1   O41   S    
O76   H32   S    
C10   C14   S    
S7    O73   S    
C57   C65   T    
C91   C92   S    
C27   H15   S    
S4    O62   D    
S1    O55   S    
C23   S7    S    
S3    O59   D    
C54   C62   T    
C80   O12   A    
Cr11  O15   S    
C80   O8    A    
C49   H21   S    
S12   O88   S    
Cr4   O20   S    
C1    O21   A    
Cr3   O23   S    
C2    C31   S    
C52   H24   S    
C36   C43   S    
C3    C30   S    
C35   C39   S    
S7    O71   D    
Cr3   O47   S    
Cr7   O7    S    
C66   C82   S    
C47   O35   A    
Cr1   O45   S    
C74   O46   A    
C88   C91   T    
C28   C32   S    
C8    C12   S    
Cr9   O13   S    
C33   H17   S    
C33   C34   S    
C6    C26   S    
C48   C87   S    
Cr3   O3    S    
C1    O25   A    
C69   O37   A    
S10   O81   D    
C35   C44   S    
C19   H9    S    
C42   C50   S    
C5    C25   S    
C10   C70   S    
C31   C95   S    
C4    O24   A    
Cr6   O18   S    
O58   H26   S    
C81   O13   A    
C25   H13   S    
Cr12  O40   S    
S11   O84   D    
C8    C28   S    
S11   O85   S    
C83   O15   A    
C59   C63   S    
C53   C76   S    
C5    H1    S    
C3    O23   A    
Cr5   O17   S    
Cr11  O11   S    
C40   C51   S    
C18   H12   S    
Cr12  O12   S    
Cr5   O49   S    
Cr6   O30   S    
C42   C78   S    
C20   C32   S    
S5    O67   S    
Cr9   O17   S    
S4    O64   S    
C21   C25   S    
C20   H10   S    
C69   O1    A    
C56   C73   S    
O85   H35   S    
S9    O77   D    
S8    O76   S    
C34   C38   S    
Cr7   O31   S    
C96   H8    S    
C24   C28   S    
C9    C69   S    
C76   O48   A    
C86   C89   T    
C44   C52   S    
Cr8   O32   S    
C5    C93   S    
C85   C90   T    
C28   H16   S    
C57   C61   S    
C74   O50   A    
C7    H3    S    
S6    O70   S    
C7    C95   S    
C12   C24   S    
S6    O69   D    
C73   O49   A    
Cr10  O14   S    
C13   C17   S    
C60   C64   S    
C47   C88   S    
Cr8   O20   S    
Cr5   O29   S    
C45   C86   S    
C70   O38   A    
C82   O42   A    
C15   S3    S    
C32   C96   S    
C76   O52   A    
C39   S11   S    
C37   C50   S    
Cr7   O27   S    
S1    O53   D    
C4    O28   A    
Cr3   O19   S    
Cr10  O34   S    
C47   O31   A    
O70   H30   S    
C22   S6    S    
C34   H18   S    
C11   C23   S    
S12   O86   D    
S9    O78   D    
C8    H4    S    
Cr9   O33   S    
C93   H5    S    
C71   O39   A    
Cr2   O2    S    
C1    C32   S    
C37   C41   S    
S10   O80   D    
C12   C72   S    
Cr9   O9    S    
C33   C37   S    
S7    O72   D    
S1    O54   D    
C6    C10   S    
C17   H11   S    
C54   C75   S    
C14   S2    S    
S3    O61   S    
Cr8   O8    S    
C40   C44   S    
Cr3   O43   S    
C2    O26   A    
C60   C68   T    
C40   S12   S    
C49   C50   S    
C22   C26   S    
C39   C43   S    
C13   C93   S    
C70   O2    A    
Cr1   O17   S    
C65   C81   S    
O55   H25   S    
Cr8   O52   S    
C26   H14   S    
S3    O60   D    
C89   C90   S    
C84   O44   A    
S5    O66   D    
C45   O33   A    
C48   O36   A    
C14   C94   S    
S4    O63   D    
Cr4   O4    S    
C81   O41   A    
C46   O30   A    
Cr12  O16   S    
C26   C30   S    
C17   C21   S    
