data_mof_unit_1274.cif
_audit_creation_date              2012-12-10T19:05:05-0500
_audit_creation_method            fapswitch 2.2
_symmetry_space_group_name_H-M    P1
_symmetry_Int_Tables_number       1
_space_group_crystal_system       triclinic
_cell_length_a                    13.043658
_cell_length_b                    13.615473
_cell_length_c                    15.735395
_cell_angle_alpha                 89.812705
_cell_angle_beta                  91.600932
_cell_angle_gamma                 84.953207
_cell_volume                      2782.56999273

loop_
_atom_site_label
_atom_site_type_symbol
_atom_type_description
_atom_site_fract_x
_atom_site_fract_y
_atom_site_fract_z
_atom_type_partial_charge
C1    C     C_R   0.480547 0.685103 0.498536 0.884734
C2    C     C_2   0.544805 0.019756 0.501219 -0.032005
C3    C     C_2   0.456469 0.979134 0.480140 -0.034718
C4    C     C_R   0.498508 0.498953 0.661803 0.891878
C5    C     C_1   0.455860 0.875199 0.485669 -0.049522
C6    C     C_1   0.544639 0.123999 0.501142 -0.043566
C7    C     C_1   0.464271 0.787971 0.491903 -0.188779
C8    C     C_2   0.034061 0.471437 0.477756 -0.232191
C9    C     C_2   0.965846 0.528954 0.522870 -0.250256
C10   C     C_1   0.854390 0.520465 0.517018 0.143906
C11   C     C_1   0.145560 0.479781 0.483323 0.125246
C12   C     C_3   0.399964 0.548314 0.050425 -0.222951
C13   C     C_R   0.519479 0.314815 0.500673 0.912685
C14   C     C_R   0.501524 0.501867 0.338242 0.902804
C15   C     C_3   0.391754 0.526215 0.953141 -0.225275
C16   C     C_3   0.569723 0.593599 0.944385 -0.270994
C17   C     C_3   0.584045 0.608139 0.045796 -0.090900
C18   C     C_1   0.505363 0.512617 0.250342 -0.131935
C19   C     C_3   0.504684 0.503359 0.917485 0.058049
C20   C     C_R   0.340962 0.643917 0.084080 0.143291
C21   C     C_R   0.292430 0.640537 0.163304 -0.187676
C22   C     C_R   0.236944 0.723658 0.196130 -0.126495
C23   C     C_3   0.515715 0.523220 0.084085 0.054190
C24   C     C_R   0.226849 0.811794 0.150230 -0.121486
C25   C     C_R   0.272167 0.816839 0.071396 -0.124225
C26   C     C_R   0.328603 0.734153 0.038675 -0.068403
C27   C     C_2   0.674806 0.398910 0.095720 0.924862
C28   C     C_R   0.358463 0.036671 0.453206 0.149457
C29   C     C_R   0.308552 0.013879 0.376355 -0.174004
C30   C     C_R   0.216048 0.066706 0.350604 -0.156519
C31   C     C_R   0.172273 0.142235 0.401492 -0.104890
C32   C     C_R   0.220230 0.164228 0.478761 -0.117779
C33   C     C_R   0.312379 0.111143 0.505035 -0.128978
C34   C     C_3   0.561379 0.409605 0.058222 -0.200964
C35   C     C_R   0.642700 0.960806 0.526438 0.142049
C36   C     C_R   0.691744 0.977679 0.605040 -0.146987
C37   C     C_R   0.782996 0.921773 0.629446 -0.154125
C38   C     C_R   0.826186 0.848939 0.575573 -0.135607
C39   C     C_R   0.778763 0.832524 0.496809 -0.110865
C40   C     C_R   0.687864 0.888638 0.471915 -0.130162
C41   C     C_R   0.306591 0.589693 0.902659 0.150752
C42   C     C_R   0.324395 0.657074 0.837184 -0.163081
C43   C     C_R   0.242308 0.711241 0.794695 -0.133852
C44   C     C_R   0.141163 0.700049 0.816698 -0.112547
C45   C     C_3   0.552174 0.397379 0.954713 -0.208100
C46   C     C_R   0.121755 0.634661 0.881411 -0.125751
C47   C     C_R   0.203335 0.579733 0.923649 -0.126178
C48   C     C_R   0.657135 0.615156 0.883657 0.184980
C49   C     C_R   0.636216 0.684970 0.816990 -0.202405
C50   C     C_R   0.709960 0.701375 0.757051 -0.093188
C51   C     C_R   0.806476 0.648780 0.761895 -0.106694
C52   C     C_R   0.829105 0.579707 0.826732 -0.148952
C53   C     C_R   0.755312 0.563072 0.886687 0.038387
C54   C     C_R   0.550149 0.717230 0.072961 0.100803
C55   C     C_R   0.532363 0.742976 0.159233 -0.081162
C56   C     C_1   0.511012 0.521771 0.175756 0.008368
C57   C     C_R   0.505566 0.840246 0.183549 -0.143189
C58   C     C_R   0.501675 0.916017 0.123897 -0.110893
C59   C     C_R   0.529300 0.895297 0.040800 -0.127637
C60   C     C_R   0.556251 0.798128 0.016287 -0.150176
C61   C     C_2   0.696027 0.605493 0.079522 0.909526
C62   C     C_2   0.485270 0.312894 0.926373 0.854847
C63   C     C_2   0.652309 0.356180 0.912369 0.954538
C64   C     C_R   0.505179 0.324894 0.105448 0.137537
C65   C     C_R   0.397410 0.315510 0.098233 -0.139231
C66   C     C_R   0.349041 0.248300 0.147176 -0.125413
C67   C     C_1   0.496878 0.499115 0.825506 0.086253
C68   C     C_R   0.406690 0.183049 0.201345 -0.129133
C69   C     C_R   0.513221 0.180590 0.202442 -0.178553
C70   C     C_R   0.561725 0.247048 0.152919 -0.000956
C71   C     C_1   0.495384 0.498007 0.750237 -0.091733
C72   C     C_1   0.535967 0.211572 0.500961 -0.172094
H1    H     H_    0.356990 0.456053 0.949674 0.170568
H2    H     H_    0.365373 0.743041 0.979228 0.124964
H3    H     H_    0.828889 0.394402 0.081835 0.353699
H4    H     H_    0.341852 0.955977 0.335917 0.123740
H5    H     H_    0.178599 0.049363 0.290947 0.128589
H6    H     H_    0.100906 0.183345 0.381291 0.129376
H7    H     H_    0.185737 0.222130 0.518515 0.138454
H8    H     H_    0.347432 0.127835 0.565876 0.136541
H9    H     H_    0.658648 0.033233 0.647795 0.141465
H10   H     H_    0.819872 0.934450 0.690413 0.143915
H11   H     H_    0.896444 0.805322 0.594816 0.120710
H12   H     H_    0.354629 0.494888 0.080417 0.127082
H13   H     H_    0.812509 0.776374 0.454980 0.140370
H14   H     H_    0.652531 0.875687 0.410318 0.128797
H15   H     H_    0.400610 0.670722 0.818997 0.101892
H16   H     H_    0.257341 0.762644 0.744880 0.132118
H17   H     H_    0.077840 0.742405 0.783881 0.122973
H18   H     H_    0.043390 0.626629 0.899149 0.135233
H19   H     H_    0.186050 0.529490 0.973744 0.118428
H20   H     H_    0.561940 0.726565 0.810145 0.097725
H21   H     H_    0.691630 0.754388 0.706328 0.147340
H22   H     H_    0.863475 0.661154 0.715238 0.114514
H23   H     H_    0.993464 0.584154 0.565384 0.153755
H24   H     H_    0.903688 0.538044 0.830173 0.125647
H25   H     H_    0.775789 0.508964 0.934976 0.179938
H26   H     H_    0.542266 0.690308 0.209962 0.141098
H27   H     H_    0.489672 0.856971 0.249360 0.119831
H28   H     H_    0.480546 0.991078 0.142639 0.140372
H29   H     H_    0.531464 0.954895 0.995348 0.150595
H30   H     H_    0.583265 0.788426 0.952828 0.143728
H31   H     H_    0.836144 0.656297 0.068280 0.344168
H32   H     H_    0.463049 0.167692 0.933255 0.339523
H33   H     H_    0.745292 0.353892 0.811620 0.344588
H34   H     H_    0.006329 0.416249 0.435300 0.165785
H35   H     H_    0.348917 0.352192 0.050074 0.106596
H36   H     H_    0.266576 0.244795 0.140845 0.130765
H37   H     H_    0.369308 0.130479 0.238503 0.141474
H38   H     H_    0.558810 0.125218 0.240160 0.136523
H39   H     H_    0.644468 0.234002 0.151735 0.155091
H40   H     H_    0.511010 0.654076 0.927926 0.136921
H41   H     H_    0.297189 0.572956 0.200187 0.138463
H42   H     H_    0.201345 0.719469 0.257202 0.140326
H43   H     H_    0.184027 0.876207 0.175789 0.124301
H44   H     H_    0.264993 0.885483 0.035956 0.131306
N1    N     N_1   0.234540 0.484780 0.486630 -0.091516
N2    N     N_1   0.765460 0.515220 0.513370 -0.085014
O1    O     O_R   0.402510 0.634760 0.495110 -0.612959
O2    O     O_R   0.762163 0.400242 0.046778 -0.827328
O3    O     O_2   0.717566 0.579891 0.152879 -0.596783
O4    O     O_R   0.767304 0.656887 0.036621 -0.818818
O5    O     O_2   0.418567 0.325235 0.870126 -0.652521
O6    O     O_R   0.509558 0.216915 0.957936 -0.770347
O7    O     O_2   0.699382 0.280636 0.940714 -0.562048
O8    O     O_R   0.681286 0.391721 0.834000 -0.830444
O9    O     O_R   0.572960 0.644530 0.503690 -0.608646
O10   O     O_R   0.414740 0.495110 0.618560 -0.609769
O11   O     O_R   0.585180 0.504880 0.627150 -0.592510
O12   O     O_R   0.427040 0.355470 0.496310 -0.603646
O13   O     O_R   0.597490 0.365240 0.504890 -0.603497
O14   O     O_R   0.414820 0.495120 0.372850 -0.625761
O15   O     O_R   0.585260 0.504890 0.381440 -0.579320
O16   O     O_2   0.688924 0.395002 0.173129 -0.600977
Zn1   Zn    Zn3+2 0.386190 0.493480 0.494270 0.973677
Zn2   Zn    Zn3+2 0.613810 0.506520 0.505730 1.002978

loop_
_geom_bond_atom_site_label_1
_geom_bond_atom_site_label_2
_ccdc_geom_bond_type
C2    C35   S    
C66   C68   A    
C38   H11   S    
C41   C42   A    
C14   C18   S    
C35   C36   A    
C16   C48   S    
C62   O6    S    
C52   H24   S    
C23   C56   S    
C29   H4    S    
C14   O14   A    
C27   O2    S    
C6    C72   T    
C12   C23   S    
C28   C29   A    
C29   C30   A    
H33   O8    S    
C43   H16   S    
C36   C37   A    
C8    C11   S    
C38   C39   A    
N1    Zn1   S    
C16   C17   S    
C57   H27   S    
C45   C62   S    
C12   H12   S    
C61   O3    D    
C1    O1    A    
C40   H14   S    
C17   C61   S    
C46   C47   A    
C30   H5    S    
O12   Zn1   S    
C68   C69   A    
O15   Zn2   S    
C13   O12   A    
C19   C67   S    
C64   C70   A    
C9    C10   S    
C9    H23   S    
C18   C56   T    
C59   C60   A    
C21   C22   A    
C2    C6    S    
C60   H30   S    
C62   O5    D    
C44   C46   A    
C27   C34   S    
C41   C47   A    
C48   C53   A    
C4    O10   A    
C51   C52   A    
C59   H29   S    
C58   H28   S    
C24   C25   A    
C15   C41   S    
C21   H41   S    
O13   Zn2   S    
O10   Zn1   S    
C39   C40   A    
C5    C7    T    
C8    C9    D    
C54   C60   A    
C53   H25   S    
C58   C59   A    
C45   C63   S    
O1    Zn1   S    
C61   O4    S    
C15   C19   S    
C43   C44   A    
C37   C38   A    
C10   N2    T    
O11   Zn2   S    
C69   H38   S    
C31   C32   A    
C12   C15   S    
C36   H9    S    
C23   C34   S    
C12   C20   S    
C34   C64   S    
C50   C51   A    
C13   O13   A    
C50   H21   S    
C34   C45   S    
C17   C23   S    
O9    Zn2   S    
C63   O7    D    
C46   H18   S    
C48   C49   A    
C15   H1    S    
C13   C72   S    
C28   C33   A    
C49   C50   A    
C55   C57   A    
C22   C24   A    
C37   H10   S    
C25   H44   S    
C42   C43   A    
C39   H13   S    
C49   H20   S    
C11   N1    T    
N2    Zn2   S    
C52   C53   A    
C16   H40   S    
C31   H6    S    
C54   C55   A    
C3    C28   S    
C1    C7    S    
C27   O16   D    
C47   H19   S    
H3    O2    S    
C1    O9    A    
C66   H36   S    
C3    C5    S    
C8    H34   S    
C19   C45   S    
C33   H8    S    
C4    O11   A    
H32   O6    S    
C14   O15   A    
C64   C65   A    
C2    C3    D    
C25   C26   A    
C32   C33   A    
C32   H7    S    
C57   C58   A    
C30   C31   A    
C20   C26   A    
O14   Zn1   S    
C55   H26   S    
C26   H2    S    
C35   C40   A    
C67   C71   T    
C68   H37   S    
C69   C70   A    
C63   O8    S    
C70   H39   S    
C51   H22   S    
C22   H42   S    
C20   C21   A    
C24   H43   S    
C65   C66   A    
C42   H15   S    
H31   O4    S    
C17   C54   S    
C65   H35   S    
C4    C71   S    
C44   H17   S    
C16   C19   S    
