data_mof_unit_628.cif
_audit_creation_date              2012-12-11T14:08:46-0500
_audit_creation_method            fapswitch 2.2
_symmetry_space_group_name_H-M    P1
_symmetry_Int_Tables_number       1
_space_group_crystal_system       triclinic
_cell_length_a                    28.08711
_cell_length_b                    7.198381
_cell_length_c                    17.174734
_cell_angle_alpha                 90.000526
_cell_angle_beta                  102.315578
_cell_angle_gamma                 90.001348
_cell_volume                      3392.50864976

loop_
_atom_site_label
_atom_site_type_symbol
_atom_type_description
_atom_site_fract_x
_atom_site_fract_y
_atom_site_fract_z
_atom_type_partial_charge
O1    O     O_R   0.000700 0.436510 0.857920 -0.531783
O2    O     O_R   0.999300 0.563490 0.142080 -0.532446
O3    O     O_R   0.999300 0.936510 0.642080 -0.531785
O4    O     O_R   0.000700 0.063490 0.357920 -0.532451
O5    O     O_R   0.930080 0.766380 0.721890 -0.537819
O6    O     O_R   0.069920 0.233620 0.278110 -0.537451
O7    O     O_R   0.069920 0.266380 0.778110 -0.537824
O8    O     O_R   0.930080 0.733620 0.221890 -0.537448
C1    C     C_R   0.910546 0.597613 0.710036 0.726722
C2    C     C_R   0.089135 0.402062 0.293306 0.728403
C3    C     C_R   0.089454 0.097617 0.789961 0.726722
C4    C     C_R   0.910865 0.902058 0.206700 0.728433
O9    O     O_R   0.996180 0.766230 0.862310 -0.544004
O10   O     O_R   0.003820 0.233770 0.137690 -0.545240
O11   O     O_R   0.003820 0.266230 0.637690 -0.544006
O12   O     O_R   0.996180 0.733770 0.362310 -0.545240
O13   O     O_R   0.065870 0.936460 0.783500 -0.533348
O14   O     O_R   0.934130 0.063540 0.216500 -0.533389
O15   O     O_R   0.934130 0.436460 0.716500 -0.533344
O16   O     O_R   0.065870 0.563540 0.283500 -0.533388
C5    C     C_R   0.998454 0.596455 0.894464 0.754424
C6    C     C_R   0.001484 0.403541 0.105516 0.754066
C7    C     C_R   0.001546 0.096454 0.605536 0.754421
C8    C     C_R   0.998516 0.903542 0.394483 0.754050
O17   O     O_3   0.022790 0.603020 0.723980 -0.377227
O18   O     O_3   0.977210 0.396980 0.276020 -0.376666
O19   O     O_3   0.977210 0.103020 0.776020 -0.377219
O20   O     O_3   0.022790 0.896980 0.223980 -0.376674
V1    V     V_3+5 0.995770 0.877900 0.754830 1.392682
V2    V     V_3+5 0.004230 0.122100 0.245170 1.402812
V3    V     V_3+5 0.004230 0.377900 0.745170 1.392676
V4    V     V_3+5 0.995770 0.622100 0.254830 1.402823
C9    C     C_2   0.001822 0.082627 0.519595 -0.337500
C10   C     C_2   0.998375 0.917363 0.480470 -0.336791
C11   C     C_2   0.998178 0.582627 0.980405 -0.337494
C12   C     C_2   0.001625 0.417363 0.019529 -0.336799
H1    H     H_    0.004689 0.211370 0.487919 0.152114
H2    H     H_    0.995557 0.788612 0.512164 0.153982
H3    H     H_    0.995311 0.711370 0.012083 0.152115
H4    H     H_    0.004443 0.288612 0.987834 0.153981
C13   C     C_R   0.679857 0.838470 0.021570 0.595271
C14   C     C_R   0.323162 0.165871 0.935399 0.584861
C15   C     C_R   0.320136 0.338516 0.478495 0.595301
C16   C     C_R   0.676829 0.665787 0.564579 0.584884
O21   O     O_2   0.703459 0.691341 0.999070 -0.512863
O22   O     O_2   0.297006 0.256390 0.980938 -0.526482
O23   O     O_2   0.296532 0.191368 0.500974 -0.512869
O24   O     O_2   0.702978 0.756307 0.519029 -0.526475
N1    N     N_R   0.704799 0.963043 0.075686 -0.553844
N2    N     N_R   0.299653 0.071967 0.868794 -0.548337
N3    N     N_R   0.295196 0.463112 0.424391 -0.553850
N4    N     N_R   0.700346 0.571887 0.631178 -0.548336
C17   C     C_R   0.681594 0.112536 0.100199 0.607811
C18   C     C_R   0.325480 0.983399 0.820406 0.594958
C19   C     C_R   0.318403 0.612643 0.399910 0.607820
C20   C     C_R   0.674525 0.483308 0.679574 0.594954
C21   C     C_R   0.773399 0.860472 0.180171 -0.103012
C22   C     C_R   0.222663 0.175210 0.784658 -0.121084
C23   C     C_R   0.226608 0.360373 0.319917 -0.103021
C24   C     C_R   0.777333 0.675135 0.715328 -0.121071
C25   C     C_R   0.823351 0.845329 0.213734 0.071132
C26   C     C_R   0.171713 0.183937 0.764387 0.068946
C27   C     C_R   0.176658 0.345204 0.286337 0.071113
C28   C     C_R   0.828284 0.683870 0.735607 0.068957
C29   C     C_R   0.841368 0.988637 0.093639 0.079339
C30   C     C_R   0.167998 0.980134 0.877571 0.077983
C31   C     C_R   0.158622 0.488806 0.406364 0.079339
C32   C     C_R   0.832006 0.480171 0.622399 0.077978
C33   C     C_R   0.790489 0.007464 0.061396 0.158368
C34   C     C_R   0.219803 0.965752 0.894678 0.165059
C35   C     C_R   0.209500 0.507643 0.438623 0.158316
C36   C     C_R   0.780200 0.465769 0.605282 0.165064
C37   C     C_R   0.756679 0.941539 0.105318 0.306122
C38   C     C_R   0.246937 0.068921 0.848982 0.302303
C39   C     C_R   0.243318 0.441597 0.394742 0.306139
C40   C     C_R   0.753062 0.568882 0.650988 0.302287
C41   C     C_R   0.605449 0.017535 0.013332 -0.035084
C42   C     C_R   0.401542 0.076320 0.908191 -0.047274
C43   C     C_R   0.394546 0.517601 0.486764 -0.034875
C44   C     C_R   0.598456 0.576245 0.591822 -0.047271
C45   C     C_R   0.629818 0.864393 0.988702 -0.042307
C46   C     C_R   0.374418 0.168356 0.956715 -0.036154
C47   C     C_R   0.370174 0.364432 0.511370 -0.042098
C48   C     C_R   0.625572 0.668277 0.543283 -0.036199
C49   C     C_R   0.603609 0.740585 0.932414 -0.129996
C50   C     C_R   0.399001 0.256880 0.026328 -0.121478
C51   C     C_R   0.396383 0.240594 0.567644 -0.130051
C52   C     C_R   0.600980 0.756822 0.473682 -0.121363
C53   C     C_R   0.631466 0.141891 0.069903 -0.051855
C54   C     C_R   0.376915 0.984273 0.839190 -0.058306
C55   C     C_R   0.368530 0.642008 0.430222 -0.051898
C56   C     C_R   0.623090 0.484183 0.660811 -0.058278
C57   C     C_R   0.857754 0.911520 0.171097 -0.088585
C58   C     C_R   0.143753 0.087994 0.811308 -0.098739
C59   C     C_R   0.142246 0.411539 0.328929 -0.088627
C60   C     C_R   0.856247 0.587982 0.688680 -0.098701
H5    H     H_    0.620907 0.618408 0.914100 0.173443
H6    H     H_    0.379123 0.322897 0.066338 0.171684
H7    H     H_    0.379082 0.118403 0.585944 0.173421
H8    H     H_    0.620850 0.822847 0.433663 0.171675
C61   C     C_R   0.480134 0.967300 0.884315 0.000190
C62   C     C_R   0.529632 0.187156 0.013570 -0.010859
C63   C     C_R   0.519868 0.467261 0.615735 0.000146
C64   C     C_R   0.470363 0.687237 0.486544 -0.010762
C65   C     C_R   0.477773 0.178821 0.996035 0.049310
C66   C     C_R   0.529969 0.929761 0.919394 0.109502
C67   C     C_R   0.522220 0.678832 0.504034 0.049421
C68   C     C_R   0.470028 0.429754 0.580673 0.109369
C69   C     C_R   0.453245 0.074803 0.929253 0.028963
C70   C     C_R   0.554985 0.045417 0.981837 0.087977
C71   C     C_R   0.546753 0.574762 0.570790 0.028826
C72   C     C_R   0.445010 0.545459 0.518254 0.088145
C73   C     C_R   0.455335 0.899239 0.808233 -0.027393
C74   C     C_R   0.557379 0.325022 0.063406 -0.037547
C75   C     C_R   0.544676 0.399175 0.691805 -0.027330
C76   C     C_R   0.442617 0.825226 0.436785 -0.037814
C77   C     C_R   0.404005 0.901375 0.788905 -0.167378
C78   C     C_R   0.607519 0.297073 0.092496 -0.158387
C79   C     C_R   0.596006 0.401287 0.711109 -0.167367
C80   C     C_R   0.392476 0.797268 0.407685 -0.158327
O25   O     O_2   0.301522 0.893611 0.754688 -0.520941
O26   O     O_2   0.707062 0.233341 0.153293 -0.515082
O27   O     O_2   0.698489 0.393514 0.745283 -0.520942
O28   O     O_2   0.292936 0.733478 0.346832 -0.515074
C81   C     C_R   0.554549 0.772621 0.898553 -0.073699
C82   C     C_R   0.449729 0.259599 0.046228 -0.112744
C83   C     C_R   0.445445 0.272611 0.601504 -0.073977
C84   C     C_R   0.550251 0.759590 0.453819 -0.112376
H9    H     H_    0.244122 0.251977 0.750044 0.151192
H10   H     H_    0.746863 0.811660 0.212922 0.148008
H11   H     H_    0.755872 0.751860 0.749949 0.151192
H12   H     H_    0.253150 0.311460 0.287199 0.148026
H13   H     H_    0.384966 0.844478 0.732394 0.199855
H14   H     H_    0.628311 0.400820 0.131201 0.195281
H15   H     H_    0.615052 0.344379 0.767611 0.199870
H16   H     H_    0.371677 0.901065 0.369023 0.195439
H17   H     H_    0.535551 0.669587 0.857823 0.143113
H18   H     H_    0.466633 0.320508 0.102874 0.138350
H19   H     H_    0.464441 0.169560 0.642224 0.143151
H20   H     H_    0.533328 0.820586 0.397199 0.138287
C85   C     C_3   0.878751 0.048447 0.046400 -0.743929
H21   H     H_    0.863093 0.078605 0.982954 0.207015
H22   H     H_    0.897792 0.175544 0.073293 0.214868
H23   H     H_    0.905846 0.935859 0.046783 0.187416
C86   C     C_3   0.138253 0.883780 0.929889 -0.733410
H24   H     H_    0.160171 0.838171 0.988121 0.209300
H25   H     H_    0.110381 0.980328 0.943862 0.188084
H26   H     H_    0.119963 0.759632 0.898709 0.215002
C87   C     C_3   0.121232 0.548762 0.453565 -0.743826
H27   H     H_    0.136880 0.578965 0.517010 0.206981
H28   H     H_    0.102213 0.675869 0.426640 0.214875
H29   H     H_    0.094120 0.436232 0.453188 0.187394
C88   C     C_3   0.861756 0.383892 0.570073 -0.733465
H30   H     H_    0.839841 0.338334 0.511829 0.209312
H31   H     H_    0.889628 0.480468 0.556125 0.188083
H32   H     H_    0.880045 0.259729 0.601233 0.215005
C89   C     C_3   0.772386 0.101956 0.981759 -0.652361
H33   H     H_    0.789356 0.241397 0.982214 0.217536
H34   H     H_    0.781671 0.016189 0.933429 0.196430
H35   H     H_    0.732436 0.123822 0.967051 0.217698
C90   C     C_3   0.245942 0.837200 0.959716 -0.671679
H36   H     H_    0.229314 0.696642 0.951580 0.214658
H37   H     H_    0.285034 0.818822 0.959057 0.211450
H38   H     H_    0.243502 0.893076 0.018979 0.216020
C91   C     C_3   0.227592 0.602258 0.518236 -0.652328
H39   H     H_    0.210632 0.741730 0.517729 0.217573
H40   H     H_    0.218289 0.516595 0.566585 0.196388
H41   H     H_    0.267545 0.624077 0.532962 0.217699
C92   C     C_3   0.754067 0.337255 0.540224 -0.671647
H42   H     H_    0.770703 0.196712 0.548332 0.214634
H43   H     H_    0.714977 0.318822 0.540885 0.211467
H44   H     H_    0.756502 0.393201 0.480972 0.216041
C93   C     C_3   0.148091 0.293295 0.691277 -0.715003
H45   H     H_    0.175195 0.340357 0.656975 0.199863
H46   H     H_    0.120908 0.205674 0.651017 0.190241
H47   H     H_    0.130015 0.418850 0.708839 0.221310
C94   C     C_3   0.839268 0.762865 0.295901 -0.725508
H48   H     H_    0.807665 0.727350 0.322463 0.216210
H49   H     H_    0.860297 0.633531 0.292858 0.218924
H50   H     H_    0.862380 0.863859 0.335999 0.189501
C95   C     C_3   0.851902 0.793169 0.808733 -0.715075
H51   H     H_    0.824796 0.840203 0.843036 0.199873
H52   H     H_    0.879080 0.705517 0.848980 0.190249
H53   H     H_    0.869983 0.918730 0.791196 0.221319
C96   C     C_3   0.160754 0.262558 0.204202 -0.725423
H54   H     H_    0.192363 0.226963 0.177669 0.216193
H55   H     H_    0.139725 0.133240 0.207287 0.218950
H56   H     H_    0.137648 0.363471 0.164054 0.189489
C97   C     C_2   0.480691 0.853604 0.742466 0.745904
O29   O     O_2   0.458800 0.770931 0.683431 -0.555778
O30   O     O_R   0.528085 0.916060 0.744574 -0.653303
H57   H     H_    0.540363 0.879729 0.695300 0.302538
C98   C     C_2   0.537289 0.510425 0.077589 0.742997
O31   O     O_2   0.554265 0.596570 0.138619 -0.555071
O32   O     O_R   0.499923 0.589339 0.020130 -0.664347
H58   H     H_    0.489115 0.714554 0.037150 0.295849
C99   C     C_2   0.519329 0.353568 0.757587 0.745984
O33   O     O_2   0.541227 0.270936 0.816625 -0.555760
O34   O     O_R   0.471936 0.416019 0.755490 -0.653298
H59   H     H_    0.459666 0.379717 0.804776 0.302510
C100  C     C_2   0.462704 0.010757 0.422744 0.743191
O35   O     O_2   0.445564 0.097555 0.361993 -0.555170
O36   O     O_R   0.500214 0.089163 0.480083 -0.664369
H60   H     H_    0.510980 0.214554 0.463179 0.295872

loop_
_geom_bond_atom_site_label_1
_geom_bond_atom_site_label_2
_ccdc_geom_bond_type
O17   V3    S    
C47   C51   A    
O36   H60   S    
C34   C90   S    
O1    C5    A    
C89   H33   S    
C74   C98   S    
C31   C87   S    
O13   V1    S    
C100  O35   D    
O3    C7    A    
C11   C12   D    
C14   C46   A    
C44   C48   A    
C77   H13   S    
C90   H38   S    
C51   C83   A    
C76   C100  S    
C46   C50   A    
C91   H39   S    
C95   H51   S    
C42   C54   A    
O7    C3    A    
C75   C99   S    
C66   C81   A    
C41   C53   A    
C32   C60   A    
C43   C72   A    
C63   C71   A    
C56   C79   A    
N3    C39   S    
C67   C84   A    
C18   C54   A    
C17   O26   S    
N2    C38   S    
O16   V4    S    
O4    C8    A    
C25   C57   A    
C96   H55   S    
C31   C35   A    
C50   C82   A    
C22   H9    S    
C61   C69   A    
C27   C59   A    
C15   C47   A    
O1    V3    S    
C61   C73   A    
O19   V1    S    
C62   C65   A    
O2    V4    S    
C14   O22   S    
C21   C37   A    
C66   C70   A    
O3    V1    S    
C34   C38   A    
C30   C86   S    
C19   C55   A    
C86   H25   S    
C64   C76   A    
C49   C81   A    
C1    O15   A    
C82   H18   S    
C2    O16   A    
C98   O32   S    
O2    C6    A    
C33   C89   S    
C33   C37   A    
C63   C68   A    
O14   V2    S    
C88   H31   S    
C43   C55   A    
C78   H14   S    
C36   C40   A    
C30   C58   A    
C16   N4    A    
O11   C7    A    
O15   V3    S    
O34   H59   S    
O12   C8    A    
C31   C59   A    
C100  O36   S    
C91   H40   S    
C97   O29   D    
C83   H19   S    
O10   V2    S    
C24   H11   S    
C13   N1    A    
C90   H37   S    
C45   C49   A    
C86   H24   S    
C51   H7    S    
C95   H52   S    
C23   H12   S    
O7    V3    S    
O30   H57   S    
O8    V4    S    
C20   O27   S    
C21   H10   S    
C12   H4    S    
C28   C60   A    
C32   C88   S    
C85   H23   S    
C64   C72   A    
O18   V4    S    
C96   H56   S    
C7    C9    S    
C93   H45   S    
C26   C93   S    
C24   C40   A    
C8    C10   S    
C76   C80   A    
C32   C36   A    
C80   H16   S    
C85   H22   S    
C44   C56   A    
C11   H3    S    
C54   C77   A    
O5    C1    A    
C63   C75   A    
C62   C74   A    
C29   C85   S    
C42   C46   A    
C41   C45   A    
C25   C94   S    
O8    C4    A    
C94   H50   S    
C13   C45   A    
C9    C10   D    
O9    C5    A    
C92   H42   S    
N2    C18   A    
C99   O34   S    
O11   V3    S    
C1    C60   S    
C74   C78   A    
C93   H46   S    
C22   C26   A    
C14   N2    A    
C73   C77   A    
C28   C95   S    
C65   C82   A    
C3    C58   S    
C91   H41   S    
O6    V2    S    
C18   O25   S    
C94   H48   S    
C89   H35   S    
C75   C79   A    
C26   C58   A    
C17   C53   A    
C92   H44   S    
N1    C37   S    
C4    C57   S    
C87   H29   S    
C27   C96   S    
C52   H8    S    
O5    V1    S    
C23   C39   A    
C86   H26   S    
C6    C12   S    
C22   C38   A    
C9    H1    S    
C92   H43   S    
C93   H47   S    
O9    V1    S    
C61   C66   A    
C65   C69   A    
C19   O28   S    
C3    O13   A    
C95   H53   S    
C10   H2    S    
C67   C71   A    
C48   C52   A    
N4    C40   S    
O6    C2    A    
C21   C25   A    
C5    C11   S    
O12   V4    S    
C73   C97   S    
C23   C27   A    
C16   C48   A    
C24   C28   A    
C81   H17   S    
C36   C92   S    
O10   C6    A    
C87   H28   S    
C84   H20   S    
C52   C84   A    
C90   H36   S    
C87   H27   S    
C35   C39   A    
C88   H32   S    
C15   N3    A    
C96   H54   S    
C30   C34   A    
N4    C20   A    
C2    C59   S    
C62   C70   A    
C29   C33   A    
C44   C71   A    
O20   V2    S    
C29   C57   A    
C94   H49   S    
C42   C69   A    
N3    C19   A    
C68   C83   A    
C99   O33   D    
C50   H6    S    
C79   H15   S    
N1    C17   A    
C49   H5    S    
O32   H58   S    
C43   C47   A    
C68   C72   A    
C20   C56   A    
C53   C78   A    
C89   H34   S    
C98   O31   D    
C35   C91   S    
C4    O14   A    
C13   O21   S    
C55   C80   A    
C97   O30   S    
C88   H30   S    
C85   H21   S    
C15   O23   S    
C41   C70   A    
C64   C67   A    
O4    V2    S    
C16   O24   S    
