data_mof_unit_779.cif
_audit_creation_date              2012-10-26T18:32:57-0400
_audit_creation_method            fapswitch 2.2
_symmetry_space_group_name_H-M    P1
_symmetry_Int_Tables_number       1
_space_group_crystal_system       triclinic
_cell_length_a                    13.810405
_cell_length_b                    13.876331
_cell_length_c                    15.016557
_cell_angle_alpha                 89.464712
_cell_angle_beta                  90.269473
_cell_angle_gamma                 84.758745
_cell_volume                      2865.53736583

loop_
_atom_site_label
_atom_site_type_symbol
_atom_type_description
_atom_site_fract_x
_atom_site_fract_y
_atom_site_fract_z
_atom_type_partial_charge
C1    C     C_R   0.499614 0.500122 0.329264 0.580883
C2    C     C_R   0.588377 0.338709 0.957082 -0.094388
C3    C     C_R   0.794367 0.523994 0.424761 0.404920
C4    C     C_R   0.207627 0.472500 0.575408 0.404264
C5    C     C_R   0.797350 0.473847 0.576066 0.360301
C6    C     C_R   0.201292 0.531983 0.426295 0.361475
C7    C     C_R   0.897748 0.493949 0.583859 -0.067678
C8    C     C_R   0.097831 0.550565 0.431136 -0.067101
C9    C     C_R   0.946395 0.522492 0.507697 -0.126112
C10   C     C_R   0.049568 0.522270 0.507637 -0.126663
C11   C     C_R   0.892838 0.545722 0.429750 -0.017435
C12   C     C_R   0.500222 0.498602 0.670769 0.584355
C13   C     C_R   0.104384 0.491023 0.583068 -0.021335
C14   C     C_R   0.951214 0.487874 0.665584 0.218921
C15   C     C_R   0.040591 0.596611 0.361161 0.220221
C16   C     C_R   0.515716 0.317151 0.500019 0.523558
C17   C     C_R   0.484162 0.682890 0.499463 0.547818
C18   C     C_R   0.054922 0.481267 0.664828 0.313008
C19   C     C_R   0.939704 0.586513 0.356663 0.317767
C20   C     C_1   0.474342 0.785968 0.496497 0.007739
C21   C     C_1   0.524908 0.214136 0.502502 -0.043231
C22   C     C_2   0.459931 0.977132 0.489258 0.282299
C23   C     C_R   0.497728 0.497707 0.953129 -0.017618
C24   C     C_2   0.538415 0.023079 0.509769 0.287868
C25   C     C_1   0.531859 0.127376 0.505641 -0.011247
C26   C     C_1   0.466763 0.872776 0.493274 0.015977
C27   C     C_R   0.543497 0.415305 0.814711 0.189729
C28   C     C_R   0.455088 0.582241 0.185389 0.189721
C29   C     C_R   0.500042 0.496476 0.767140 0.045983
C30   C     C_R   0.498045 0.500877 0.232980 0.041423
C31   C     C_R   0.457112 0.578141 0.811000 0.205972
C32   C     C_R   0.533904 0.416361 0.189288 0.164505
C33   C     C_R   0.453353 0.578137 0.904694 0.003622
C34   C     C_R   0.495761 0.497540 0.047116 -0.016494
C35   C     C_R   0.538311 0.416357 0.095609 0.000084
C36   C     C_3   0.764300 0.408161 0.322751 0.021755
C37   C     C_3   0.869004 0.359473 0.317162 -0.331205
C38   C     C_3   0.869603 0.255559 0.284724 -0.470355
C39   C     C_3   0.269634 0.317464 0.608236 0.031973
C40   C     C_3   0.192847 0.255203 0.645487 -0.309801
C41   C     C_3   0.202291 0.154528 0.604517 -0.461878
C42   C     C_3   0.803607 0.327368 0.653734 0.024968
C43   C     C_3   0.775111 0.256667 0.582520 -0.270179
C44   C     C_3   0.840133 0.161706 0.586978 -0.495083
C45   C     C_R   0.543689 0.417143 0.907963 0.053367
C46   C     C_3   0.222924 0.465685 0.285717 0.030323
C47   C     C_3   0.255598 0.362319 0.318991 -0.272958
C48   C     C_3   0.235992 0.287651 0.248771 -0.486303
C49   C     C_3   0.095023 0.411917 0.804267 0.068745
C50   C     C_3   0.067482 0.453988 0.895543 -0.237532
C51   C     C_3   0.054486 0.374287 0.964026 -0.497808
C52   C     C_3   0.907027 0.591057 0.204968 0.060013
C53   C     C_3   0.906525 0.671904 0.135130 -0.234082
C54   C     C_3   0.933383 0.631833 0.043368 -0.490885
C55   C     C_R   0.451359 0.578798 0.092306 0.046135
C56   C     C_R   0.404638 0.655477 0.951010 -0.140673
C57   C     C_R   0.586240 0.338496 0.049476 -0.152957
C58   C     C_R   0.404980 0.656407 0.043368 -0.093112
Cu1   Cu    Cu3+1 0.597420 0.500010 0.499990 1.045356
Cu2   Cu    Cu3+1 0.402580 0.499990 0.500010 1.046679
H1    H     H_    0.365241 0.715975 0.916902 0.131848
H2    H     H_    0.545663 0.277159 0.207959 0.323844
H3    H     H_    0.729421 0.400184 0.256927 0.198397
H4    H     H_    0.722514 0.368641 0.372042 0.183387
H5    H     H_    0.912568 0.400232 0.270692 0.144919
H6    H     H_    0.904193 0.357300 0.383886 0.139160
H7    H     H_    0.827784 0.212444 0.331059 0.160304
H8    H     H_    0.945661 0.221988 0.282031 0.150612
H9    H     H_    0.837163 0.254244 0.216954 0.156151
H10   H     H_    0.342018 0.285336 0.631692 0.165452
H11   H     H_    0.269249 0.311911 0.534154 0.135461
H12   H     H_    0.624306 0.277424 0.083919 0.120454
H13   H     H_    0.202588 0.246700 0.718510 0.152317
H14   H     H_    0.118774 0.289791 0.630911 0.139977
H15   H     H_    0.190711 0.159688 0.531294 0.168063
H16   H     H_    0.146643 0.110723 0.633497 0.147158
H17   H     H_    0.275509 0.117375 0.618715 0.187303
H18   H     H_    0.782596 0.299380 0.719738 0.188563
H19   H     H_    0.883883 0.326699 0.656269 0.115742
H20   H     H_    0.698907 0.240680 0.593622 0.181758
H21   H     H_    0.781630 0.288931 0.515131 0.163647
H22   H     H_    0.917254 0.175054 0.575634 0.145640
H23   H     H_    0.368173 0.718455 0.076214 0.181059
H24   H     H_    0.817821 0.112397 0.534429 0.155181
H25   H     H_    0.833524 0.126145 0.652974 0.158400
H26   H     H_    0.260605 0.477812 0.221922 0.165800
H27   H     H_    0.144214 0.471138 0.269292 0.125051
H28   H     H_    0.334453 0.355055 0.334550 0.216100
H29   H     H_    0.215107 0.345778 0.380144 0.130046
H30   H     H_    0.157092 0.291720 0.232702 0.139448
H31   H     H_    0.259374 0.213907 0.274629 0.173905
H32   H     H_    0.277364 0.300399 0.187144 0.151374
H33   H     H_    0.838881 0.526333 0.738661 0.358500
H34   H     H_    0.625668 0.276837 0.924358 0.172407
H35   H     H_    0.136319 0.682365 0.324237 0.361973
H36   H     H_    0.166267 0.368916 0.812223 0.147003
H37   H     H_    0.041331 0.361305 0.782645 0.128297
H38   H     H_    0.125603 0.498198 0.919028 0.170383
H39   H     H_    0.998871 0.501967 0.890321 0.219581
H40   H     H_    0.995083 0.330528 0.942958 0.159531
H41   H     H_    0.035305 0.407147 0.029495 0.136899
H42   H     H_    0.123003 0.326350 0.971810 0.146087
H43   H     H_    0.850077 0.543084 0.186682 0.152051
H44   H     H_    0.978521 0.546631 0.202876 0.121488
H45   H     H_    0.672912 0.016989 0.548325 0.318756
H46   H     H_    0.832957 0.711671 0.131760 0.176862
H47   H     H_    0.959517 0.723648 0.154669 0.213727
H48   H     H_    0.008594 0.595862 0.044584 0.151602
H49   H     H_    0.929821 0.691924 0.993785 0.163962
H50   H     H_    0.882065 0.578972 0.022638 0.153383
H51   H     H_    0.324929 0.983200 0.452081 0.322595
H52   H     H_    0.567448 0.334109 0.709011 0.328672
H53   H     H_    0.435835 0.665307 0.290436 0.336768
H54   H     H_    0.436361 0.716452 0.789765 0.317977
N1    N     N_R   0.743820 0.499960 0.499930 -0.243507
N2    N     N_R   0.256180 0.500040 0.500070 -0.243935
O1    O     O_R   0.582280 0.500030 0.370250 -0.456905
O2    O     O_3   0.373957 0.029510 0.464097 -0.743897
O3    O     O_3   0.584998 0.333039 0.772914 -0.723869
O4    O     O_3   0.416283 0.665721 0.227033 -0.696129
O5    O     O_3   0.420262 0.656599 0.759928 -0.682207
O6    O     O_3   0.562383 0.335185 0.240420 -0.744447
O7    O     O_3   0.758005 0.509168 0.340755 -0.524533
O8    O     O_3   0.256684 0.414281 0.639486 -0.513458
O9    O     O_3   0.754357 0.421411 0.641958 -0.520562
O10   O     O_3   0.246728 0.539704 0.345030 -0.516918
O11   O     O_3   0.904683 0.492537 0.746776 -0.714972
O12   O     O_R   0.417720 0.499970 0.629750 -0.428660
O13   O     O_3   0.079669 0.654115 0.297644 -0.691165
O14   O     O_3   0.107579 0.488271 0.743393 -0.505938
O15   O     O_3   0.883572 0.632414 0.288999 -0.502138
O16   O     O_R   0.417740 0.500020 0.370270 -0.468727
O17   O     O_R   0.582260 0.499980 0.629730 -0.457329
O18   O     O_R   0.593900 0.362160 0.500010 -0.517146
O19   O     O_R   0.406100 0.637840 0.499990 -0.482687
O20   O     O_R   0.429360 0.362150 0.500030 -0.530835
O21   O     O_R   0.570640 0.637850 0.499970 -0.481947
O22   O     O_3   0.624307 0.970650 0.535055 -0.710732

loop_
_geom_bond_atom_site_label_1
_geom_bond_atom_site_label_2
_ccdc_geom_bond_type
C52   H43   S    
C16   C21   S    
C23   C45   A    
C12   C29   S    
C27   C29   A    
C14   C18   A    
C1    O16   A    
C16   O18   A    
Cu2   O16   S    
C2    C57   A    
C53   C54   S    
C51   H42   S    
C15   C19   A    
C54   H50   S    
C50   H39   S    
C13   C18   A    
H51   O2    S    
C36   C37   S    
C44   H22   S    
C41   H17   S    
Cu1   O21   S    
C17   C20   S    
C40   H13   S    
C4    O8    S    
C7    C9    A    
C34   C35   A    
C4    C13   A    
C42   O9    S    
H45   O22   S    
H54   O5    S    
C53   H46   S    
C7    C14   A    
C40   H14   S    
C23   C33   A    
C48   H31   S    
C37   H5    S    
C17   O19   A    
C31   C33   A    
C36   H3    S    
C9    C10   A    
Cu2   O20   S    
C27   C45   A    
C33   C56   A    
C38   H9    S    
Cu1   Cu2   S    
Cu1   O1    S    
C48   H30   S    
C5    N1    A    
C47   H29   S    
C28   C55   A    
C3    O7    S    
C2    C45   A    
C19   O15   S    
C50   H38   S    
C32   C35   A    
C32   O6    S    
C2    H34   S    
C36   O7    S    
C3    C11   A    
C24   C25   S    
C6    O10   S    
C28   O4    S    
C39   C40   S    
C5    C7    A    
C4    N2    A    
C6    C8    A    
C24   O22   S    
C43   H20   S    
Cu1   O17   S    
C39   O8    S    
C54   H49   S    
C43   C44   S    
H33   O11   S    
C37   C38   S    
C41   H15   S    
H53   O4    S    
C53   H47   S    
C47   C48   S    
C15   O13   S    
Cu2   O12   S    
C23   C34   A    
C11   C19   A    
C37   H6    S    
C50   C51   S    
C34   C55   A    
C1    O1    A    
C9    C11   A    
Cu2   O19   S    
C6    N2    A    
C31   O5    S    
C49   H36   S    
C8    C10   A    
C40   C41   S    
C38   H8    S    
C42   H18   S    
C8    C15   A    
C12   O17   A    
C22   C26   S    
C43   H21   S    
C22   C24   D    
Cu2   N2    S    
C42   C43   S    
C44   H25   S    
C16   O20   A    
H2    O6    S    
C52   C53   S    
C46   H27   S    
C51   H40   S    
C22   O2    S    
C21   C25   T    
C46   C47   S    
C52   H44   S    
C52   O15   S    
C46   O10   S    
C44   H24   S    
C10   C13   A    
H52   O3    S    
C12   O12   A    
C27   O3    S    
C51   H41   S    
C49   O14   S    
Cu1   O18   S    
C54   H48   S    
C35   C57   A    
C47   H28   S    
C28   C30   A    
C29   C31   A    
C3    N1    A    
C58   H23   S    
C41   H16   S    
C30   C32   A    
C20   C26   T    
C1    C30   S    
C39   H10   S    
C56   C58   A    
C57   H12   S    
C18   O14   S    
C14   O11   S    
C49   H37   S    
C42   H19   S    
C38   H7    S    
Cu1   N1    S    
C49   C50   S    
C48   H32   S    
C55   C58   A    
C5    O9    S    
H35   O13   S    
C39   H11   S    
C56   H1    S    
C17   O21   A    
C36   H4    S    
C46   H26   S    
