data_mof_unit_4789.cif
_audit_creation_date              2012-12-11T15:36:55-0500
_audit_creation_method            fapswitch 2.2
_symmetry_space_group_name_H-M    P1
_symmetry_Int_Tables_number       1
_space_group_crystal_system       triclinic
_cell_length_a                    15.060538
_cell_length_b                    15.070883
_cell_length_c                    34.858589
_cell_angle_alpha                 91.403562
_cell_angle_beta                  91.824035
_cell_angle_gamma                 60.097664
_cell_volume                      6854.95392962

loop_
_atom_site_label
_atom_site_type_symbol
_atom_type_description
_atom_site_fract_x
_atom_site_fract_y
_atom_site_fract_z
_atom_type_partial_charge
C1    C     C_R   0.610703 0.302606 0.444039 0.542108
C2    C     C_R   0.741444 0.686624 0.182642 0.030331
C3    C     C_R   0.612324 0.149877 0.830627 0.029723
C4    C     C_R   0.681349 0.170737 0.851451 -0.115625
C5    C     C_R   0.711301 0.135752 0.888795 -0.119858
C6    C     C_R   0.590846 0.260121 0.774638 -0.115520
C7    C     C_R   0.594389 0.271694 0.735290 -0.115269
C8    C     C_R   0.601722 0.195438 0.709532 0.026757
C9    C     C_R   0.600061 0.109858 0.723507 -0.110828
C10   C     C_R   0.597744 0.097590 0.763000 -0.107477
C11   C     C_R   0.595899 0.171388 0.788997 0.030605
C12   C     C_R   0.548037 0.196715 0.640905 -0.117584
C13   C     C_R   0.826558 0.620147 0.160860 -0.122495
C14   C     C_R   0.550597 0.220211 0.602583 -0.121469
C15   C     C_R   0.691091 0.250928 0.618159 -0.122864
C16   C     C_R   0.687471 0.228901 0.656477 -0.120186
C17   C     C_R   0.613753 0.204977 0.668317 0.026062
C18   C     C_R   0.619876 0.250936 0.591139 0.021041
C19   C     C_R   0.046159 0.738862 0.048430 0.541534
C20   C     C_R   0.747385 0.746730 0.064084 0.542684
C21   C     C_R   0.751306 0.040329 0.050694 0.541465
C22   C     C_R   0.017040 0.722233 0.939848 0.549427
C23   C     C_R   0.717187 0.729979 0.954937 0.540403
C24   C     C_R   0.826366 0.635408 0.121493 -0.126213
C25   C     C_R   0.721374 0.024401 0.942075 0.542867
C26   C     C_R   0.774756 0.581579 0.241184 -0.116144
C27   C     C_R   0.765578 0.574817 0.280545 -0.113778
C28   C     C_R   0.725669 0.663133 0.303952 0.029843
C29   C     C_R   0.700192 0.757327 0.287594 -0.117148
C30   C     C_R   0.708738 0.764132 0.248234 -0.116853
C31   C     C_R   0.743421 0.676805 0.224626 0.027160
C32   C     C_R   0.605528 0.733447 0.358540 -0.118660
C33   C     C_R   0.593350 0.610104 0.449400 0.545453
C34   C     C_R   0.573193 0.720871 0.393990 -0.125370
C35   C     C_R   0.732507 0.561094 0.402449 -0.124175
C36   C     C_R   0.764965 0.573881 0.367036 -0.120245
C37   C     C_R   0.700300 0.658408 0.344179 0.032485
C38   C     C_R   0.634843 0.632759 0.415637 0.021786
C39   C     C_R   0.103323 0.729209 0.084901 0.007371
C40   C     C_R   0.162567 0.633483 0.103112 -0.015024
C41   C     C_R   0.184879 0.630342 0.142446 -0.124662
C42   C     C_R   0.151374 0.721081 0.163733 0.014400
C43   C     C_R   0.104093 0.815101 0.144898 -0.127030
C44   C     C_R   0.303919 0.591340 0.442372 0.542812
C45   C     C_R   0.080268 0.819179 0.105744 -0.140089
C46   C     C_R   0.206475 0.758884 0.227483 -0.116762
C47   C     C_R   0.213666 0.750139 0.267427 -0.115060
C48   C     C_R   0.168359 0.701545 0.286304 0.029334
C49   C     C_R   0.113002 0.665004 0.264467 -0.117824
C50   C     C_R   0.107467 0.672161 0.224616 -0.114840
C51   C     C_R   0.155545 0.717572 0.205876 0.027598
C52   C     C_R   0.205182 0.586608 0.342290 -0.119953
C53   C     C_R   0.236062 0.560613 0.380413 -0.124412
C54   C     C_R   0.225269 0.724916 0.391542 -0.126523
C55   C     C_R   0.605443 0.300914 0.553822 0.540577
C56   C     C_R   0.193310 0.751383 0.353416 -0.121092
C57   C     C_R   0.186350 0.681069 0.328042 0.033079
C58   C     C_R   0.250066 0.627947 0.405047 0.022406
C59   C     C_R   0.724793 0.097792 0.087194 0.023789
C60   C     C_R   0.800372 0.106432 0.108886 -0.126930
C61   C     C_R   0.785164 0.134330 0.147561 -0.122733
C62   C     C_R   0.693819 0.155105 0.164894 0.030382
C63   C     C_R   0.614633 0.155958 0.142322 -0.116617
C64   C     C_R   0.630072 0.127313 0.103753 -0.119184
C65   C     C_R   0.594141 0.240828 0.223532 -0.116680
C66   C     C_R   0.587250 0.606327 0.559190 0.541880
C67   C     C_R   0.584662 0.246965 0.263277 -0.114206
C68   C     C_R   0.665603 0.177356 0.287040 0.028302
C69   C     C_R   0.756040 0.101288 0.270350 -0.119009
C70   C     C_R   0.765633 0.095408 0.230618 -0.115892
C71   C     C_R   0.684912 0.165387 0.206921 0.028200
C72   C     C_R   0.739975 0.183807 0.351232 -0.119299
C73   C     C_R   0.727148 0.212845 0.389790 -0.124104
C74   C     C_R   0.552518 0.245267 0.385604 -0.128708
C75   C     C_R   0.565417 0.216195 0.347002 -0.123838
C76   C     C_R   0.657866 0.189325 0.329135 0.031616
C77   C     C_R   0.297913 0.589404 0.551751 0.545421
C78   C     C_R   0.631880 0.248173 0.406860 0.021575
C79   C     C_R   0.691557 0.689139 0.920028 0.019048
C80   C     C_R   0.765986 0.596637 0.903482 -0.126103
C81   C     C_R   0.753434 0.571331 0.865716 -0.121052
C82   C     C_R   0.666307 0.638019 0.843851 0.027247
C83   C     C_R   0.587564 0.725437 0.861614 -0.116201
C84   C     C_R   0.599943 0.750628 0.899408 -0.124298
C85   C     C_R   0.570366 0.648201 0.782498 -0.113782
C86   C     C_R   0.564927 0.647499 0.742481 -0.111982
C87   C     C_R   0.651970 0.622214 0.721009 0.020921
C88   C     C_R   0.740724 0.717037 0.103402 0.020569
C89   C     C_R   0.745336 0.594324 0.740182 -0.110291
C90   C     C_R   0.750693 0.595575 0.780196 -0.108224
C91   C     C_R   0.662903 0.623966 0.801765 0.021957
C92   C     C_R   0.717880 0.544168 0.656625 -0.120697
C93   C     C_R   0.703900 0.541847 0.616902 -0.124524
C94   C     C_R   0.547663 0.706033 0.620510 -0.124023
C95   C     C_R   0.561360 0.707935 0.660180 -0.117448
C96   C     C_R   0.644654 0.625461 0.678691 0.025126
C97   C     C_R   0.616598 0.621042 0.598633 0.019567
C98   C     C_R   0.066266 0.697175 0.902544 -0.003141
C99   C     C_R   0.653465 0.779447 0.124982 -0.123033
C100  C     C_R   0.105574 0.756267 0.888171 -0.133954
C101  C     C_R   0.136668 0.743816 0.850221 -0.017708
C102  C     C_R   0.126794 0.672475 0.826091 -0.006038
C103  C     C_R   0.092369 0.609172 0.841225 -0.016282
C104  C     C_R   0.063431 0.621253 0.879387 -0.130887
C105  C     C_R   0.219793 0.582403 0.767068 -0.094719
C106  C     C_R   0.230465 0.579717 0.727513 -0.106003
C107  C     C_R   0.164816 0.665582 0.705544 0.029715
C108  C     C_R   0.088473 0.754210 0.723113 -0.092192
C109  C     C_R   0.077168 0.756583 0.762633 -0.091450
C110  C     C_R   0.654028 0.764572 0.164241 -0.119780
C111  C     C_R   0.142839 0.670728 0.784690 0.034591
C112  C     C_R   0.225745 0.714691 0.648584 -0.007374
C113  C     C_R   0.255513 0.696263 0.610499 -0.145425
C114  C     C_R   0.187148 0.580426 0.602908 -0.019770
C115  C     C_R   0.157495 0.599061 0.641111 -0.138656
C116  C     C_R   0.179801 0.662859 0.664279 -0.004807
C117  C     C_R   0.241538 0.625331 0.587856 -0.007092
C118  C     C_R   0.672944 0.079135 0.906191 0.021320
C119  C     C_R   0.598424 0.064303 0.886505 -0.125677
C120  C     C_R   0.568602 0.099127 0.848901 -0.117733
Cr1   Cr    Cr6+3 0.426010 0.422500 0.497000 1.032763
Cr2   Cr    Cr6+3 0.651300 0.426310 0.501970 1.017155
Cr3   Cr    Cr6+3 0.422670 0.651170 0.501050 1.014345
Cr4   Cr    Cr6+3 0.905130 0.911420 0.992650 1.017993
Cr5   Cr    Cr6+3 0.911860 0.682710 0.002320 1.033687
Cr6   Cr    Cr6+3 0.682710 0.906840 0.004710 1.019094
H1    H     H_    0.586175 0.842760 0.111909 0.131412
H2    H     H_    0.497596 0.777434 0.403401 0.128274
H3    H     H_    0.894650 0.559314 0.174563 0.103238
H4    H     H_    0.782192 0.492859 0.418706 0.127155
H5    H     H_    0.035602 0.893686 0.092687 0.130977
H6    H     H_    0.177193 0.825599 0.343505 0.099488
H7    H     H_    0.258069 0.777838 0.283316 0.102553
H8    H     H_    0.243473 0.794649 0.213361 0.106560
H9    H     H_    0.224483 0.557264 0.156938 0.109701
H10   H     H_    0.075234 0.629400 0.278127 0.105568
H11   H     H_    0.894938 0.586352 0.105656 0.134370
H12   H     H_    0.065831 0.641904 0.208295 0.111008
H13   H     H_    0.201958 0.529987 0.323493 0.099825
H14   H     H_    0.255059 0.485096 0.389854 0.127013
H15   H     H_    0.078462 0.885799 0.161003 0.106758
H16   H     H_    0.234754 0.778678 0.409955 0.122538
H17   H     H_    0.874091 0.084255 0.096863 0.122218
H18   H     H_    0.570339 0.121791 0.087600 0.127578
H19   H     H_    0.501671 0.218988 0.330686 0.100862
H20   H     H_    0.514929 0.307759 0.275466 0.107094
H21   H     H_    0.531087 0.295692 0.205779 0.106694
H22   H     H_    0.839098 0.515826 0.356900 0.102790
H23   H     H_    0.846566 0.134977 0.164385 0.102535
H24   H     H_    0.819135 0.046216 0.288028 0.105998
H25   H     H_    0.835506 0.034989 0.218351 0.108438
H26   H     H_    0.811987 0.163655 0.338149 0.102619
H27   H     H_    0.789921 0.213688 0.405516 0.128471
H28   H     H_    0.543529 0.171687 0.155089 0.106373
H29   H     H_    0.478381 0.271519 0.398041 0.125354
H30   H     H_    0.837043 0.547085 0.918763 0.128236
H31   H     H_    0.541038 0.822289 0.911352 0.131613
H32   H     H_    0.505040 0.772468 0.676584 0.130993
H33   H     H_    0.492527 0.667079 0.728262 0.132316
H34   H     H_    0.814284 0.502254 0.852973 0.114988
H35   H     H_    0.813304 0.574947 0.724214 0.118599
H36   H     H_    0.822638 0.578486 0.794192 0.129991
H37   H     H_    0.782836 0.479749 0.670306 0.109571
H38   H     H_    0.758204 0.475137 0.600889 0.128376
H39   H     H_    0.519670 0.778589 0.845477 0.119078
H40   H     H_    0.479633 0.768332 0.607376 0.134160
H41   H     H_    0.109264 0.814080 0.906199 0.129301
H42   H     H_    0.801466 0.513398 0.223430 0.106043
H43   H     H_    0.032487 0.575654 0.890275 0.136506
H44   H     H_    0.120348 0.560790 0.653378 0.124341
H45   H     H_    0.290345 0.511289 0.714012 0.117123
H46   H     H_    0.270740 0.515790 0.783915 0.119344
H47   H     H_    0.037889 0.820867 0.706224 0.117943
H48   H     H_    0.016816 0.824806 0.776050 0.118060
H49   H     H_    0.296405 0.732137 0.599476 0.138836
H50   H     H_    0.586693 0.815291 0.180432 0.106145
H51   H     H_    0.567828 0.020601 0.899246 0.128085
H52   H     H_    0.768533 0.148665 0.903372 0.131627
H53   H     H_    0.739881 0.234132 0.677195 0.113076
H54   H     H_    0.593111 0.339541 0.724939 0.112373
H55   H     H_    0.587349 0.319162 0.793928 0.107354
H56   H     H_    0.514306 0.083117 0.833642 0.112439
H57   H     H_    0.605294 0.050440 0.704010 0.110146
H58   H     H_    0.602932 0.027842 0.773208 0.109380
H59   H     H_    0.490888 0.177994 0.649517 0.114369
H60   H     H_    0.670960 0.826186 0.305080 0.105997
H61   H     H_    0.494760 0.219690 0.582352 0.129849
H62   H     H_    0.717394 0.208521 0.838111 0.110565
H63   H     H_    0.744953 0.274851 0.610319 0.129887
H64   H     H_    0.553535 0.798892 0.341388 0.102689
O1    O     O_R   0.324990 0.503440 0.453910 -0.516904
O2    O     O_R   0.639980 0.519500 0.542640 -0.501363
O3    O     O_R   0.500750 0.673190 0.545480 -0.520463
O4    O     O_R   0.336260 0.640450 0.538210 -0.507834
O5    O     O_3   0.499990 0.499990 0.500010 -0.240361
O6    O     O_R   0.834210 0.019400 0.034570 -0.521295
O7    O     O_R   0.002210 0.824620 0.031030 -0.506436
O8    O     O_R   0.024400 0.669340 0.039790 -0.495605
O9    O     O_R   0.830490 0.694950 0.045870 -0.501302
O10   O     O_R   0.675430 0.831160 0.051290 -0.517505
O11   O     O_R   0.698870 0.998880 0.039560 -0.499927
O12   O     O_R   0.522030 0.339050 0.458320 -0.503881
O13   O     O_R   0.811290 0.006780 0.950620 -0.513994
O14   O     O_R   0.980960 0.812920 0.953200 -0.498530
O15   O     O_R   0.001480 0.656720 0.955830 -0.513535
O16   O     O_R   0.809240 0.683250 0.968050 -0.502524
O17   O     O_R   0.652500 0.818540 0.967340 -0.518654
O18   O     O_R   0.677620 0.987170 0.961730 -0.500706
O19   O     O_3   0.833240 0.833660 0.999890 -0.242095
O20   O     O_R   0.676180 0.324490 0.458320 -0.517945
O21   O     O_R   0.643570 0.521510 0.464260 -0.500757
O22   O     O_R   0.504630 0.675350 0.460920 -0.518008
O23   O     O_R   0.339850 0.642450 0.459830 -0.501700
O24   O     O_R   0.321120 0.501280 0.538470 -0.492366
O25   O     O_R   0.518440 0.337050 0.536710 -0.498668
O26   O     O_R   0.672300 0.322330 0.542880 -0.519056
C121  C     C_1   0.197546 0.537617 0.082682 0.207934
N1    N     N_1   0.225674 0.460744 0.066351 -0.299481
H65   H     H_    0.784521 0.501405 0.292266 0.105168
H66   H     H_    0.501887 0.669117 0.798373 0.122588
C122  C     C_1   0.176353 0.806544 0.836358 0.189304
N2    N     N_1   0.208205 0.856687 0.825229 -0.297159
C123  C     C_1   0.250823 0.780260 0.671829 0.185386
N3    N     N_1   0.271037 0.832626 0.690463 -0.310281
C124  C     C_1   0.078710 0.536663 0.817487 0.182162
N4    N     N_1   0.067651 0.478705 0.798480 -0.316751
C125  C     C_1   0.163015 0.513122 0.580414 0.219148
N5    N     N_1   0.143557 0.459211 0.562436 -0.296860
H67   H     H_    0.686210 0.838058 0.236055 0.110398

loop_
_geom_bond_atom_site_label_1
_geom_bond_atom_site_label_2
_ccdc_geom_bond_type
C15   C18   A    
C27   H65   S    
C101  C102  A    
C22   C98   S    
C105  H46   S    
C40   C121  S    
C53   H14   S    
C10   H58   S    
C41   C42   A    
C14   C18   A    
C95   C96   A    
C41   H9    S    
Cr2   O5    S    
C72   C76   A    
C25   C118  S    
C94   H40   S    
C114  C115  A    
C85   C91   A    
C7    C8    A    
C85   C86   A    
C75   H19   S    
C83   H39   S    
C26   H42   S    
C59   C64   A    
C29   C30   A    
C90   H36   S    
C100  H41   S    
C69   H24   S    
Cr1   O25   S    
C66   C97   S    
C92   C93   A    
C36   C37   A    
C85   H66   S    
C124  N4    T    
Cr1   O12   S    
C21   C59   S    
C77   C117  S    
C69   C70   A    
C109  C111  A    
C44   O1    A    
C55   O25   A    
C79   C84   A    
C80   C81   A    
C33   O22   A    
C106  C107  A    
C101  C122  S    
C15   C16   A    
C95   H32   S    
Cr5   O16   S    
C92   C96   A    
C52   H13   S    
C108  C109  A    
C106  H45   S    
C46   C51   A    
C49   C50   A    
C2    C13   A    
C118  C119  A    
C20   O10   A    
C114  C125  S    
C74   H29   S    
C36   H22   S    
C2    C110  A    
C62   C63   A    
C35   C36   A    
C44   C58   S    
C8    C9    A    
C72   H26   S    
C66   O2    A    
C12   C17   A    
C62   C71   S    
C107  C108  A    
Cr2   O20   S    
Cr3   O4    S    
C70   C71   A    
C65   H21   S    
C25   O18   A    
C86   H33   S    
C16   H53   S    
C42   C51   S    
C113  H49   S    
C15   H63   S    
C59   C60   A    
C81   H34   S    
C34   C38   A    
C47   H7    S    
C1    C78   S    
Cr3   O5    S    
C102  C111  S    
C61   C62   A    
C115  H44   S    
C1    O12   A    
C89   H35   S    
C112  C113  A    
C77   O24   A    
C80   H30   S    
Cr6   O11   S    
C107  C116  S    
C54   C56   A    
C19   O7    A    
C74   C75   A    
C6    H55   S    
C67   C68   A    
C114  C117  A    
C47   C48   A    
C21   O11   A    
C48   C57   S    
C35   C38   A    
C79   C80   A    
C123  N3    T    
C3    C120  A    
Cr6   O18   S    
C6    C11   A    
Cr5   O19   S    
C86   C87   A    
C68   C69   A    
C99   H1    S    
C64   H18   S    
C93   H38   S    
C65   C67   A    
C121  N1    T    
C65   C71   A    
C99   C110  A    
Cr4   O7    S    
C81   C82   A    
C82   C91   S    
C44   O23   A    
C22   O15   A    
C2    C31   S    
C32   C34   A    
C75   C76   A    
C20   O9    A    
C122  N2    T    
C9    H57   S    
C46   H8    S    
C43   C45   A    
C83   C84   A    
Cr6   O17   S    
C73   C78   A    
Cr3   O22   S    
Cr4   O6    S    
C67   H20   S    
C54   C58   A    
C50   C51   A    
C26   C27   A    
C32   H64   S    
C94   C95   A    
C32   C37   A    
C119  C120  A    
C24   C88   A    
C35   H4    S    
Cr5   O9    S    
C56   H6    S    
C19   C39   S    
C18   C55   S    
C55   O26   A    
C29   H60   S    
C113  C117  A    
C92   H37   S    
C40   C41   A    
C54   H16   S    
C49   H10   S    
Cr4   O14   S    
Cr5   O8    S    
C45   H5    S    
C98   C100  A    
C87   C89   A    
C23   O16   A    
C74   C78   A    
C112  C123  S    
C43   H15   S    
C103  C124  S    
C42   C43   A    
C22   O14   A    
C3    C4    A    
C28   C29   A    
C108  H47   S    
C93   C97   A    
C112  C116  A    
C66   O3    A    
C52   C53   A    
C125  N5    T    
C84   H31   S    
C9    C10   A    
Cr6   O10   S    
C56   C57   A    
C46   C47   A    
C48   C49   A    
C19   O8    A    
C23   O17   A    
C1    O20   A    
C109  H48   S    
Cr3   O3    S    
C70   H25   S    
C33   C38   S    
C63   H28   S    
C12   C14   A    
C4    C5    A    
C25   O13   A    
Cr6   O19   S    
Cr1   O1    S    
C52   C57   A    
C53   C58   A    
C50   H12   S    
C87   C96   S    
Cr2   O2    S    
C6    C7    A    
C110  H50   S    
C24   H11   S    
C68   C76   S    
C105  C106  A    
C30   H67   S    
C8    C17   S    
C94   C97   A    
C39   C45   A    
C5    C118  A    
Cr1   O24   S    
C4    H62   S    
Cr3   O23   S    
C60   H17   S    
C77   O4    A    
C14   H61   S    
C33   O21   A    
C30   C31   A    
C90   C91   A    
C16   C17   A    
C120  H56   S    
C28   C37   S    
C72   C73   A    
C98   C104  A    
C12   H59   S    
C20   C88   S    
Cr5   O15   S    
C100  C101  A    
Cr2   O26   S    
C7    H54   S    
C21   O6    A    
C105  C111  A    
C102  C103  A    
C5    H52   S    
C88   C99   A    
C3    C11   S    
C10   C11   A    
C63   C64   A    
C39   C40   A    
C26   C31   A    
C13   C24   A    
C34   H2    S    
C82   C83   A    
Cr4   O19   S    
C73   H27   S    
C103  C104  A    
Cr4   O13   S    
C13   H3    S    
Cr2   O21   S    
C60   C61   A    
C119  H51   S    
C23   C79   S    
C89   C90   A    
C61   H23   S    
Cr1   O5    S    
C115  C116  A    
C104  H43   S    
C27   C28   A    
