data_mof_unit_1737.cif
_audit_creation_date              2012-12-10T18:47:43-0500
_audit_creation_method            fapswitch 2.2
_symmetry_space_group_name_H-M    P1
_symmetry_Int_Tables_number       1
_space_group_crystal_system       triclinic
_cell_length_a                    9.935174
_cell_length_b                    10.753273
_cell_length_c                    15.420751
_cell_angle_alpha                 92.805779
_cell_angle_beta                  65.602482
_cell_angle_gamma                 89.611409
_cell_volume                      1497.90880549

loop_
_atom_site_label
_atom_site_type_symbol
_atom_type_description
_atom_site_fract_x
_atom_site_fract_y
_atom_site_fract_z
_atom_type_partial_charge
C1    C     C_R   0.504615 0.739560 0.492375 0.968572
C2    C     C_R   0.493661 0.261353 0.510024 0.988365
C3    C     C_R   0.421644 0.663630 0.079435 0.378496
C4    C     C_R   0.670921 0.442973 0.885361 0.367227
C5    C     C_R   0.335090 0.714104 0.036207 0.054000
C6    C     C_R   0.770261 0.405936 0.924267 0.080615
C7    C     C_R   0.627679 0.937900 0.492182 0.354083
C8    C     C_R   0.364021 0.064750 0.519097 0.347558
C9    C     C_R   0.610136 0.063110 0.519185 0.297384
C10   C     C_R   0.380024 0.939067 0.493394 0.314737
C11   C     C_R   0.485644 0.128813 0.521823 -0.391634
C12   C     C_R   0.507457 0.873434 0.487215 -0.379368
C13   C     C_R   0.968264 0.418181 0.440086 0.066526
C14   C     C_R   0.030235 0.579857 0.560605 0.094448
C15   C     C_R   0.111603 0.418781 0.440314 0.470405
C16   C     C_R   0.888299 0.581343 0.559218 0.542889
C17   C     C_R   0.406472 0.507489 0.677268 0.872560
C18   C     C_R   0.595122 0.499945 0.322067 0.908668
C19   C     C_R   0.348636 0.542156 0.780363 -0.093331
C20   C     C_R   0.659879 0.495450 0.215981 -0.128698
C21   C     C_R   0.226933 0.684922 0.918011 0.433494
C22   C     C_R   0.853577 0.443954 0.056804 0.431828
C23   C     C_R   0.260180 0.650775 0.822610 0.124304
C24   C     C_R   0.812843 0.480079 0.154458 0.102779
C25   C     C_R   0.416288 0.483808 0.831650 -0.101997
C26   C     C_R   0.560150 0.506525 0.174175 -0.136355
C27   C     C_R   0.428459 0.547404 0.909999 0.061878
C28   C     C_R   0.608003 0.506798 0.075790 0.027702
C29   C     C_R   0.326327 0.648022 0.957154 -0.039434
C30   C     C_R   0.745779 0.449147 0.018071 -0.022115
C31   C     C_R   0.537994 0.513439 0.942564 -0.060315
C32   C     C_R   0.517263 0.557592 0.035302 -0.073909
H1    H     H_    0.442920 0.519610 0.218260 0.222326
H2    H     H_    0.469955 0.393846 0.804443 0.202507
N1    N     N_R   0.142780 0.500030 0.500020 -0.137995
N2    N     N_R   0.857220 0.499970 0.499980 -0.139977
O1    O     O_R   0.385370 0.683250 0.500010 -0.600928
O2    O     O_R   0.614630 0.316750 0.499990 -0.591066
O3    O     O_R   0.614700 0.683220 0.500000 -0.539042
O4    O     O_R   0.385300 0.316780 0.500000 -0.525221
O5    O     O_R   0.319830 0.500020 0.632250 -0.631869
O6    O     O_R   0.680170 0.499980 0.367750 -0.651924
O7    O     O_R   0.549160 0.499990 0.632240 -0.526012
O8    O     O_R   0.450840 0.500010 0.367760 -0.560715
Zn1   Zn    Zn3+2 0.346870 0.500020 0.500000 1.054061
Zn2   Zn    Zn3+2 0.653130 0.499980 0.500000 1.054149
C33   C     C_3   0.271699 0.846186 0.066362 -0.614858
H3    H     H_    0.264359 0.894052 0.006355 0.240311
H4    H     H_    0.161921 0.845291 0.127653 0.279760
H5    H     H_    0.345664 0.906512 0.086261 0.265522
C34   C     C_3   0.888812 0.307756 0.868712 -0.621134
H6    H     H_    0.852422 0.244346 0.824069 0.267466
H7    H     H_    0.991809 0.352479 0.821572 0.278887
H8    H     H_    0.909815 0.245528 0.917366 0.249695
C35   C     C_3   0.935021 0.507466 0.186451 -0.728176
H9    H     H_    0.994539 0.419594 0.184949 0.240745
H10   H     H_    0.015055 0.570047 0.136345 0.282228
H11   H     H_    0.899121 0.558665 0.256329 0.256560
C36   C     C_3   0.226093 0.746740 0.766464 -0.799465
H12   H     H_    0.246492 0.841327 0.790075 0.259907
H13   H     H_    0.107892 0.744125 0.779939 0.273197
H14   H     H_    0.300941 0.736595 0.689930 0.210687
Cl1   Cl    Cl    0.056044 0.765588 0.985348 -0.596047
Cl2   Cl    Cl    0.043865 0.413328 0.983353 -0.665124
Cl3   Cl    Cl    0.430706 0.751708 0.178018 -0.547719
Cl4   Cl    Cl    0.739714 0.425877 0.759153 -0.597814
Cl5   Cl    Cl    0.808324 0.870466 0.453379 -0.421718
Cl6   Cl    Cl    0.184755 0.135159 0.557399 -0.414167
Cl7   Cl    Cl    0.737398 0.130749 0.560176 -0.428377
Cl8   Cl    Cl    0.245964 0.871940 0.458245 -0.408636
C37   C     C_3   0.942672 0.325019 0.372935 -0.641060
H15   H     H_    0.947426 0.229492 0.395619 0.299485
H16   H     H_    0.837677 0.339654 0.367430 0.257865
H17   H     H_    0.030951 0.330691 0.300269 0.212752
C38   C     C_3   0.051062 0.663921 0.633045 -0.667431
H18   H     H_    0.029329 0.762535 0.623515 0.286875
H19   H     H_    0.975192 0.638027 0.705566 0.248127
H20   H     H_    0.162980 0.654756 0.626305 0.265058
Cl9   Cl    Cl    0.250469 0.312495 0.362918 -0.524992
Cl10  Cl    Cl    0.749345 0.687652 0.636991 -0.488063

loop_
_geom_bond_atom_site_label_1
_geom_bond_atom_site_label_2
_ccdc_geom_bond_type
C35   H9    S    
C27   C29   A    
C33   H4    S    
C24   C35   S    
C23   C36   S    
C5    C33   S    
C9    Cl7   S    
C18   O6    A    
O6    Zn2   S    
C15   Cl9   S    
C31   C32   A    
N2    Zn2   S    
C14   C16   A    
C6    C34   S    
C1    O1    A    
C25   H2    S    
C36   H12   S    
C3    Cl3   S    
C1    C12   S    
C2    C11   S    
C15   N1    A    
C38   H20   S    
C33   H5    S    
C5    C29   A    
O4    Zn1   S    
C36   H13   S    
O2    Zn2   S    
C27   C31   A    
C34   H6    S    
C20   C24   A    
C28   C32   A    
C13   N2    A    
C4    C6    A    
C14   N1    A    
C37   H16   S    
C13   C37   S    
C21   C29   A    
C34   H7    S    
C19   C23   A    
C38   H18   S    
C17   O7    A    
C18   O8    A    
C9    C11   A    
C2    O2    A    
C26   H1    S    
C33   H3    S    
C35   H10   S    
C38   H19   S    
C10   C12   A    
O3    Zn2   S    
C10   Cl8   S    
C6    C30   A    
C8    Cl6   S    
C13   C15   A    
C22   C24   A    
C7    C12   A    
O1    Zn1   S    
N1    Zn1   S    
O8    Zn1   S    
C7    C9    A    
C36   H14   S    
C22   C30   A    
C3    C5    A    
C37   H17   S    
C25   C27   A    
C26   C28   A    
C34   H8    S    
C14   C38   S    
C21   C23   A    
C37   H15   S    
C16   N2    A    
C4    Cl4   S    
C20   C26   A    
C8    C11   A    
C28   C30   A    
C17   C19   S    
C18   C20   S    
C3    C32   A    
C19   C25   A    
O7    Zn2   S    
C17   O5    A    
C21   Cl1   S    
C4    C31   A    
C1    O3    A    
C7    Cl5   S    
C2    O4    A    
C8    C10   A    
C35   H11   S    
O5    Zn1   S    
C22   Cl2   S    
C16   Cl10  S    
