data_mof_unit_2258.cif
_audit_creation_date              2013-03-05T16:03:59-0500
_audit_creation_method            fapswitch 2.2
_symmetry_space_group_name_H-M    P1
_symmetry_Int_Tables_number       1
_space_group_crystal_system       triclinic
_cell_length_a                    12.940759
_cell_length_b                    10.985462
_cell_length_c                    9.596434
_cell_angle_alpha                 90.234587
_cell_angle_beta                  96.844253
_cell_angle_gamma                 90.695035
_cell_volume                      1354.38855112

loop_
_atom_site_label
_atom_site_type_symbol
_atom_site_description
_atom_site_fract_x
_atom_site_fract_y
_atom_site_fract_z
_atom_type_partial_charge
O1    O     O_R   0.499990 0.319660 0.618740 -0.536112
O2    O     O_R   0.500010 0.680340 0.381260 -0.536280
O3    O     O_R   0.499990 0.319630 0.381170 -0.558739
O4    O     O_R   0.500010 0.680370 0.618830 -0.558542
C1    C     C_R   0.500538 0.262233 0.499584 0.871382
C2    C     C_R   0.496039 0.737457 0.499560 0.889373
O5    O     O_R   0.349000 0.499990 0.599490 -0.577080
O6    O     O_R   0.651000 0.500010 0.400510 -0.598405
O7    O     O_R   0.348990 0.499960 0.361920 -0.531784
O8    O     O_R   0.651010 0.500040 0.638080 -0.531299
C3    C     C_R   0.301046 0.499024 0.473167 0.870457
C4    C     C_R   0.699247 0.499352 0.526852 0.845181
Cu1   Cu    Cu3+1 0.500000 0.500020 0.640660 1.101887
Cu2   Cu    Cu3+1 0.500000 0.499980 0.359340 1.095462
C5    C     C_R   0.812526 0.503162 0.543193 -0.163020
C6    C     C_R   0.189006 0.484603 0.458591 -0.149823
C7    C     C_R   0.045717 0.339620 0.442644 0.373815
C8    C     C_R   0.967579 0.624749 0.611176 0.365950
C9    C     C_R   0.149550 0.367389 0.431914 -0.162431
C10   C     C_R   0.861997 0.602056 0.614969 -0.158526
C11   C     C_R   0.125461 0.577866 0.499519 -0.077478
C12   C     C_R   0.870328 0.416006 0.478298 -0.076097
C13   C     C_R   0.024573 0.546538 0.531363 -0.048769
C14   C     C_R   0.979579 0.432264 0.483825 -0.044006
H1    H     H_    0.817189 0.664794 0.670132 0.228442
H2    H     H_    0.201585 0.295115 0.409325 0.194655
C15   C     C_R   0.507474 0.061591 0.372961 -0.147090
C16   C     C_R   0.476018 0.937417 0.621299 -0.152448
C17   C     C_R   0.501288 0.934956 0.373119 0.306191
C18   C     C_R   0.483930 0.064072 0.622205 0.310805
C19   C     C_R   0.489647 0.871352 0.498074 -0.232387
C20   C     C_R   0.499396 0.127899 0.498377 -0.235643
C21   C     C_R   0.417006 0.452735 0.058565 0.412282
C22   C     C_R   0.582475 0.548233 0.941262 0.418264
C23   C     C_R   0.418118 0.452830 0.911051 -0.047810
C24   C     C_R   0.581868 0.547228 0.088875 -0.052040
H3    H     H_    0.352766 0.414000 0.844127 0.205179
H4    H     H_    0.647027 0.586610 0.155695 0.202385
N1    N     N_R   0.500030 0.500030 0.852080 -0.250074
N2    N     N_R   0.499970 0.499970 0.147920 -0.246279
C25   C     C_2   0.814940 0.316231 0.393994 0.960186
O9    O     O_2   0.751526 0.252055 0.445043 -0.542352
O10   O     O_R   0.836131 0.295951 0.256316 -0.684301
H5    H     H_    0.796569 0.223251 0.210598 0.396802
C26   C     C_2   0.157594 0.708160 0.486389 0.958905
O11   O     O_2   0.249026 0.739277 0.508589 -0.572214
O12   O     O_R   0.082497 0.794955 0.442752 -0.680835
H6    H     H_    0.113346 0.879804 0.436813 0.389265
N3    N     N_R   0.014274 0.213725 0.432751 0.126573
O13   O     O_R   0.973435 0.163103 0.536076 -0.272114
O14   O     O_R   0.045190 0.144615 0.335721 -0.267403
N4    N     N_R   0.017248 0.720232 0.699019 0.150430
O15   O     O_R   0.106328 0.701116 0.773497 -0.268379
O16   O     O_R   0.966855 0.818844 0.721503 -0.233452
C27   C     C_2   0.518824 0.119801 0.236503 1.027014
O17   O     O_2   0.598277 0.176159 0.219525 -0.544477
O18   O     O_R   0.439395 0.105124 0.125734 -0.641269
H7    H     H_    0.452544 0.155174 0.041449 0.387927
C28   C     C_2   0.452366 0.877646 0.752028 1.016701
O19   O     O_2   0.370419 0.821619 0.754637 -0.490649
O20   O     O_R   0.524091 0.886440 0.872206 -0.639180
H8    H     H_    0.503967 0.831927 0.949315 0.383144
N5    N     N_R   0.507118 0.871645 0.243551 0.130684
O21   O     O_R   0.596924 0.855408 0.198543 -0.329420
O22   O     O_R   0.422295 0.831310 0.170585 -0.297593
N6    N     N_R   0.472559 0.127220 0.750193 0.127740
O23   O     O_R   0.380244 0.154069 0.780884 -0.346930
O24   O     O_R   0.554708 0.158353 0.835103 -0.295484
N7    N     N_R   0.325790 0.405127 0.110641 0.142541
O25   O     O_R   0.234686 0.443169 0.057761 -0.289977
O26   O     O_R   0.331186 0.307721 0.187235 -0.329376
N8    N     N_R   0.671420 0.600620 0.888368 0.136743
O27   O     O_R   0.763906 0.564271 0.937554 -0.307089
O28   O     O_R   0.662501 0.701980 0.819033 -0.321705

loop_
_geom_bond_atom_site_label_1
_geom_bond_atom_site_label_2
_geom_bond_distance
_ccdc_geom_bond_type
C21   N2    1.385863 A    
N6    O24   1.301344 A    
C27   O17   1.221600 D    
C17   N5    1.432479 S    
C6    C11   1.405089 A    
C21   N7    1.429813 S    
C15   C17   1.392483 A    
N8    O28   1.298758 A    
C25   O10   1.398532 S    
C3    C6    1.446628 S    
C23   N1    1.358224 A    
O12   H6    1.014037 S    
C4    C5    1.455650 S    
O6    C4    1.296000 A    
O10   H5    1.012963 S    
C1    C20   1.475592 S    
C8    C13   1.418956 A    
N5    O22   1.301539 A    
O20   H8    1.009842 S    
N3    O14   1.301483 A    
C16   C18   1.393803 A    
C2    C19   1.474256 S    
C8    N4    1.439181 S    
C28   O19   1.222545 D    
C17   C19   1.412858 A    
O2    C2    1.301536 A    
C26   O11   1.221351 D    
C18   C20   1.415590 A    
O7    C3    1.297135 A    
C21   C23   1.417397 A    
O18   H7    1.009780 S    
C18   N6    1.431783 S    
O3    Cu2   1.993126 S    
O8    C4    1.299194 A    
C11   C26   1.495682 S    
O1    C1    1.304498 A    
C12   C14   1.417542 A    
C24   H4    1.081367 S    
C7    C9    1.390124 A    
C5    C12   1.409814 A    
N4    O16   1.301583 A    
O5    C3    1.294297 A    
C22   C24   1.417599 A    
N7    O25   1.301238 A    
C27   O18   1.395218 S    
C11   C13   1.414694 A    
C6    C9    1.390851 A    
C5    C10   1.391550 A    
O2    Cu2   1.991613 S    
C15   C27   1.481805 S    
Cu1   N1    2.028831 S    
C7    C14   1.422298 A    
C28   O20   1.393799 S    
C10   H1    1.082275 S    
C13   C14   1.427349 A    
Cu2   N2    2.028831 S    
N5    O21   1.301157 A    
C12   C25   1.484957 S    
C22   N8    1.428031 S    
O5    Cu1   1.946897 S    
O1    Cu1   1.991612 S    
N4    O15   1.301745 A    
C9    H2    1.084966 S    
C8    C10   1.390668 A    
O4    C2    1.303307 A    
N3    O13   1.301537 A    
C25   O9    1.222736 D    
C16   C28   1.480565 S    
C7    N3    1.436451 S    
O4    Cu1   1.993127 S    
N7    O26   1.298527 A    
O7    Cu2   1.957286 S    
C24   N2    1.358677 A    
O6    Cu2   1.946895 S    
N6    O23   1.300994 A    
C26   O12   1.399168 S    
C23   H3    1.081294 S    
C15   C20   1.419401 A    
Cu1   Cu2   2.699667 S    
C16   C19   1.414908 A    
C22   N1    1.384225 A    
N8    O27   1.301207 A    
O3    C1    1.301141 A    
O8    Cu1   1.957286 S    
