data_mof_unit_1577.cif
_audit_creation_date              2012-12-10T17:46:31-0500
_audit_creation_method            fapswitch 2.2
_symmetry_space_group_name_H-M    P1
_symmetry_Int_Tables_number       1
_space_group_crystal_system       triclinic
_cell_length_a                    20.965761
_cell_length_b                    21.64295
_cell_length_c                    14.752014
_cell_angle_alpha                 90.050804
_cell_angle_beta                  128.917837
_cell_angle_gamma                 90.091457
_cell_volume                      5208.14114749

loop_
_atom_site_label
_atom_site_type_symbol
_atom_type_description
_atom_site_fract_x
_atom_site_fract_y
_atom_site_fract_z
_atom_type_partial_charge
C1    C     C_R   0.604529 0.915437 0.634046 0.798800
C2    C     C_R   0.398028 0.086362 0.369154 0.808495
C3    C     C_R   0.396424 0.914465 0.367651 0.801140
C4    C     C_R   0.602877 0.085873 0.632262 0.798573
C5    C     C_R   0.103209 0.414383 0.632102 0.800999
C6    C     C_R   0.898408 0.586688 0.369564 0.798946
C7    C     C_R   0.897533 0.413359 0.368808 0.801127
C8    C     C_R   0.101852 0.586466 0.630714 0.799238
C9    C     C_R   0.326181 0.772183 0.931500 -0.246208
C10   C     C_R   0.642329 0.246789 0.045189 -0.232077
C11   C     C_R   0.683165 0.780177 0.085214 -0.250244
C12   C     C_R   0.345918 0.240027 0.941835 -0.292494
C13   C     C_R   0.783058 0.301712 0.875275 -0.233563
C14   C     C_R   0.136873 0.754823 0.035770 -0.251117
C15   C     C_R   0.179830 0.277279 0.080660 -0.243584
C16   C     C_R   0.867476 0.761361 0.972837 -0.250148
C17   C     C_R   0.318412 0.001206 0.655995 0.333242
C18   C     C_R   0.679657 0.014962 0.340879 0.321128
C19   C     C_R   0.819409 0.510696 0.657236 0.327064
C20   C     C_R   0.180955 0.507641 0.343015 0.329526
C21   C     C_R   0.351388 0.999096 0.597873 -0.036453
C22   C     C_R   0.648202 0.005534 0.400454 -0.044218
C23   C     C_R   0.851698 0.504758 0.598489 -0.041940
C24   C     C_R   0.148468 0.502850 0.401630 -0.037132
C25   C     C_R   0.486635 0.005727 0.775793 0.076515
C26   C     C_R   0.512691 0.001944 0.223830 0.119343
C27   C     C_R   0.987078 0.501210 0.776100 0.084010
C28   C     C_R   0.012926 0.502618 0.224001 0.079372
C29   C     C_R   0.458400 0.008944 0.841659 -0.035692
C30   C     C_R   0.539194 0.009273 0.155769 -0.019467
C31   C     C_R   0.959831 0.507233 0.843127 -0.084739
C32   C     C_R   0.040369 0.507346 0.157094 -0.087296
C33   C     C_R   0.372423 0.002727 0.779934 0.014622
C34   C     C_R   0.624938 0.016741 0.216620 0.016651
C35   C     C_R   0.873514 0.509826 0.781314 0.006414
C36   C     C_R   0.126770 0.507526 0.218920 0.011284
C37   C     C_R   0.513062 0.015973 0.966473 0.141028
C38   C     C_R   0.483287 0.009786 0.029918 0.130931
C39   C     C_R   0.015408 0.510410 0.968704 0.113032
C40   C     C_R   0.984918 0.511350 0.031612 0.106049
C41   C     C_R   0.398213 0.004351 0.965335 -0.160814
C42   C     C_R   0.596307 0.030398 0.029341 -0.201404
C43   C     C_R   0.899780 0.516407 0.967098 -0.172511
C44   C     C_R   0.100722 0.512953 0.033300 -0.175598
C45   C     C_R   0.343386 0.999575 0.844266 -0.040886
C46   C     C_R   0.652265 0.028465 0.150985 -0.002294
C47   C     C_R   0.844482 0.513559 0.845774 -0.024671
C48   C     C_R   0.155905 0.509625 0.154505 -0.022893
C49   C     C_R   0.656140 0.138624 0.701485 -0.059553
C50   C     C_R   0.331205 0.869819 0.287788 -0.056759
C51   C     C_R   0.340127 0.135641 0.294994 -0.053285
C52   C     C_R   0.671984 0.873782 0.719305 -0.060735
C53   C     C_R   0.159912 0.635658 0.705333 -0.059633
C54   C     C_R   0.835453 0.365624 0.291853 -0.060682
C55   C     C_R   0.841893 0.637081 0.296960 -0.059149
C56   C     C_R   0.166200 0.368440 0.710399 -0.057651
C57   C     C_R   0.740618 0.224489 0.729349 -0.160080
C58   C     C_R   0.197910 0.824575 0.199539 -0.159261
C59   C     C_R   0.220009 0.196687 0.220170 -0.156540
C60   C     C_R   0.804464 0.828325 0.806204 -0.160262
C61   C     C_R   0.286753 0.690455 0.794264 -0.157502
C62   C     C_R   0.714642 0.305935 0.224273 -0.161807
C63   C     C_R   0.718289 0.694998 0.214023 -0.161870
C64   C     C_R   0.290899 0.313234 0.785318 -0.167301
C65   C     C_R   0.697178 0.170981 0.669630 -0.189399
C66   C     C_R   0.262547 0.863065 0.283074 -0.171115
C67   C     C_R   0.274222 0.150014 0.293042 -0.183662
C68   C     C_R   0.738434 0.864485 0.719980 -0.179482
C69   C     C_R   0.231175 0.645071 0.718189 -0.183116
C70   C     C_R   0.776809 0.347277 0.303777 -0.175562
C71   C     C_R   0.771358 0.647547 0.285450 -0.181091
C72   C     C_R   0.230207 0.355327 0.707042 -0.178819
C73   C     C_R   0.660239 0.159908 0.794806 -0.161473
C74   C     C_R   0.334493 0.836895 0.209882 -0.199038
C75   C     C_R   0.350360 0.167764 0.222914 -0.169566
C76   C     C_R   0.673318 0.847162 0.806760 -0.178575
C77   C     C_R   0.144912 0.671933 0.768411 -0.161516
C78   C     C_R   0.831602 0.340682 0.201244 -0.186562
C79   C     C_R   0.858394 0.674410 0.236507 -0.162357
C80   C     C_R   0.164540 0.339538 0.793181 -0.194992
C81   C     C_R   0.695796 0.217318 0.847514 0.113743
C82   C     C_R   0.264931 0.805543 0.114552 0.131580
C83   C     C_R   0.289581 0.207633 0.135916 0.097109
C84   C     C_R   0.742952 0.815540 0.900950 0.125775
C85   C     C_R   0.206161 0.709926 0.860073 0.097304
C86   C     C_R   0.762674 0.306500 0.110625 0.116202
C87   C     C_R   0.799380 0.715449 0.149408 0.099649
C88   C     C_R   0.231023 0.303864 0.882779 0.126864
C89   C     C_R   0.740471 0.247686 0.818045 0.124158
C90   C     C_R   0.198915 0.795642 0.115274 0.130949
C91   C     C_R   0.227899 0.226103 0.142850 0.129020
C92   C     C_R   0.806255 0.802848 0.895225 0.128282
C93   C     C_R   0.274636 0.723062 0.864653 0.130408
C94   C     C_R   0.706959 0.285588 0.127387 0.144472
C95   C     C_R   0.732033 0.729195 0.146816 0.130274
C96   C     C_R   0.290898 0.286736 0.872096 0.161143
C97   C     C_R   0.691944 0.243773 0.932797 -0.010037
C98   C     C_R   0.260816 0.782738 0.020583 -0.009215
C99   C     C_R   0.290231 0.232071 0.046320 0.009029
C100  C     C_R   0.748194 0.792682 0.995985 -0.007845
C101  C     C_R   0.201154 0.737054 0.944403 -0.019193
C102  C     C_R   0.748918 0.291462 0.005483 -0.027017
C103  C     C_R   0.805287 0.744564 0.067281 -0.018091
C104  C     C_R   0.236641 0.282095 0.978607 -0.008623
C105  C     C_R   0.313541 0.805921 0.999019 -0.011834
C106  C     C_R   0.632711 0.226438 0.946976 -0.009054
C107  C     C_R   0.697030 0.815815 0.020599 -0.030430
C108  C     C_R   0.340761 0.208611 0.019764 -0.089771
C109  C     C_R   0.786804 0.324316 0.966906 0.002442
C110  C     C_R   0.140940 0.721343 0.958293 0.001816
C111  C     C_R   0.190659 0.309095 0.009225 -0.019106
C112  C     C_R   0.863386 0.727804 0.049978 0.002049
Cu1   Cu    Cu3+1 0.526640 1.000000 0.436960 0.964763
Cu2   Cu    Cu3+1 0.473360 0.000000 0.563040 0.956937
Cu3   Cu    Cu3+1 0.026640 0.500000 0.436960 0.962351
Cu4   Cu    Cu3+1 0.973360 0.500000 0.563040 0.961824
H1    H     H_    0.371255 0.787706 0.922617 0.178990
H2    H     H_    0.597209 0.234017 0.055665 0.162596
H3    H     H_    0.639048 0.795344 0.096144 0.183066
H4    H     H_    0.386656 0.223276 0.925493 0.167824
H5    H     H_    0.812587 0.327116 0.847179 0.181638
H6    H     H_    0.089010 0.744584 0.041992 0.185723
H7    H     H_    0.140020 0.296104 0.097151 0.181572
H8    H     H_    0.913362 0.749608 0.963329 0.182961
H9    H     H_    0.371863 0.002532 0.007538 0.182960
H10   H     H_    0.619657 0.043743 0.984703 0.119038
H11   H     H_    0.873405 0.520281 0.009589 0.181601
H12   H     H_    0.127130 0.516117 0.990930 0.175342
H13   H     H_    0.391368 0.837322 0.223079 0.152867
H14   H     H_    0.635446 0.131081 0.825751 0.144541
H15   H     H_    0.618796 0.850648 0.799301 0.149497
H16   H     H_    0.407567 0.162268 0.238463 0.150876
H17   H     H_    0.882778 0.348784 0.202157 0.161059
H18   H     H_    0.083918 0.670850 0.741580 0.156305
H19   H     H_    0.110426 0.344974 0.786245 0.154745
H20   H     H_    0.919078 0.671992 0.262435 0.155532
H21   H     H_    0.258696 0.887471 0.343614 0.155483
H22   H     H_    0.695269 0.155271 0.598227 0.162905
H23   H     H_    0.739280 0.884829 0.653690 0.159665
H24   H     H_    0.265764 0.126338 0.349479 0.156083
H25   H     H_    0.778801 0.364838 0.374284 0.160218
H26   H     H_    0.243182 0.618174 0.668415 0.155357
H27   H     H_    0.232726 0.376752 0.643028 0.161511
H28   H     H_    0.758170 0.619975 0.333187 0.154757
H29   H     H_    0.339605 0.699703 0.798995 0.146235
H30   H     H_    0.670980 0.291453 0.236471 0.137723
H31   H     H_    0.666166 0.704780 0.210702 0.146385
H32   H     H_    0.337586 0.301242 0.777800 0.151793
H33   H     H_    0.773157 0.248410 0.704765 0.147718
H34   H     H_    0.146727 0.818149 0.199755 0.153307
H35   H     H_    0.172042 0.209886 0.224308 0.146000
H36   H     H_    0.853675 0.819633 0.802466 0.153695
H37   H     H_    0.449349 0.999274 0.185716 0.139134
H38   H     H_    0.550835 0.006438 0.816361 0.122829
H39   H     H_    0.949195 0.500870 0.184985 0.159226
H40   H     H_    0.050680 0.497582 0.815102 0.156587
H41   H     H_    0.688873 0.005156 0.494716 0.126250
H42   H     H_    0.311488 0.997548 0.503682 0.121724
H43   H     H_    0.188580 0.502951 0.495872 0.124139
H44   H     H_    0.811637 0.505678 0.504274 0.126619
N1    N     N_R   0.433280 1.000000 0.657760 -0.205914
N2    N     N_R   0.566720 0.000000 0.342240 -0.211411
N3    N     N_R   0.933280 0.500000 0.657760 -0.209183
N4    N     N_R   0.066720 0.500000 0.342240 -0.208735
O1    O     O_R   0.600040 0.935040 0.546740 -0.583291
O2    O     O_R   0.399960 0.064960 0.453260 -0.588818
O3    O     O_R   0.399960 0.935040 0.453260 -0.585279
O4    O     O_R   0.600040 0.064960 0.546740 -0.590296
O5    O     O_R   0.100040 0.435040 0.546740 -0.586109
O6    O     O_R   0.899960 0.564960 0.453260 -0.590599
O7    O     O_R   0.899960 0.435040 0.453260 -0.585312
O8    O     O_R   0.100040 0.564960 0.546740 -0.591401
O9    O     O_R   0.555010 0.935070 0.653220 -0.576473
O10   O     O_R   0.444990 0.064930 0.346780 -0.570945
O11   O     O_R   0.444990 0.935070 0.346780 -0.578127
O12   O     O_R   0.555010 0.064930 0.653220 -0.581992
O13   O     O_R   0.055010 0.435070 0.653220 -0.579137
O14   O     O_R   0.944990 0.564930 0.346780 -0.566852
O15   O     O_R   0.944990 0.435070 0.346780 -0.574746
O16   O     O_R   0.055010 0.564930 0.653220 -0.563389
C113  C     C_2   0.344231 0.869970 0.029975 0.809714
O17   O     O_2   0.413053 0.882560 0.064371 -0.624830
O18   O     O_R   0.294298 0.915129 0.024809 -0.742285
H45   H     H_    0.325959 0.951119 0.079104 0.324568
C114  C     C_2   0.552552 0.197344 0.852867 0.803706
O19   O     O_2   0.520034 0.161758 0.877351 -0.614456
O20   O     O_R   0.512638 0.212511 0.736361 -0.746343
H46   H     H_    0.458684 0.189709 0.680607 0.339503
C115  C     C_2   0.668559 0.880806 0.996562 0.846031
O21   O     O_2   0.604853 0.894590 0.978263 -0.616279
O22   O     O_R   0.716178 0.926378 0.997058 -0.745543
H47   H     H_    0.689941 0.968578 0.974989 0.312055
C116  C     C_2   0.378337 0.146602 0.054210 0.849581
O23   O     O_2   0.337575 0.102447 0.042788 -0.556243
O24   O     O_R   0.459396 0.137509 0.098969 -0.762182
H48   H     H_    0.489399 0.177375 0.111513 0.294472
C117  C     C_2   0.819632 0.387098 0.007602 0.809476
O25   O     O_2   0.887464 0.399593 0.038374 -0.629881
O26   O     O_R   0.774269 0.430758 0.015764 -0.740932
H49   H     H_    0.805829 0.470006 0.057132 0.326660
C118  C     C_2   0.086223 0.667051 0.906204 0.820251
O27   O     O_2   0.113619 0.616681 0.909413 -0.618159
O28   O     O_R   0.003831 0.673193 0.857174 -0.769575
H50   H     H_    0.972080 0.633142 0.823045 0.332996
C119  C     C_2   0.165334 0.374383 0.983899 0.822823
O29   O     O_2   0.099518 0.389968 0.957140 -0.622544
O30   O     O_R   0.216821 0.417494 0.987714 -0.745616
H51   H     H_    0.189281 0.458183 0.949873 0.322564
C120  C     C_2   0.914215 0.671576 0.095637 0.821017
O31   O     O_2   0.883229 0.621768 0.086429 -0.615228
O32   O     O_R   0.996859 0.675294 0.144771 -0.770442
H52   H     H_    0.025549 0.633936 0.173259 0.332357
C121  C     C_2   0.257195 0.985236 0.791234 0.997687
O33   O     O_2   0.219472 0.019429 0.808626 -0.542772
O34   O     O_R   0.220771 0.930892 0.726631 -0.723061
H53   H     H_    0.162498 0.925460 0.697174 0.342848
C122  C     C_2   0.739224 0.037667 0.203833 0.955072
O35   O     O_2   0.761929 0.087486 0.194027 -0.596594
O36   O     O_R   0.794108 0.988387 0.259556 -0.695617
H54   H     H_    0.851436 0.999967 0.290230 0.346051
C123  C     C_2   0.756678 0.509357 0.792307 0.981567
O37   O     O_2   0.725570 0.549757 0.811114 -0.562108
O38   O     O_R   0.710925 0.457467 0.725851 -0.723645
H55   H     H_    0.652344 0.459159 0.696333 0.347519
C124  C     C_2   0.243470 0.503443 0.207800 0.984985
O39   O     O_2   0.276335 0.542919 0.190190 -0.568455
O40   O     O_R   0.286936 0.450789 0.272753 -0.710797
H56   H     H_    0.345606 0.451195 0.302476 0.345897
O41   O     O_3   0.234486 0.004611 0.592778 -0.710112
H57   H     H_    0.206848 0.003262 0.508241 0.320416
O42   O     O_3   0.762787 0.024381 0.403458 -0.704608
H58   H     H_    0.791123 0.021653 0.488098 0.322802
O43   O     O_3   0.736376 0.520540 0.594523 -0.707023
H59   H     H_    0.708554 0.519996 0.509902 0.321622
O44   O     O_3   0.264416 0.515429 0.405962 -0.707043
H60   H     H_    0.292227 0.514628 0.490571 0.322441

loop_
_geom_bond_atom_site_label_1
_geom_bond_atom_site_label_2
_ccdc_geom_bond_type
C72   H27   S    
C44   C48   A    
O28   H50   S    
C88   C96   A    
C14   H6    S    
C7    O7    A    
C33   C45   A    
C118  O27   D    
Cu4   N3    S    
C109  C117  S    
O38   H55   S    
C6    C55   S    
Cu3   O5    S    
C53   C69   A    
C76   C84   A    
Cu1   O4    S    
C79   C87   A    
C1    C52   S    
C118  O28   S    
C24   H43   S    
C3    O3    A    
Cu2   O3    S    
C121  O33   D    
C99   C108  A    
C62   C70   A    
C37   C38   A    
C80   H19   S    
C57   C89   A    
C68   H23   S    
C110  C118  S    
C10   H2    S    
C32   C36   A    
C51   C75   A    
C62   H30   S    
C18   O42   S    
C50   C74   A    
Cu1   O1    S    
C22   N2    A    
C76   H15   S    
C61   C93   A    
C114  O20   S    
C10   C94   A    
C9    C105  A    
Cu3   Cu4   S    
C63   C95   A    
C37   C42   A    
C13   H5    S    
C30   C38   A    
C115  O22   S    
C21   H42   S    
C63   H31   S    
Cu3   N4    S    
C117  O26   S    
C61   H29   S    
C14   C90   A    
C13   C109  A    
C86   C94   A    
C27   N3    A    
Cu1   N2    S    
C12   H4    S    
C85   C93   A    
C58   C66   A    
Cu2   O9    S    
O40   H56   S    
C29   C33   A    
C25   N1    A    
C56   C72   A    
C57   H33   S    
C28   H39   S    
C45   C121  S    
O44   H60   S    
C34   C46   A    
C117  O25   D    
O43   H59   S    
C2    O2    A    
C97   C102  A    
C52   C68   A    
Cu1   O11   S    
C59   C67   A    
C60   C92   A    
C78   C86   A    
C113  O18   S    
C99   C104  A    
C47   C123  S    
C35   C47   A    
O26   H49   S    
C46   C122  S    
C83   C99   A    
Cu4   O13   S    
C64   H32   S    
C82   C98   A    
C24   N4    A    
C17   C33   A    
C74   C82   A    
C19   O43   S    
C73   C81   A    
C88   C104  A    
C3    C50   S    
Cu2   O2    S    
C23   N3    A    
C121  O34   S    
C25   C29   A    
C124  O40   S    
C21   N1    A    
C30   C34   A    
C27   C31   A    
O30   H51   S    
C84   C100  A    
C15   C111  A    
C28   C32   A    
Cu4   O6    S    
C64   C96   A    
C38   C41   A    
C11   H3    S    
C43   H11   S    
O36   H54   S    
C12   C108  A    
C17   O41   S    
Cu2   N1    S    
C60   H36   S    
C116  O24   S    
C69   H26   S    
C119  O29   D    
C26   N2    A    
C100  C103  A    
C17   C21   A    
O22   H47   S    
Cu4   O7    S    
C87   C95   A    
C103  C112  A    
C113  O17   D    
C19   C23   A    
O34   H53   S    
O18   H45   S    
O41   H57   S    
C79   H20   S    
C41   H9    S    
C123  O37   D    
C55   C79   A    
C8    O16   A    
C98   C105  A    
O32   H52   S    
C54   C70   A    
C16   C112  A    
C1    O1    A    
C20   O44   S    
C1    O9    A    
C23   H44   S    
C107  C115  S    
C120  O31   D    
C7    O15   A    
C59   C91   A    
C84   C92   A    
C67   H24   S    
C18   C34   A    
C5    O13   A    
C49   C65   A    
C58   C90   A    
C87   C103  A    
C65   H22   S    
C3    O11   A    
C122  O35   D    
C63   C71   A    
C26   C30   A    
C5    C56   S    
C62   C94   A    
C42   C46   A    
C53   C77   A    
C49   C73   A    
C10   C106  A    
C77   H18   S    
C97   C106  A    
C42   H10   S    
Cu3   O15   S    
C86   C102  A    
C9    C93   A    
C39   C40   A    
C32   C40   A    
C85   C101  A    
C75   H16   S    
C28   N4    A    
Cu1   Cu2   S    
C6    O6    A    
C11   C95   A    
C27   H40   S    
C14   C110  A    
C111  C119  S    
C73   H14   S    
C44   H12   S    
C70   H25   S    
C5    O5    A    
C13   C89   A    
C25   H38   S    
C18   C22   A    
C4    O4    A    
C106  C114  S    
C57   C65   A    
Cu3   O8    S    
C52   C76   A    
C82   C90   A    
C8    C53   S    
C104  C111  A    
C50   C66   A    
C16   C92   A    
C39   C44   A    
C22   H41   S    
C59   H35   S    
C122  O36   S    
C98   C101  A    
C83   C91   A    
C56   C80   A    
C4    C49   S    
C61   C69   A    
C112  C120  S    
C40   C43   A    
Cu4   O16   S    
C101  C110  A    
C81   C89   A    
O20   H46   S    
C123  O38   S    
C19   C35   A    
C2    O10   A    
C11   C107  A    
C48   C124  S    
Cu1   O10   S    
C75   C83   A    
C114  O19   D    
C51   C67   A    
C66   H21   S    
C81   C97   A    
C77   C85   A    
Cu2   O12   S    
C120  O32   S    
C54   C78   A    
C31   C39   A    
C36   C48   A    
C31   C35   A    
C64   C72   A    
C16   H8    S    
C115  O21   D    
C78   H17   S    
C55   C71   A    
Cu3   O14   S    
C2    C51   S    
C26   H37   S    
C15   C91   A    
O24   H48   S    
C20   C36   A    
C8    O8    A    
C60   C68   A    
C80   C88   A    
C116  O23   D    
C4    O12   A    
C74   H13   S    
C29   C37   A    
O42   H58   S    
C100  C107  A    
C41   C45   A    
C12   C96   A    
C102  C109  A    
C15   H7    S    
C7    C54   S    
C105  C113  S    
C108  C116  S    
C119  O30   S    
C43   C47   A    
C20   C24   A    
C6    O14   A    
C9    H1    S    
C58   H34   S    
C71   H28   S    
C124  O39   D    
