data_mof_unit_4216.cif
_audit_creation_date              2012-12-11T15:41:12-0500
_audit_creation_method            fapswitch 2.2
_symmetry_space_group_name_H-M    P1
_symmetry_Int_Tables_number       1
_space_group_crystal_system       triclinic
_cell_length_a                    19.074853
_cell_length_b                    10.960987
_cell_length_c                    18.823235
_cell_angle_alpha                 89.892741
_cell_angle_beta                  90.191718
_cell_angle_gamma                 90.10798
_cell_volume                      3935.51134115

loop_
_atom_site_label
_atom_site_type_symbol
_atom_type_description
_atom_site_fract_x
_atom_site_fract_y
_atom_site_fract_z
_atom_type_partial_charge
C1    C     C_R   0.724221 0.962484 0.856354 0.544462
C2    C     C_R   0.273958 0.957689 0.145598 0.549125
C3    C     C_R   0.225755 0.458035 0.854621 0.550025
C4    C     C_R   0.772857 0.456489 0.146510 0.544376
C5    C     C_R   0.699161 0.473476 0.038120 0.012557
C6    C     C_R   0.305529 0.436203 0.959951 0.005676
C7    C     C_R   0.194296 0.942942 0.039563 0.006641
C8    C     C_R   0.798061 0.974155 0.964533 0.008891
C9    C     C_R   0.693667 0.455348 0.965577 0.015365
C10   C     C_R   0.312098 0.427428 0.033172 0.035071
C11   C     C_R   0.188444 0.933787 0.966240 0.033069
C12   C     C_R   0.806130 0.962042 0.037334 0.010099
C13   C     C_R   0.780920 0.297158 0.973941 -0.147347
C14   C     C_R   0.187828 0.390334 0.042982 -0.165107
C15   C     C_R   0.310341 0.877253 0.959372 -0.162042
C16   C     C_R   0.682775 0.919301 0.049125 -0.159961
C17   C     C_R   0.784812 0.312597 0.047109 -0.158970
C18   C     C_R   0.182227 0.390751 0.969807 -0.157977
C19   C     C_R   0.314438 0.876548 0.032573 -0.159843
C20   C     C_R   0.675572 0.925777 0.975621 -0.148908
C21   C     C_3   0.688234 0.607938 0.030202 -0.245414
C22   C     C_3   0.357521 0.537469 0.955019 -0.275219
C23   C     C_3   0.148003 0.052210 0.042621 -0.271266
C24   C     C_3   0.868725 0.923159 0.949626 -0.293531
C25   C     C_3   0.681452 0.587351 0.950885 -0.280578
C26   C     C_3   0.364549 0.528867 0.035178 -0.276988
C27   C     C_3   0.141684 0.042890 0.962469 -0.279407
C28   C     C_3   0.877554 0.907895 0.029232 -0.260139
C29   C     C_R   0.739452 0.375836 0.931754 0.021504
C30   C     C_R   0.252853 0.410332 0.075907 0.018326
C31   C     C_R   0.247362 0.907345 0.924835 0.020102
C32   C     C_R   0.749747 0.925477 0.080022 0.011197
C33   C     C_R   0.508827 0.170688 0.420759 0.019794
C34   C     C_R   0.516683 0.170534 0.568391 0.021748
C35   C     C_R   0.008826 0.670689 0.420759 0.019604
C36   C     C_R   0.016682 0.670535 0.568391 0.021771
C37   C     C_R   0.522059 0.279299 0.457725 0.028366
C38   C     C_R   0.525212 0.278123 0.530063 0.043958
C39   C     C_R   0.022058 0.779299 0.457725 0.028312
C40   C     C_R   0.025211 0.778124 0.530063 0.044021
C41   C     C_R   0.516182 0.059367 0.531466 -0.166535
C42   C     C_R   0.514386 0.059418 0.457257 -0.171915
C43   C     C_R   0.016181 0.559368 0.531466 -0.166502
C44   C     C_R   0.014385 0.559418 0.457257 -0.171954
C45   C     C_R   0.529371 0.177705 0.850440 0.552409
C46   C     C_R   0.469458 0.177677 0.148767 0.553561
C47   C     C_R   0.030405 0.677660 0.851073 0.554982
C48   C     C_R   0.970223 0.677529 0.149312 0.544139
C49   C     C_3   0.484756 0.400404 0.458395 -0.267680
C50   C     C_3   0.488166 0.396732 0.538386 -0.278500
C51   C     C_3   0.984756 0.900405 0.458395 -0.267662
C52   C     C_3   0.988166 0.896733 0.538385 -0.278493
C53   C     C_R   0.750764 0.400825 0.419647 0.016567
C54   C     C_R   0.250383 0.412160 0.578258 0.013881
C55   C     C_R   0.250766 0.900830 0.419649 0.016390
C56   C     C_R   0.750382 0.912161 0.578257 0.013591
C57   C     C_R   0.798888 0.329576 0.457858 0.022236
C58   C     C_R   0.214543 0.317347 0.544342 0.018504
C59   C     C_R   0.298891 0.829586 0.457862 0.022124
C60   C     C_R   0.714542 0.817349 0.544341 0.018625
C61   C     C_R   0.794434 0.319771 0.530360 0.032675
C62   C     C_R   0.216104 0.307703 0.471573 0.045586
C63   C     C_R   0.294437 0.819781 0.530363 0.033042
C64   C     C_R   0.716103 0.807706 0.471572 0.045583
C65   C     C_R   0.686372 0.431510 0.529202 -0.151122
C66   C     C_R   0.298736 0.472793 0.463527 -0.172450
C67   C     C_R   0.186373 0.931512 0.529203 -0.151022
C68   C     C_R   0.798736 0.972794 0.463527 -0.172419
C69   C     C_R   0.690279 0.440613 0.454865 -0.153825
C70   C     C_R   0.297105 0.483810 0.537653 -0.164634
C71   C     C_R   0.190279 0.940615 0.454867 -0.153949
C72   C     C_R   0.797105 0.983810 0.537652 -0.164762
C73   C     C_3   0.877310 0.335336 0.461383 -0.269018
C74   C     C_3   0.139263 0.278569 0.547030 -0.270501
C75   C     C_3   0.377314 0.835355 0.461388 -0.269042
C76   C     C_3   0.639262 0.778570 0.547029 -0.270492
C77   C     C_3   0.871774 0.324159 0.541119 -0.279216
C78   C     C_3   0.140665 0.272848 0.466823 -0.266899
C79   C     C_3   0.371776 0.824175 0.541124 -0.279307
C80   C     C_3   0.640664 0.772851 0.466822 -0.266937
C81   C     C_R   0.742165 0.379572 0.568007 0.018277
C82   C     C_R   0.254303 0.389001 0.429544 0.021298
C83   C     C_R   0.242167 0.879578 0.568009 0.018871
C84   C     C_R   0.754302 0.889003 0.429543 0.021077
C85   C     C_R   0.735918 0.354895 0.855777 0.548840
C86   C     C_R   0.261856 0.364663 0.147560 0.544878
C87   C     C_R   0.238149 0.863970 0.852679 0.546532
C88   C     C_R   0.761761 0.865208 0.147772 0.537693
C89   C     C_R   0.727963 0.955551 0.647495 0.552013
C90   C     C_R   0.271896 0.953405 0.351839 0.546778
C91   C     C_R   0.227963 0.455553 0.647494 0.551239
C92   C     C_R   0.771896 0.453404 0.351838 0.546313
C93   C     C_R   0.532167 0.176428 0.643107 0.544866
C94   C     C_R   0.471674 0.176676 0.354101 0.547917
C95   C     C_R   0.032167 0.676428 0.643107 0.544984
C96   C     C_R   0.971674 0.676676 0.354101 0.548567
C97   C     C_R   0.737463 0.355525 0.643784 0.548260
C98   C     C_R   0.261197 0.359632 0.354748 0.544613
C99   C     C_R   0.237464 0.855528 0.643784 0.546718
C100  C     C_R   0.761196 0.859634 0.354747 0.545322
C101  C     C_2   0.495741 0.170515 0.920038 -0.107192
C102  C     C_2   0.499730 0.168267 0.077634 -0.109024
C103  C     C_2   0.999504 0.669727 0.921831 -0.116914
C104  C     C_2   0.002917 0.667610 0.079377 -0.123250
C105  C     C_2   0.485733 0.070568 0.036618 -0.162847
C106  C     C_2   0.499597 0.069133 0.959780 -0.166470
C107  C     C_2   0.990605 0.569431 0.038248 -0.168324
C108  C     C_2   0.006036 0.568845 0.961770 -0.160744
C109  C     C_R   0.748598 0.408916 0.078905 0.015196
C110  C     C_R   0.240223 0.421261 0.927214 0.021481
C111  C     C_R   0.257988 0.918227 0.073764 0.022155
C112  C     C_R   0.734503 0.944575 0.932126 0.019195
Cr1   Cr    Cr6+3 0.769260 0.163750 0.750730 1.011162
Cr2   Cr    Cr6+3 0.230740 0.163750 0.249270 1.008787
Cr3   Cr    Cr6+3 0.269260 0.663750 0.750730 1.007481
Cr4   Cr    Cr6+3 0.730740 0.663750 0.249270 1.007987
Cr5   Cr    Cr6+3 0.612640 0.009910 0.748780 1.005385
Cr6   Cr    Cr6+3 0.387360 0.009910 0.251220 1.005195
Cr7   Cr    Cr6+3 0.112640 0.509910 0.748780 1.008302
Cr8   Cr    Cr6+3 0.887360 0.509910 0.251220 1.006231
Cr9   Cr    Cr6+3 0.614190 0.322400 0.747710 1.015055
Cr10  Cr    Cr6+3 0.385810 0.322400 0.252290 1.011911
Cr11  Cr    Cr6+3 0.114190 0.822400 0.747710 1.013539
Cr12  Cr    Cr6+3 0.885810 0.822400 0.252290 1.006449
H1    H     H_    0.930063 0.895611 0.438817 0.175350
H2    H     H_    0.021679 0.969510 0.561421 0.132196
H3    H     H_    0.430063 0.395610 0.438818 0.175280
H4    H     H_    0.521679 0.469509 0.561421 0.132169
H5    H     H_    0.516868 0.474881 0.434919 0.121419
H6    H     H_    0.436047 0.386054 0.563938 0.141420
H7    H     H_    0.016869 0.974881 0.434918 0.121429
H8    H     H_    0.936046 0.886055 0.563938 0.141399
H9    H     H_    0.641321 0.468044 0.556261 0.125449
H10   H     H_    0.332677 0.532073 0.432914 0.121319
H11   H     H_    0.141321 0.968043 0.556262 0.125506
H12   H     H_    0.832677 0.032074 0.432913 0.121412
H13   H     H_    0.648942 0.485647 0.425707 0.116966
H14   H     H_    0.327712 0.555350 0.562203 0.138167
H15   H     H_    0.148942 0.985644 0.425707 0.116909
H16   H     H_    0.827712 0.055349 0.562203 0.138060
H17   H     H_    0.897111 0.425721 0.444640 0.170248
H18   H     H_    0.103593 0.349713 0.566924 0.162543
H19   H     H_    0.397110 0.925743 0.444646 0.170243
H20   H     H_    0.603593 0.849714 0.566924 0.162487
H21   H     H_    0.902588 0.255327 0.435914 0.128270
H22   H     H_    0.132709 0.187887 0.572588 0.126220
H23   H     H_    0.402595 0.755350 0.435918 0.128232
H24   H     H_    0.632709 0.687888 0.572586 0.126311
H25   H     H_    0.893439 0.237232 0.562036 0.132712
H26   H     H_    0.132433 0.180184 0.445606 0.136595
H27   H     H_    0.393443 0.737248 0.562040 0.132663
H28   H     H_    0.632432 0.680187 0.445604 0.136633
H29   H     H_    0.888929 0.407472 0.570000 0.138827
H30   H     H_    0.108517 0.344486 0.440758 0.135296
H31   H     H_    0.388929 0.907487 0.570006 0.138548
H32   H     H_    0.608516 0.844489 0.440757 0.135257
H33   H     H_    0.524738 0.248738 0.055340 0.108469
H34   H     H_    0.476945 0.255151 0.943098 0.110173
H35   H     H_    0.028369 0.748138 0.057630 0.109805
H36   H     H_    0.980502 0.753569 0.945288 0.104916
H37   H     H_    0.812948 0.226812 0.950288 0.150428
H38   H     H_    0.141364 0.369561 0.073759 0.136150
H39   H     H_    0.356405 0.849931 0.929883 0.132361
H40   H     H_    0.637219 0.895640 0.080542 0.134952
H41   H     H_    0.821351 0.257219 0.077266 0.137525
H42   H     H_    0.130720 0.375408 0.947267 0.135993
H43   H     H_    0.364437 0.852712 0.056087 0.130793
H44   H     H_    0.624247 0.911301 0.952840 0.135137
H45   H     H_    0.176211 0.135503 0.060207 0.176250
H46   H     H_    0.904633 0.992516 0.926485 0.138867
H47   H     H_    0.735732 0.661522 0.044521 0.157487
H48   H     H_    0.333773 0.624463 0.936866 0.171699
H49   H     H_    0.638691 0.638916 0.055251 0.143097
H50   H     H_    0.405791 0.509617 0.926427 0.133047
H51   H     H_    0.097990 0.033013 0.070683 0.130858
H52   H     H_    0.865898 0.835329 0.920268 0.131366
H53   H     H_    0.627724 0.604847 0.930264 0.140775
H54   H     H_    0.417068 0.496740 0.052788 0.145511
H55   H     H_    0.087913 0.018667 0.944315 0.141502
H56   H     H_    0.879428 0.810641 0.045886 0.152428
H57   H     H_    0.724425 0.630146 0.919674 0.136530
H58   H     H_    0.344770 0.610729 0.063519 0.138436
H59   H     H_    0.166147 0.120778 0.933754 0.141520
H60   H     H_    0.919319 0.967078 0.051975 0.140909
H61   H     H_    0.513991 0.973826 0.559814 0.118059
H62   H     H_    0.509670 0.973769 0.429268 0.116089
H63   H     H_    0.013990 0.473827 0.559814 0.118114
H64   H     H_    0.009668 0.473769 0.429269 0.116097
O1    O     O_R   0.784290 0.290360 0.830540 -0.527613
O2    O     O_R   0.215710 0.290360 0.169460 -0.533334
O3    O     O_R   0.284290 0.790360 0.830540 -0.532784
O4    O     O_R   0.715710 0.790360 0.169460 -0.531180
O5    O     O_R   0.554690 0.080440 0.673480 -0.509568
O6    O     O_R   0.445310 0.080440 0.326520 -0.510996
O7    O     O_R   0.054690 0.580440 0.673480 -0.509421
O8    O     O_R   0.945310 0.580440 0.326520 -0.510506
O9    O     O_R   0.543980 0.282110 0.666770 -0.520539
O10   O     O_R   0.456020 0.282110 0.333230 -0.526533
O11   O     O_R   0.043980 0.782110 0.666770 -0.520568
O12   O     O_R   0.956020 0.782110 0.333230 -0.525688
O13   O     O_R   0.679070 0.374030 0.674430 -0.507400
O14   O     O_R   0.320930 0.374030 0.325570 -0.510733
O15   O     O_R   0.179070 0.874030 0.674430 -0.508617
O16   O     O_R   0.820930 0.874030 0.325570 -0.509491
O17   O     O_3   0.665360 0.165350 0.749070 -0.251115
O18   O     O_3   0.334640 0.165350 0.250930 -0.244738
O19   O     O_3   0.165360 0.665350 0.749070 -0.247144
O20   O     O_3   0.834640 0.665350 0.250930 -0.245515
O21   O     O_R   0.762610 0.041070 0.825230 -0.500798
O22   O     O_R   0.237390 0.041070 0.174770 -0.502438
O23   O     O_R   0.262610 0.541070 0.825230 -0.501678
O24   O     O_R   0.737390 0.541070 0.174770 -0.502102
O25   O     O_R   0.667390 0.924160 0.829970 -0.529183
O26   O     O_R   0.332610 0.924160 0.170030 -0.531122
O27   O     O_R   0.167390 0.424160 0.829970 -0.530785
O28   O     O_R   0.832610 0.424160 0.170030 -0.525612
O29   O     O_R   0.553980 0.081420 0.821780 -0.500215
O30   O     O_R   0.446020 0.081420 0.178220 -0.499816
O31   O     O_R   0.053980 0.581420 0.821780 -0.497185
O32   O     O_R   0.946020 0.581420 0.178220 -0.495927
O33   O     O_R   0.543210 0.283170 0.826740 -0.517082
O34   O     O_R   0.456790 0.283170 0.173260 -0.516590
O35   O     O_R   0.043210 0.783170 0.826740 -0.518997
O36   O     O_R   0.956790 0.783170 0.173260 -0.523470
O37   O     O_R   0.678350 0.375000 0.822720 -0.494879
O38   O     O_R   0.321650 0.375000 0.177280 -0.495585
O39   O     O_R   0.178350 0.875000 0.822720 -0.495125
O40   O     O_R   0.821650 0.875000 0.177280 -0.498500
O41   O     O_R   0.785060 0.289300 0.670580 -0.517622
O42   O     O_R   0.214940 0.289300 0.329420 -0.517284
O43   O     O_R   0.285060 0.789300 0.670580 -0.518992
O44   O     O_R   0.714940 0.789300 0.329420 -0.516885
O45   O     O_R   0.763330 0.040090 0.676940 -0.508221
O46   O     O_R   0.236670 0.040090 0.323060 -0.503666
O47   O     O_R   0.263330 0.540090 0.676940 -0.508495
O48   O     O_R   0.736670 0.540090 0.323060 -0.503601
O49   O     O_R   0.668160 0.923110 0.670000 -0.522303
O50   O     O_R   0.331840 0.923110 0.330000 -0.523188
O51   O     O_R   0.168160 0.423110 0.670000 -0.523129
O52   O     O_R   0.831840 0.423110 0.330000 -0.523528
H65   H     H_    0.462870 0.988870 0.059516 0.145002
H66   H     H_    0.513621 0.982723 0.935819 0.134744
H67   H     H_    0.966749 0.487716 0.060304 0.156592
H68   H     H_    0.022626 0.483445 0.938202 0.144043

loop_
_geom_bond_atom_site_label_1
_geom_bond_atom_site_label_2
_ccdc_geom_bond_type
C58   C62   A    
C39   C51   S    
C4    C109  S    
C67   C83   A    
Cr2   O2    S    
Cr3   O19   S    
C14   H38   S    
Cr9   O33   S    
C45   O29   A    
C41   C42   A    
C14   C18   A    
C93   O9    A    
C34   C93   S    
Cr9   O17   S    
C53   C69   A    
C33   C94   S    
C49   C50   S    
Cr3   O47   S    
C18   H42   S    
C9    C25   S    
Cr2   O46   S    
C73   H17   S    
C35   C96   S    
C16   H40   S    
C21   H49   S    
C15   C19   A    
C46   C102  S    
C78   H26   S    
Cr8   O8    S    
C89   O45   A    
C12   C28   S    
C46   O30   A    
C33   C42   A    
C13   C29   A    
Cr6   O18   S    
C74   H22   S    
C27   H55   S    
C55   C90   S    
Cr5   O17   S    
C8    C112  A    
C1    C112  S    
C54   C58   A    
C25   H53   S    
C103  H36   S    
C67   C71   A    
C23   H51   S    
C3    C110  S    
C85   O1    A    
Cr4   O48   S    
C48   C104  S    
C91   O47   A    
C65   C69   A    
Cr9   O37   S    
Cr8   O32   S    
C90   O46   A    
C102  C105  D    
C96   O12   A    
C96   O8    A    
C57   C73   S    
C57   C61   A    
C65   H9    S    
C51   H1    S    
Cr10  O18   S    
C64   C84   A    
C7    C11   A    
C47   O35   A    
C52   H2    S    
C50   H6    S    
C67   H11   S    
C77   H29   S    
C98   O42   A    
C61   C81   A    
C97   O41   A    
Cr8   O28   S    
Cr12  O36   S    
C61   C77   S    
C56   C72   A    
C23   H45   S    
Cr6   O30   S    
C107  C108  S    
Cr5   O29   S    
Cr7   O27   S    
C23   C27   S    
C30   C86   S    
C24   H46   S    
Cr3   O43   S    
C8    C12   A    
C8    C24   S    
Cr3   O3    S    
C19   C111  A    
Cr6   O50   S    
C74   H18   S    
Cr10  O34   S    
C11   C31   A    
Cr4   O44   S    
C83   C99   S    
Cr12  O20   S    
Cr7   O31   S    
C64   C80   S    
C47   C103  S    
C107  H67   S    
C34   C41   A    
C19   H43   S    
C106  H66   S    
C20   H44   S    
C100  O16   A    
C102  H33   S    
C105  H65   S    
C34   C38   A    
Cr12  O40   S    
C25   H57   S    
C80   H32   S    
C3    O27   A    
C26   H54   S    
C100  O44   A    
C69   H13   S    
C49   H3    S    
C2    C111  S    
C2    O22   A    
C86   O2    A    
C90   O50   A    
C1    O21   A    
C51   C52   S    
C52   H8    S    
C89   O49   A    
C36   C40   A    
C31   C87   S    
Cr10  O38   S    
C22   H50   S    
C77   H25   S    
C39   C40   A    
C53   C57   A    
C7    C111  A    
C78   H30   S    
C71   H15   S    
C48   O36   A    
C3    O23   A    
C75   H23   S    
C40   C52   S    
C50   H4    S    
C49   H5    S    
C92   O48   A    
Cr7   O51   S    
C33   C37   A    
Cr2   O18   S    
C73   H21   S    
C68   C72   A    
C94   O10   A    
C68   C84   A    
C55   C71   A    
C6    C110  A    
C35   C39   A    
C43   C44   A    
C5    C9    A    
C37   C38   A    
C66   C82   A    
C37   C49   S    
C10   C30   A    
C65   C81   A    
C54   C70   A    
C11   C27   S    
C16   C20   A    
C108  H68   S    
C53   C92   S    
C10   C26   S    
C85   O37   A    
C5    C21   S    
Cr6   O26   S    
Cr4   O20   S    
Cr10  O10   S    
C68   H12   S    
C15   C31   A    
C35   C44   A    
C28   H56   S    
Cr9   O9    S    
C103  C108  D    
C75   H19   S    
Cr8   O52   S    
C38   C50   S    
C26   H58   S    
C95   O11   A    
C56   C89   S    
C44   H64   S    
C101  H34   S    
C70   H14   S    
C87   O39   A    
C45   C101  S    
C74   C78   S    
C86   O38   A    
C82   C98   S    
C59   C63   A    
C32   C88   S    
C12   C32   A    
C72   H16   S    
C91   O51   A    
C13   H37   S    
C24   H52   S    
Cr5   O5    S    
C59   C75   S    
C41   H61   S    
Cr11  O11   S    
C55   C59   A    
C58   C74   S    
C24   C28   S    
C87   O3    A    
C48   O32   A    
C79   H27   S    
C15   H39   S    
C101  C106  D    
C80   H28   S    
C21   C25   S    
C92   O52   A    
C95   O7    A    
C99   O15   A    
C94   O6    A    
C29   C85   S    
C62   C78   S    
C18   C110  A    
C93   O5    A    
C76   C80   S    
C97   O13   A    
C76   H20   S    
C17   C109  A    
C43   H63   S    
Cr2   O42   S    
Cr8   O20   S    
C99   O43   A    
Cr1   O41   S    
C63   C79   S    
Cr11  O15   S    
C88   O4    A    
C16   C32   A    
C79   H31   S    
Cr1   O1    S    
C105  C106  S    
Cr12  O12   S    
C98   O14   A    
Cr11  O35   S    
C4    O24   A    
Cr3   O23   S    
C60   C64   A    
Cr6   O6    S    
C45   O33   A    
Cr2   O22   S    
C88   O40   A    
C14   C30   A    
C54   C91   S    
Cr4   O24   S    
C21   H47   S    
C1    O25   A    
C9    C29   A    
Cr9   O13   S    
C36   C95   S    
C42   H62   S    
Cr1   O45   S    
C47   O31   A    
C7    C23   S    
C5    C109  A    
C81   C97   S    
C60   C76   S    
Cr7   O7    S    
C62   C82   A    
C28   H60   S    
C46   O34   A    
Cr5   O25   S    
C27   H59   S    
C84   C100  S    
C6    C10   A    
Cr5   O49   S    
C13   C17   A    
C56   C60   A    
Cr10  O14   S    
Cr11  O19   S    
Cr11  O39   S    
C66   C70   A    
C76   H24   S    
C2    O26   A    
C51   H7    S    
Cr12  O16   S    
C22   C26   S    
C20   C112  A    
C63   C83   A    
C4    O28   A    
C73   C77   S    
Cr4   O4    S    
C36   C43   A    
C17   H41   S    
Cr7   O19   S    
C104  H35   S    
C66   H10   S    
C75   C79   S    
C104  C107  D    
C22   H48   S    
Cr1   O17   S    
Cr1   O21   S    
C6    C22   S    
