data_mof_unit_1803.cif
_audit_creation_date              2012-10-26T21:09:13-0400
_audit_creation_method            fapswitch 2.2
_symmetry_space_group_name_H-M    P1
_symmetry_Int_Tables_number       1
_space_group_crystal_system       triclinic
_cell_length_a                    15.434687
_cell_length_b                    15.456655
_cell_length_c                    9.698939
_cell_angle_alpha                 89.99501
_cell_angle_beta                  90.010578
_cell_angle_gamma                 90.002398
_cell_volume                      2313.86255877

loop_
_atom_site_label
_atom_site_type_symbol
_atom_type_description
_atom_site_fract_x
_atom_site_fract_y
_atom_site_fract_z
_atom_type_partial_charge
C1    C     C_R   0.379622 0.886053 0.500009 0.531828
C2    C     C_2   0.712974 0.220553 0.393084 -0.122057
C3    C     C_2   0.220042 0.286517 0.392904 -0.122471
C4    C     C_2   0.213076 0.720460 0.393060 -0.121901
C5    C     C_2   0.668176 0.802912 0.501021 0.300826
C6    C     C_2   0.696924 0.168503 0.500903 0.301470
C7    C     C_2   0.168207 0.302944 0.500910 0.300727
C8    C     C_2   0.196948 0.668475 0.500927 0.301434
C9    C     C_2   0.279893 0.213450 0.392853 -0.122277
C10   C     C_2   0.286119 0.780378 0.392973 -0.123431
C11   C     C_2   0.779599 0.713118 0.392999 -0.121274
C12   C     C_R   0.385832 0.120174 0.499998 0.532355
C13   C     C_2   0.786015 0.280472 0.392935 -0.123745
C14   C     C_2   0.331623 0.196892 0.500964 0.300065
C15   C     C_2   0.302571 0.832132 0.500971 0.300461
C16   C     C_2   0.831701 0.696993 0.500816 0.300264
C17   C     C_2   0.802590 0.332124 0.501009 0.300343
C18   C     C_2   0.429399 0.999132 0.922082 0.000234
C19   C     C_2   0.929399 0.499137 0.922082 0.000084
C20   C     C_2   0.429382 0.000287 0.077783 -0.010433
C21   C     C_2   0.929382 0.500298 0.077783 -0.010444
C22   C     C_3   0.588785 0.698830 0.608202 -0.117562
C23   C     C_R   0.879633 0.386042 0.500012 0.532128
C24   C     C_3   0.801237 0.088885 0.607385 -0.119375
C25   C     C_3   0.088372 0.198865 0.607313 -0.117337
C26   C     C_3   0.301197 0.588909 0.607676 -0.119725
C27   C     C_3   0.410788 0.301389 0.607503 -0.115766
C28   C     C_3   0.201298 0.913330 0.612262 -0.124560
C29   C     C_3   0.912458 0.799939 0.608568 -0.115719
C30   C     C_3   0.700956 0.412971 0.612006 -0.124591
C31   C     C_R   0.885879 0.620215 0.499985 0.531511
C32   C     C_R   0.620213 0.114155 0.500044 0.534974
C33   C     C_R   0.614108 0.879762 0.500059 0.535569
C34   C     C_R   0.120221 0.614147 0.500046 0.534681
C35   C     C_R   0.114121 0.379778 0.500047 0.535396
C36   C     C_2   0.719758 0.786193 0.392829 -0.121761
Cu1   Cu    Cu3+1 0.500020 0.000000 0.638630 0.977410
Cu2   Cu    Cu3+1 0.000020 0.500000 0.638630 0.976520
Cu3   Cu    Cu3+1 0.499980 1.000000 0.361370 0.901573
Cu4   Cu    Cu3+1 0.999980 0.500000 0.361370 0.901537
H1    H     H_    0.716851 0.825590 0.300175 0.096135
H2    H     H_    0.848866 0.089312 0.693044 0.136306
H3    H     H_    0.084251 0.161545 0.509290 0.087078
H4    H     H_    0.030127 0.240529 0.619990 0.134694
H5    H     H_    0.088598 0.151518 0.693267 0.134552
H6    H     H_    0.338411 0.584491 0.509531 0.087864
H7    H     H_    0.259473 0.530797 0.620988 0.129559
H8    H     H_    0.348754 0.589371 0.693438 0.136207
H9    H     H_    0.282775 0.173983 0.300271 0.091902
H10   H     H_    0.325704 0.783194 0.300463 0.096631
H11   H     H_    0.782167 0.673293 0.300782 0.091333
H12   H     H_    0.673143 0.217847 0.300816 0.097186
H13   H     H_    0.825504 0.283367 0.300329 0.096787
H14   H     H_    0.414057 0.339332 0.510012 0.087723
H15   H     H_    0.469458 0.260157 0.618800 0.133427
H16   H     H_    0.410606 0.348205 0.694176 0.136246
H17   H     H_    0.165324 0.921943 0.513638 0.088154
H18   H     H_    0.244891 0.969424 0.630953 0.127002
H19   H     H_    0.152837 0.912156 0.696680 0.134229
H20   H     H_    0.918670 0.836233 0.509809 0.087214
H21   H     H_    0.969768 0.757424 0.624492 0.136641
H22   H     H_    0.911811 0.848125 0.693316 0.135669
H23   H     H_    0.217342 0.326174 0.300514 0.096015
H24   H     H_    0.664465 0.420834 0.513692 0.088255
H25   H     H_    0.744281 0.469448 0.629427 0.126214
H26   H     H_    0.652904 0.411924 0.697024 0.134479
H27   H     H_    0.366986 0.997783 0.870676 0.145983
H28   H     H_    0.866986 0.497789 0.870676 0.146186
H29   H     H_    0.558107 0.002376 0.893916 0.210996
H30   H     H_    0.058107 0.502382 0.893916 0.210971
H31   H     H_    0.366952 0.001105 0.129112 0.134704
H32   H     H_    0.866952 0.501127 0.129112 0.134670
H33   H     H_    0.558101 0.998111 0.106090 0.208116
H34   H     H_    0.173309 0.717709 0.300726 0.097172
H35   H     H_    0.058100 0.498095 0.106090 0.208074
H36   H     H_    0.584829 0.661134 0.510521 0.086867
H37   H     H_    0.530384 0.740336 0.620437 0.134452
H38   H     H_    0.589158 0.651798 0.694599 0.134670
H39   H     H_    0.838367 0.084506 0.509167 0.088157
H40   H     H_    0.759525 0.030774 0.620724 0.129886
N1    N     N_2   0.498660 0.000000 0.846910 -0.343156
N2    N     N_2   0.998660 0.500000 0.846910 -0.343262
N3    N     N_2   0.498630 1.000000 0.153040 -0.340123
N4    N     N_2   0.998630 0.500000 0.153040 -0.340093
O1    O     O_R   0.410990 0.910970 0.617040 -0.477600
O2    O     O_R   0.589050 0.910970 0.617100 -0.474090
O3    O     O_R   0.089050 0.589030 0.617100 -0.475296
O4    O     O_R   0.089050 0.410970 0.617100 -0.474166
O5    O     O_R   0.589010 0.089030 0.382960 -0.528285
O6    O     O_R   0.589010 0.910970 0.382960 -0.529034
O7    O     O_R   0.089010 0.589030 0.382960 -0.528212
O8    O     O_R   0.089010 0.410970 0.382960 -0.528925
O9    O     O_3   0.665596 0.748113 0.614320 -0.508923
O10   O     O_3   0.752232 0.165796 0.613680 -0.507974
O11   O     O_3   0.165360 0.247849 0.613830 -0.509001
O12   O     O_R   0.410990 0.089030 0.617040 -0.477361
O13   O     O_3   0.252185 0.665829 0.613795 -0.507916
O14   O     O_3   0.334252 0.251723 0.614200 -0.508805
O15   O     O_3   0.247472 0.834584 0.614051 -0.509638
O16   O     O_3   0.834562 0.752309 0.613478 -0.509668
O17   O     O_3   0.747623 0.334520 0.614244 -0.509276
O18   O     O_R   0.910990 0.410970 0.617040 -0.477112
O19   O     O_R   0.910990 0.589030 0.617040 -0.478453
O20   O     O_R   0.410950 0.910970 0.382900 -0.528725
O21   O     O_R   0.410950 0.089030 0.382900 -0.528601
O22   O     O_R   0.910950 0.410970 0.382900 -0.528698
O23   O     O_R   0.910950 0.589030 0.382900 -0.528283
O24   O     O_R   0.589050 0.089030 0.617100 -0.474687

loop_
_geom_bond_atom_site_label_1
_geom_bond_atom_site_label_2
_ccdc_geom_bond_type
C6    C32   S    
C27   O14   S    
C30   H24   S    
C24   H2    S    
Cu4   N4    S    
C22   H36   S    
C4    C8    D    
C25   H3    S    
C27   H14   S    
Cu3   O20   S    
C28   H17   S    
C16   C31   S    
C17   C23   S    
Cu1   O1    S    
C11   C36   S    
C19   C21   S    
C3    C7    D    
C10   C15   D    
C12   O21   A    
C27   H15   S    
H35   N4    S    
C23   O18   A    
C5    C36   D    
C18   N1    D    
C35   O4    A    
C2    C13   S    
C17   O17   S    
C34   O7    A    
C24   H40   S    
C6    O10   S    
C5    C33   S    
C21   N4    D    
C20   H31   S    
C1    C15   S    
C19   N2    D    
Cu3   O6    S    
C4    H34   S    
C26   H8    S    
C35   O8    A    
Cu2   N2    S    
Cu1   N1    S    
C36   H1    S    
C2    C6    D    
C7    C35   S    
C25   H4    S    
C14   O14   S    
C13   H13   S    
C1    O1    A    
C29   H21   S    
C21   H32   S    
Cu1   O2    S    
C9    H9    S    
C22   H38   S    
Cu1   O24   S    
C9    C14   D    
C27   H16   S    
C16   O16   S    
C18   H27   S    
C23   O22   A    
Cu1   O12   S    
Cu2   O4    S    
C31   O19   A    
C8    O13   S    
Cu2   O19   S    
C3    C9    S    
C24   O10   S    
C11   C16   D    
C24   H39   S    
C32   O5    A    
C29   H20   S    
C19   H28   S    
C8    C34   S    
Cu4   O8    S    
C1    O20   A    
C30   H26   S    
C2    H12   S    
C26   H7    S    
Cu4   O23   S    
C28   O15   S    
C11   H11   S    
C12   C14   S    
C25   O11   S    
C28   H18   S    
C22   O9    S    
C4    C10   S    
C10   H10   S    
C25   H5    S    
Cu4   O22   S    
C28   H19   S    
Cu3   O21   S    
C29   H22   S    
C29   O16   S    
C31   O23   A    
C22   H37   S    
C15   O15   S    
C5    O9    S    
C3    H23   S    
C7    O11   S    
C13   C17   D    
Cu2   O3    S    
Cu3   N3    S    
Cu1   Cu3   S    
C33   O6    A    
Cu2   Cu4   S    
C30   O17   S    
Cu3   O5    S    
C18   C20   S    
C34   O3    A    
Cu4   O7    S    
H30   N2    S    
C30   H25   S    
H29   N1    S    
C26   H6    S    
C26   O13   S    
Cu2   O18   S    
C32   O24   A    
C20   N3    D    
C12   O12   A    
H33   N3    S    
C33   O2    A    
