data_mof_unit_1522.cif
_audit_creation_date              2013-03-05T15:41:26-0500
_audit_creation_method            fapswitch 2.2
_symmetry_space_group_name_H-M    P1
_symmetry_Int_Tables_number       1
_space_group_crystal_system       triclinic
_cell_length_a                    11.704681
_cell_length_b                    18.438858
_cell_length_c                    10.132113
_cell_angle_alpha                 90.299703
_cell_angle_beta                  110.916529
_cell_angle_gamma                 89.734521
_cell_volume                      2042.58369284

loop_
_atom_site_label
_atom_site_type_symbol
_atom_site_description
_atom_site_fract_x
_atom_site_fract_y
_atom_site_fract_z
_atom_type_partial_charge
O1    O     O_R   0.267710 0.668200 0.902110 -0.389542
O2    O     O_R   0.732290 0.331800 0.097890 -0.416469
O3    O     O_R   0.732290 0.168200 0.097890 -0.410037
O4    O     O_R   0.267710 0.831800 0.902110 -0.410131
O5    O     O_R   0.099480 0.674460 0.038850 -0.464946
O6    O     O_R   0.900520 0.325540 0.961150 -0.454085
O7    O     O_R   0.900520 0.174460 0.961150 -0.447699
O8    O     O_R   0.099480 0.825540 0.038850 -0.448180
C1    C     C_R   0.073145 0.646488 0.141456 0.557262
C2    C     C_R   0.923629 0.354879 0.857814 0.563505
C3    C     C_R   0.924564 0.145479 0.857513 0.555795
C4    C     C_R   0.075630 0.854606 0.142565 0.553527
O9    O     O_R   0.116720 0.669210 0.267660 -0.493167
O10   O     O_R   0.883280 0.330790 0.732340 -0.491319
O11   O     O_R   0.883280 0.169210 0.732340 -0.490650
O12   O     O_R   0.116720 0.830790 0.267660 -0.490393
O13   O     O_R   0.366710 0.675440 0.427590 -0.448711
O14   O     O_R   0.633290 0.324560 0.572410 -0.446167
O15   O     O_R   0.633290 0.175440 0.572410 -0.440991
O16   O     O_R   0.366710 0.824560 0.427590 -0.441620
C5    C     C_R   0.471062 0.647034 0.442836 0.568942
C6    C     C_R   0.529699 0.352666 0.556994 0.573197
C7    C     C_R   0.530409 0.146718 0.557828 0.572940
C8    C     C_R   0.469706 0.852896 0.442864 0.575691
O17   O     O_R   0.534870 0.669390 0.371760 -0.549446
O18   O     O_R   0.465130 0.330610 0.628240 -0.537675
O19   O     O_R   0.465130 0.169390 0.628240 -0.542611
O20   O     O_R   0.534870 0.830610 0.371760 -0.537404
O21   O     O_R   0.453080 0.674480 0.075160 -0.473283
O22   O     O_R   0.546920 0.325520 0.924840 -0.507116
O23   O     O_R   0.546920 0.174480 0.924840 -0.502902
O24   O     O_R   0.453080 0.825520 0.075160 -0.506780
C9    C     C_R   0.351869 0.638067 0.008945 0.579796
C10   C     C_R   0.625387 0.356700 0.032206 0.612367
C11   C     C_R   0.628024 0.142206 0.028154 0.626065
C12   C     C_R   0.374618 0.855952 0.967181 0.622641
Cr1   Cr    Cr6+3 0.187610 0.750000 0.979860 1.226893
Cr2   Cr    Cr6+3 0.812390 0.250000 0.020140 1.218528
Cr3   Cr    Cr6+3 0.245810 0.750000 0.341640 1.181435
Cr4   Cr    Cr6+3 0.754190 0.250000 0.658360 1.185299
Cr5   Cr    Cr6+3 0.485760 0.750000 0.219910 1.058774
Cr6   Cr    Cr6+3 0.514240 0.250000 0.780090 1.053982
O25   O     O_3   0.306390 0.750000 0.180470 -0.355415
O26   O     O_3   0.693610 0.250000 0.819530 -0.339803
C13   C     C_R   0.500139 0.423399 0.483826 0.045285
C14   C     C_R   0.503167 0.575141 0.512487 0.041584
C15   C     C_R   0.498710 0.923692 0.516836 0.041533
C16   C     C_R   0.501768 0.074880 0.487376 0.041346
C17   C     C_R   0.290243 0.422974 0.480526 -0.061270
C18   C     C_R   0.711704 0.576386 0.510252 -0.082314
C19   C     C_R   0.711223 0.918099 0.532859 -0.075381
C20   C     C_R   0.289363 0.080432 0.472346 -0.079996
C21   C     C_R   0.202677 0.454394 0.524893 -0.089700
C22   C     C_R   0.800108 0.545346 0.466717 -0.077522
C23   C     C_R   0.801159 0.945120 0.488592 -0.063387
C24   C     C_R   0.199017 0.053387 0.515786 -0.064440
C25   C     C_R   0.219326 0.524168 0.580437 0.218202
C26   C     C_R   0.787653 0.474487 0.417235 0.210394
C27   C     C_R   0.790433 0.014421 0.432894 0.220443
C28   C     C_R   0.208929 0.983880 0.570232 0.221857
C29   C     C_R   0.322895 0.564649 0.587334 0.223036
C30   C     C_R   0.687197 0.432117 0.416647 0.208922
C31   C     C_R   0.691765 0.059780 0.428827 0.202151
C32   C     C_R   0.306856 0.938085 0.573295 0.199953
C33   C     C_R   0.408784 0.534258 0.532619 -0.038945
C34   C     C_R   0.596668 0.463602 0.464889 -0.051167
C35   C     C_R   0.599377 0.032246 0.476537 -0.050466
C36   C     C_R   0.400906 0.966103 0.528234 -0.054684
C37   C     C_R   0.398567 0.460371 0.494964 -0.015153
C38   C     C_R   0.604474 0.538389 0.498103 -0.047886
C39   C     C_R   0.604287 0.958381 0.513291 -0.042914
C40   C     C_R   0.396477 0.040210 0.492484 -0.047573
H1    H     H_    0.125296 0.422472 0.523817 0.216625
H2    H     H_    0.875846 0.578141 0.465123 0.223107
H3    H     H_    0.875503 0.909897 0.489454 0.227002
H4    H     H_    0.124447 0.088566 0.514421 0.226905
H5    H     H_    0.275578 0.367941 0.440022 0.193050
H6    H     H_    0.725332 0.631773 0.548794 0.204812
H7    H     H_    0.721016 0.863121 0.572846 0.200143
H8    H     H_    0.279323 0.135307 0.431852 0.201276
H9    H     H_    0.472657 0.051920 0.853387 0.160904
H10   H     H_    0.588654 0.923469 0.058701 0.179371
H11   H     H_    0.531408 0.551841 0.162155 0.156380
H12   H     H_    0.404562 0.417010 0.976127 0.181256
C41   C     C_2   0.403617 0.925721 0.924611 -0.046112
C42   C     C_2   0.606957 0.067816 0.055361 -0.045655
C43   C     C_2   0.595456 0.427072 0.075763 -0.060880
C44   C     C_2   0.365001 0.560586 0.990970 -0.055982
C45   C     C_2   0.514359 0.953172 0.981268 -0.128260
C46   C     C_2   0.529712 0.028266 0.953685 -0.161580
C47   C     C_2   0.481073 0.450232 0.040053 -0.111482
C48   C     C_2   0.460967 0.524457 0.075785 -0.131331
H13   H     H_    0.664504 0.042114 0.151686 0.156868
H14   H     H_    0.329841 0.958484 0.855276 0.153122
H15   H     H_    0.296159 0.532489 0.904772 0.166885
H16   H     H_    0.670158 0.462640 0.133436 0.143614
C49   C     C_2   0.034731 0.929386 0.131288 -0.046511
C50   C     C_2   0.966699 0.070938 0.869410 -0.046155
C51   C     C_2   0.956665 0.430872 0.867440 -0.057394
C52   C     C_2   0.021674 0.574115 0.125765 -0.033680
C53   C     C_2   0.988721 0.961284 0.006348 0.168584
C54   C     C_2   0.011837 0.039282 0.994697 0.167731
C55   C     C_2   0.015951 0.465186 0.988464 0.163980
C56   C     C_2   0.984837 0.542671 0.999762 0.169354
H17   H     H_    0.930022 0.038436 0.773795 0.154257
H18   H     H_    0.072713 0.961695 0.226976 0.154200
H19   H     H_    0.050355 0.541144 0.220827 0.163107
H20   H     H_    0.902644 0.461935 0.775179 0.138502
Cl1   Cl    Cl    0.111441 0.557440 0.647465 -0.538068
Cl2   Cl    Cl    0.894543 0.443306 0.344077 -0.588047
Cl3   Cl    Cl    0.894828 0.038809 0.353409 -0.545495
Cl4   Cl    Cl    0.103677 0.959503 0.648548 -0.546178
N1    N     N_R   0.346421 0.632669 0.661802 0.101343
O27   O     O_R   0.456205 0.648658 0.747264 -0.296197
O28   O     O_R   0.260928 0.681703 0.633306 -0.189064
N2    N     N_R   0.673501 0.360206 0.356530 0.096875
O29   O     O_R   0.768201 0.317630 0.386615 -0.200797
O30   O     O_R   0.565443 0.333475 0.288440 -0.317375
N3    N     N_R   0.679861 0.129555 0.362195 0.089465
O31   O     O_R   0.572604 0.155390 0.287354 -0.318225
O32   O     O_R   0.775316 0.170883 0.389293 -0.200962
N4    N     N_R   0.314527 0.866786 0.633713 0.094134
O33   O     O_R   0.216357 0.827532 0.603705 -0.205367
O34   O     O_R   0.420136 0.837155 0.703103 -0.314157
N5    N     N_R   0.087568 0.080547 0.114631 0.051946
O35   O     O_R   0.190544 0.106835 0.114708 -0.318994
O36   O     O_R   0.043358 0.103874 0.207745 -0.279200
N6    N     N_R   0.911291 0.920457 0.886851 0.051577
O37   O     O_R   0.805693 0.897856 0.885285 -0.330371
O38   O     O_R   0.955063 0.894290 0.795410 -0.278004
N7    N     N_R   0.906445 0.583065 0.880335 0.051037
O39   O     O_R   0.806445 0.612263 0.884967 -0.311745
O40   O     O_R   0.945304 0.602024 0.780665 -0.280263
N8    N     N_R   0.117754 0.431325 0.098710 0.069628
O41   O     O_R   0.212668 0.470321 0.168639 -0.392399
O42   O     O_R   0.127995 0.361191 0.111100 -0.283117

loop_
_geom_bond_atom_site_label_1
_geom_bond_atom_site_label_2
_geom_bond_distance
_ccdc_geom_bond_type
C26   C30   1.412941 A    
C51   C55   1.331879 D    
O4    C12   1.269588 A    
C53   C54   1.477748 S    
C24   H4    1.081194 S    
O23   Cr6   1.962711 S    
C43   C47   1.325194 D    
O15   C7    1.276881 A    
C54   N5    1.438336 S    
N6    O37   1.300880 A    
O1    C9    1.300249 A    
C30   N2    1.441754 S    
H11   C48   1.088402 S    
C18   C22   1.382242 A    
C50   H17   1.086908 S    
Cr6   O26   1.992088 S    
C3    C50   1.449083 S    
C28   Cl4   1.748192 S    
C32   C36   1.433101 A    
C55   N8    1.451702 S    
C41   C45   1.318186 D    
C5    C14   1.487396 S    
C23   C27   1.386556 A    
C11   C42   1.440096 S    
C17   C21   1.381654 A    
O5    Cr1   1.955413 S    
O21   C9    1.318892 A    
O20   Cr5   2.063823 S    
C52   C56   1.324204 D    
C53   N6    1.437822 S    
N2    O29   1.300407 A    
O13   Cr3   1.940502 S    
O14   Cr4   1.940501 S    
C1    O9    1.265501 A    
C22   H2    1.080309 S    
C3    O11   1.264809 A    
C25   Cl1   1.741534 S    
C4    O12   1.264624 A    
O3    Cr2   2.080248 S    
N2    O30   1.302986 A    
C56   N7    1.439162 S    
C27   Cl3   1.747968 S    
O24   Cr5   1.962709 S    
O6    Cr2   1.955412 S    
H12   C47   1.087907 S    
C7    O19   1.284785 A    
C19   C23   1.379066 A    
O1    Cr1   2.067936 S    
C23   H3    1.080969 S    
O2    C10   1.273836 A    
C44   H15   1.084947 S    
C17   C37   1.406800 A    
Cr5   O25   1.992088 S    
C19   C39   1.404766 A    
C16   C40   1.408309 A    
C18   H6    1.083420 S    
Cr2   O26   2.011624 S    
N3    O32   1.300410 A    
C31   C35   1.428880 A    
C14   C38   1.414717 A    
O22   C10   1.281576 A    
C13   C37   1.406546 A    
C44   C48   1.324326 D    
C14   C33   1.414391 A    
C42   C46   1.320516 D    
O17   Cr5   2.071566 S    
C47   C48   1.453352 S    
O16   Cr3   1.943335 S    
C30   C34   1.435220 A    
N8    O42   1.300778 A    
C50   C54   1.325627 D    
O13   C5    1.284613 A    
C24   C28   1.385887 A    
C36   C40   1.411455 A    
Cr1   O25   2.011624 S    
O7    C3    1.292721 A    
O5    C1    1.295268 A    
C20   C40   1.404930 A    
C42   H13   1.078573 S    
C31   N3    1.438998 S    
C41   H14   1.081931 S    
O2    Cr2   2.067935 S    
O3    C11   1.266696 A    
O8    C4    1.292912 A    
C43   H16   1.082850 S    
H10   C45   1.088416 S    
C15   C39   1.405961 A    
C4    C49   1.449110 S    
H9    C46   1.089169 S    
C51   H20   1.087164 S    
C1    C52   1.451162 S    
C2    O10   1.266461 A    
N5    O35   1.300929 A    
O23   C11   1.281728 A    
O8    Cr1   1.944116 S    
C49   H18   1.086820 S    
N4    O34   1.303084 A    
N7    O39   1.301992 A    
C45   C46   1.438705 S    
O24   C12   1.280422 A    
C15   C36   1.421452 A    
C55   C56   1.486688 S    
O18   Cr6   2.071565 S    
N1    O27   1.301646 A    
C22   C26   1.386523 A    
C33   C37   1.406923 A    
C5    O17   1.279189 A    
C52   H19   1.087834 S    
C21   C25   1.387931 A    
C7    C16   1.483210 S    
O21   Cr5   1.954322 S    
C26   Cl2   1.759632 S    
C8    C15   1.480952 S    
C9    C44   1.453635 S    
C21   H1    1.079224 S    
C8    O20   1.286846 A    
N7    O40   1.296931 A    
N6    O38   1.298310 A    
O6    C2    1.292877 A    
Cr3   O25   1.999050 S    
N3    O31   1.302500 A    
C25   C29   1.406738 A    
N8    O41   1.301249 A    
C12   C41   1.438964 S    
C27   C31   1.411521 A    
C28   C32   1.411972 A    
O14   C6    1.273945 A    
C18   C38   1.406481 A    
C29   N1    1.436346 S    
O19   Cr6   2.063825 S    
C34   C38   1.413358 A    
C32   N4    1.441965 S    
O7    Cr2   1.944117 S    
C17   H5    1.083763 S    
C35   C39   1.409348 A    
C10   C43   1.449622 S    
C16   C35   1.419746 A    
C2    C51   1.448828 S    
C19   H7    1.083979 S    
O11   Cr4   2.060617 S    
O9    Cr3   2.065065 S    
O15   Cr4   1.943336 S    
O12   Cr3   2.060616 S    
O10   Cr4   2.065064 S    
C29   C33   1.421792 A    
Cr4   O26   1.999051 S    
C6    C13   1.480919 S    
O4    Cr1   2.080246 S    
C6    O18   1.285742 A    
C13   C34   1.423694 A    
N5    O36   1.298120 A    
O22   Cr6   1.954321 S    
N4    O33   1.301004 A    
C20   H8    1.083873 S    
O16   C8    1.273599 A    
C49   C53   1.325359 D    
C20   C24   1.378464 A    
N1    O28   1.300097 A    
