data_mof_unit_2637.cif
_audit_creation_date              2012-12-11T17:10:21-0500
_audit_creation_method            fapswitch 2.2
_symmetry_space_group_name_H-M    P1
_symmetry_Int_Tables_number       1
_space_group_crystal_system       triclinic
_cell_length_a                    14.770319
_cell_length_b                    14.81214
_cell_length_c                    14.881203
_cell_angle_alpha                 109.587281
_cell_angle_beta                  109.86411
_cell_angle_gamma                 108.818519
_cell_volume                      2510.51512593

loop_
_atom_site_label
_atom_site_type_symbol
_atom_type_description
_atom_site_fract_x
_atom_site_fract_y
_atom_site_fract_z
_atom_type_partial_charge
C1    C     C_R   0.185418 0.278980 0.253663 -0.135244
C2    C     C_R   0.404809 0.496544 0.195369 -0.136755
C3    C     C_R   0.559068 0.816221 0.592364 -0.138133
C4    C     C_R   0.525589 0.432203 0.746505 -0.145113
C5    C     C_R   0.722844 0.477326 0.408545 -0.113698
C6    C     C_R   0.538714 0.827491 0.499658 0.116030
C7    C     C_R   0.826557 0.556476 0.500980 0.046963
C8    C     C_R   0.434520 0.433538 0.131780 0.069298
C9    C     C_R   0.801832 0.803362 0.868253 0.074682
C10   C     C_R   0.093053 0.589694 0.177316 -0.164668
C11   C     C_R   0.096009 0.618841 0.278337 -0.142974
C12   C     C_R   0.451409 0.449757 0.776701 0.071306
C13   C     C_R   0.017365 0.544264 0.287819 0.117788
C14   C     C_R   0.934607 0.441139 0.194258 -0.221777
C15   C     C_R   0.932124 0.412390 0.093527 -0.064963
C16   C     C_R   0.511657 0.203861 0.409239 -0.146626
C17   C     C_R   0.011315 0.486507 0.085058 -0.058942
C18   C     C_R   0.927478 0.569618 0.399060 -0.244272
C19   C     C_R   0.929820 0.607513 0.499917 0.050536
C20   C     C_R   0.033504 0.678400 0.597917 0.037629
C21   C     C_R   0.125906 0.674480 0.595015 -0.227645
C22   C     C_R   0.116812 0.610904 0.494555 0.054118
C23   C     C_R   0.580043 0.204948 0.500510 0.119503
C24   C     C_R   0.021749 0.574688 0.395267 0.039174
C25   C     C_R   0.994202 0.824164 0.691216 -0.152802
C26   C     C_R   0.010100 0.905674 0.786010 -0.092524
C27   C     C_R   0.080187 0.926259 0.889920 -0.082199
C28   C     C_R   0.290897 0.598817 0.589246 -0.126276
C29   C     C_R   0.133087 0.864129 0.899245 -0.125837
C30   C     C_R   0.117413 0.782322 0.804611 -0.169773
C31   C     C_R   0.048015 0.761776 0.699469 0.107336
C32   C     C_R   0.451377 0.345605 0.877252 0.146092
C33   C     C_R   0.406658 0.401146 0.832968 0.028136
C34   C     C_R   0.197843 0.571785 0.496521 0.069487
C35   C     C_R   0.333243 0.426584 0.862218 -0.181501
C36   C     C_R   0.329702 0.423734 0.954078 -0.189745
C37   C     C_R   0.398758 0.394337 0.015305 0.026526
C38   C     C_R   0.446898 0.341766 0.966961 0.169174
C39   C     C_3   0.559328 0.352595 0.016217 -0.534008
C40   C     C_R   0.601124 0.293577 0.591433 -0.106204
C41   C     C_3   0.564862 0.357688 0.918767 -0.481377
C42   C     C_R   0.535448 0.928682 0.398414 0.063940
C43   C     C_R   0.580033 0.929897 0.498128 -0.021218
C44   C     C_R   0.661132 0.030658 0.594995 -0.359659
C45   C     C_R   0.465578 0.723525 0.407333 -0.131188
C46   C     C_R   0.686624 0.129661 0.593813 0.547707
C47   C     C_R   0.622270 0.127203 0.496621 -0.101640
C48   C     C_R   0.557457 0.026759 0.397622 0.054550
C49   C     C_3   0.582138 0.991533 0.305866 -0.514176
C50   C     C_3   0.552404 0.882361 0.302887 -0.175953
C51   C     C_R   0.967491 0.074886 0.122256 0.162249
C52   C     C_R   0.199637 0.504917 0.407094 -0.153037
C53   C     C_R   0.067220 0.074263 0.168130 0.031596
C54   C     C_R   0.062764 0.971618 0.140416 -0.215473
C55   C     C_R   0.967890 0.876024 0.048167 -0.195929
C56   C     C_R   0.815379 0.566916 0.592628 -0.076572
C57   C     C_R   0.878119 0.883974 0.985100 0.030790
C58   C     C_R   0.873999 0.980676 0.032086 0.153300
C59   C     C_3   0.837148 0.043327 0.981384 -0.508112
C60   C     C_3   0.939449 0.146347 0.079432 -0.511690
C61   C     C_R   0.435463 0.527619 0.751122 -0.123714
C62   C     C_R   0.276280 0.184453 0.249207 -0.132851
C63   C     C_R   0.172657 0.174865 0.223875 0.064885
C64   C     C_R   0.643262 0.851412 0.325637 0.200318
C65   C     C_R   0.751652 0.925557 0.415893 -0.113745
C66   C     C_R   0.830735 0.891528 0.437989 -0.126084
C67   C     C_R   0.494961 0.402748 0.195862 -0.166910
C68   C     C_R   0.803081 0.783790 0.370178 -0.111766
C69   C     C_R   0.696511 0.710108 0.279570 -0.074346
C70   C     C_R   0.617153 0.743718 0.257136 -0.171997
C71   C     C_R   0.706956 0.799556 0.803611 -0.159676
C72   C     C_R   0.801411 0.709994 0.805027 -0.117905
H1    H     H_    0.123797 0.303184 0.250802 0.111967
H2    H     H_    0.154327 0.647011 0.170641 0.110604
H3    H     H_    0.160016 0.698850 0.349330 0.116048
H4    H     H_    0.552902 0.373549 0.749000 0.112852
H5    H     H_    0.873372 0.382416 0.199825 0.121140
H6    H     H_    0.869067 0.332390 0.022199 0.166511
H7    H     H_    0.851581 0.532048 0.322483 0.121266
H8    H     H_    0.203885 0.719575 0.671203 0.116709
H9    H     H_    0.940779 0.810476 0.611390 0.115275
H10   H     H_    0.968610 0.953400 0.778935 0.123323
H11   H     H_    0.093451 0.990431 0.963155 0.124354
H12   H     H_    0.878547 0.617415 0.678310 0.110203
H13   H     H_    0.186614 0.879680 0.979928 0.104781
H14   H     H_    0.158761 0.734753 0.813488 0.108862
H15   H     H_    0.290052 0.462071 0.824439 0.132866
H16   H     H_    0.490294 0.154428 0.325124 0.102045
H17   H     H_    0.284003 0.457234 0.983798 0.130895
H18   H     H_    0.621590 0.430901 0.095273 0.193662
H19   H     H_    0.556045 0.276929 0.017277 0.193503
H20   H     H_    0.630156 0.439310 0.943315 0.204563
H21   H     H_    0.565662 0.285371 0.864340 0.205467
H22   H     H_    0.705526 0.032809 0.671086 0.181896
H23   H     H_    0.514073 0.337811 0.167689 0.106114
H24   H     H_    0.522174 0.983973 0.230331 0.174966
H25   H     H_    0.670181 0.042450 0.332138 0.199253
H26   H     H_    0.472066 0.814835 0.227889 0.115428
H27   H     H_    0.324084 0.660246 0.673346 0.083388
H28   H     H_    0.136005 0.966344 0.179262 0.129152
H29   H     H_    0.971414 0.800497 0.019233 0.131752
H30   H     H_    0.838233 0.025700 0.903068 0.207060
H31   H     H_    0.759681 0.039454 0.978413 0.190225
H32   H     H_    0.997954 0.186546 0.055896 0.209480
H33   H     H_    0.920702 0.201926 0.132431 0.192555
H34   H     H_    0.669838 0.846711 0.831279 0.103749
H35   H     H_    0.659342 0.326520 0.676420 0.179215
H36   H     H_    0.148602 0.476087 0.321492 0.121666
H37   H     H_    0.382047 0.560319 0.762204 0.094351
H38   H     H_    0.297856 0.120018 0.238264 0.092579
H39   H     H_    0.430947 0.701995 0.321748 0.093262
H40   H     H_    0.901818 0.418417 0.750955 0.359117
H41   H     H_    0.774760 0.009104 0.470145 0.139870
H42   H     H_    0.913402 0.948610 0.508154 0.127295
H43   H     H_    0.864243 0.757449 0.387761 0.113969
H44   H     H_    0.675176 0.626715 0.226947 0.109355
H45   H     H_    0.854333 0.678090 0.834179 0.094259
H46   H     H_    0.534796 0.685134 0.186889 0.107723
H47   H     H_    0.344046 0.520880 0.166909 0.085698
H48   H     H_    0.610560 0.880301 0.677890 0.100621
H49   H     H_    0.700069 0.446860 0.323068 0.090988
H50   H     H_    0.009347 0.463973 0.007019 0.150965
N1    N     N_R   0.291070 0.347930 0.293870 -0.039776
N2    N     N_R   0.497240 0.291100 0.443210 -0.044298
N3    N     N_R   0.347890 0.554050 0.556810 -0.039365
N4    N     N_R   0.554050 0.347900 0.556830 -0.053760
N5    N     N_R   0.291070 0.497250 0.443190 -0.040880
N6    N     N_R   0.497240 0.554030 0.706140 -0.041231
N7    N     N_R   0.347890 0.291110 0.293870 -0.038972
N8    N     N_R   0.445950 0.652100 0.443170 -0.042142
N9    N     N_R   0.708930 0.502750 0.556810 -0.038199
N10   N     N_R   0.502760 0.445970 0.293860 -0.038431
N11   N     N_R   0.652110 0.708890 0.706130 -0.039299
N12   N     N_R   0.708930 0.652070 0.706130 -0.044546
N13   N     N_R   0.445950 0.502780 0.293850 -0.034623
N14   N     N_R   0.502760 0.708900 0.556790 -0.042926
N15   N     N_R   0.652110 0.445950 0.443190 -0.040079
N16   N     N_R   0.554050 0.497220 0.706150 -0.041731
Ni1   Ni    Ni4+2 0.369690 0.500010 0.369700 0.215679
Ni2   Ni    Ni4+2 0.630310 0.499990 0.630300 0.232460
Ni3   Ni    Ni4+2 0.500000 0.369720 0.369720 0.212567
Ni4   Ni    Ni4+2 0.500000 0.630280 0.630280 0.207189
O1    O     O_2   0.782174 0.287314 0.802680 -0.373092
O2    O     O_2   0.898815 0.226279 0.746127 -0.300106
O3    O     O_3   0.843415 0.351247 0.679282 -0.556006
S1    S     S_3+6 0.805763 0.250779 0.710123 -0.097698

loop_
_geom_bond_atom_site_label_1
_geom_bond_atom_site_label_2
_ccdc_geom_bond_type
C36   H17   S    
C25   C31   A    
O1    S1    D    
C66   C68   A    
C69   H44   S    
C6    C45   A    
C5    H49   S    
C27   C29   A    
C53   C63   S    
C67   N10   A    
C9    C72   A    
C3    C6    A    
C61   H37   S    
O3    S1    S    
C39   C41   S    
C46   S1    S    
C53   C54   A    
N13   Ni1   S    
N4    Ni2   S    
C26   C27   A    
C29   C30   A    
C18   C24   A    
C21   C22   A    
C36   C37   A    
C37   C38   A    
C18   C19   A    
N12   Ni2   S    
C30   C31   A    
C15   H6    S    
N7    Ni3   S    
C10   C17   A    
C23   C40   A    
N1    Ni1   S    
C50   C64   S    
H40   O3    S    
C3    N14   A    
C14   H5    S    
N6    N16   A    
N14   Ni4   S    
N9    Ni2   S    
C46   C47   A    
C35   H15   S    
C41   H21   S    
C35   C36   A    
C68   C69   A    
C72   H45   S    
C32   C41   S    
C10   H2    S    
C32   C38   A    
C4    C12   A    
C39   H18   S    
C29   H13   S    
C28   C34   A    
C59   C60   S    
C26   H10   S    
C13   C14   A    
N1    N7    A    
C25   H9    S    
C62   N7    A    
C54   H28   S    
N5    Ni1   S    
C7    C56   A    
N8    Ni1   S    
C1    C63   A    
C39   H19   S    
C52   N5    A    
C44   C46   A    
C56   H12   S    
C22   C34   S    
N8    N14   A    
C50   H26   S    
C23   C47   S    
O2    S1    D    
C3    H48   S    
C5    C7    A    
C18   H7    S    
C25   C26   A    
C4    N16   A    
C13   C24   S    
C51   C53   A    
C43   C44   A    
C1    N1    A    
C62   C63   A    
N9    N15   A    
C72   N12   A    
C47   C48   A    
C62   H38   S    
N3    Ni4   S    
C40   N4    A    
N11   Ni4   S    
C51   C58   A    
C42   C48   A    
N16   Ni2   S    
C42   C50   S    
C40   H35   S    
C28   H27   S    
C48   C49   S    
C67   H23   S    
C49   C50   S    
C16   C23   A    
C64   C70   A    
C6    C43   S    
C55   C57   A    
N11   N12   A    
C22   C24   A    
N2    Ni3   S    
C30   H14   S    
C8    C37   S    
C34   C52   A    
C28   N3    A    
N2    N4    A    
N10   Ni3   S    
C15   C17   A    
N15   Ni3   S    
C54   C55   A    
C66   H42   S    
C59   H30   S    
C65   H41   S    
C2    C8    A    
C9    C71   A    
C71   N11   A    
C2    H47   S    
C45   H39   S    
C5    N15   A    
C55   H29   S    
C7    C19   S    
C2    N13   A    
C1    H1    S    
C64   C65   A    
C19   C20   A    
C27   H11   S    
C58   C59   S    
C59   H31   S    
C11   H3    S    
C32   C33   A    
C12   C61   A    
C11   C13   A    
C57   C58   A    
C38   C39   S    
C70   H46   S    
N10   N13   A    
C16   H16   S    
C21   H8    S    
C33   C35   A    
C61   N6    A    
C9    C57   S    
C49   H24   S    
C16   N2    A    
C69   C70   A    
C4    H4    S    
C56   N9    A    
C44   H22   S    
C10   C11   A    
C68   H43   S    
C49   H25   S    
C17   H50   S    
C45   N8    A    
C41   H20   S    
C20   C21   A    
C52   H36   S    
C8    C67   A    
C65   C66   A    
C42   C43   A    
C71   H34   S    
N3    N5    A    
C14   C15   A    
C51   C60   S    
C12   C33   S    
C60   H32   S    
N6    Ni4   S    
C60   H33   S    
C20   C31   S    
