data_mof_unit_934.cif
_audit_creation_date              2012-12-11T14:30:49-0500
_audit_creation_method            fapswitch 2.2
_symmetry_space_group_name_H-M    P1
_symmetry_Int_Tables_number       1
_space_group_crystal_system       triclinic
_cell_length_a                    17.367615
_cell_length_b                    24.429283
_cell_length_c                    14.975983
_cell_angle_alpha                 90.017433
_cell_angle_beta                  125.621015
_cell_angle_gamma                 89.70364
_cell_volume                      5164.97595964

loop_
_atom_site_label
_atom_site_type_symbol
_atom_type_description
_atom_site_fract_x
_atom_site_fract_y
_atom_site_fract_z
_atom_type_partial_charge
C1    C     C_R   0.839577 0.650303 0.908621 0.237752
C2    C     C_R   0.928895 0.499916 0.630560 -0.007054
C3    C     C_3   0.262690 0.407613 0.861116 -0.895891
C4    C     C_3   0.441632 0.724074 0.103528 -0.350103
C5    C     C_3   0.540717 0.719878 0.129906 -0.903897
C6    C     C_3   0.759384 0.845787 0.892176 -0.357839
C7    C     C_3   0.761775 0.904737 0.859870 -0.894895
C8    C     C_R   0.451608 0.999397 0.275364 -0.026114
C9    C     C_R   0.452510 0.000221 0.641938 -0.010096
C10   C     C_R   0.674744 0.499719 0.720417 0.026535
C11   C     C_R   0.305882 0.498363 0.362422 0.028878
C12   C     C_R   0.174734 0.999725 0.720351 0.026530
C13   C     C_R   0.805764 0.998295 0.362563 0.029111
C14   C     C_3   0.495917 0.465647 0.630933 -0.152168
C15   C     C_3   0.462440 0.446519 0.515024 -0.166691
C16   C     C_3   0.995941 0.965672 0.631121 -0.151363
C17   C     C_R   0.174942 0.641719 0.091001 0.246722
C18   C     C_3   0.962356 0.946463 0.515218 -0.166831
C19   C     C_3   0.429268 0.516502 0.579999 -0.146855
C20   C     C_3   0.541078 0.479959 0.523225 -0.136723
C21   C     C_3   0.929279 0.016519 0.580131 -0.147438
C22   C     C_3   0.040944 0.979865 0.523234 -0.137145
C23   C     C_3   0.398367 0.497233 0.466354 0.182173
C24   C     C_3   0.573346 0.499153 0.637562 0.182149
C25   C     C_3   0.898270 0.997168 0.466490 0.182051
C26   C     C_3   0.073317 0.999141 0.637560 0.182280
C27   C     C_3   0.476499 0.530540 0.474183 -0.144162
C28   C     C_R   0.341328 0.150972 0.907916 0.233980
C29   C     C_3   0.509105 0.549857 0.589015 -0.165153
C30   C     C_3   0.976357 0.030439 0.474140 -0.143635
C31   C     C_3   0.009065 0.049836 0.588959 -0.165304
C32   C     C_2   0.243884 0.693336 0.916275 -0.128469
C33   C     C_2   0.880449 0.767746 0.081803 -0.122104
C34   C     C_2   0.744190 0.193386 0.917154 -0.128384
C35   C     C_2   0.382725 0.269709 0.080601 -0.119730
C36   C     C_2   0.226498 0.698358 0.992067 -0.213860
C37   C     C_2   0.825539 0.730467 0.004874 -0.214935
C38   C     C_2   0.726062 0.198734 0.992250 -0.215308
C39   C     C_R   0.675023 0.141720 0.091158 0.247081
C40   C     C_2   0.329178 0.232643 0.002484 -0.214364
C41   C     C_2   0.799025 0.235756 0.909673 -0.209902
C42   C     C_2   0.337438 0.318785 0.087321 -0.204425
C43   C     C_2   0.298623 0.735779 0.908720 -0.210119
C44   C     C_2   0.836683 0.817509 0.088414 -0.205311
C45   C     C_R   0.948013 0.349600 0.092713 -0.144480
C46   C     C_R   0.095892 0.378636 0.906283 -0.137429
C47   C     C_R   0.448779 0.849198 0.092179 -0.150580
C48   C     C_R   0.595700 0.877667 0.906763 -0.135057
C49   C     C_2   0.875841 0.257926 0.000686 0.208401
C50   C     C_R   0.889474 0.317317 0.001435 0.079436
C51   C     C_2   0.265888 0.345233 0.996965 0.206768
C52   C     C_2   0.375984 0.757674 0.999588 0.207706
C53   C     C_2   0.765319 0.843777 0.997715 0.207755
C54   C     C_2   0.903245 0.457081 0.379814 -0.111399
C55   C     C_2   0.888378 0.452830 0.465870 -0.113011
C56   C     C_2   0.394168 0.952883 0.369597 -0.104854
C57   C     C_2   0.391097 0.957221 0.464882 -0.110101
C58   C     C_2   0.957367 0.497563 0.384493 -0.183312
C59   C     C_2   0.885278 0.498504 0.513006 -0.177694
C60   C     C_2   0.397605 0.998173 0.321861 -0.175855
C61   C     C_R   0.186795 0.366863 0.997755 0.080042
C62   C     C_2   0.433200 0.999619 0.533891 -0.182256
C63   C     C_R   0.005386 0.545786 0.274078 0.516265
C64   C     C_R   0.948887 0.545767 0.695371 0.489954
C65   C     C_R   0.484651 0.045664 0.253198 0.516087
C66   C     C_R   0.461023 0.046114 0.701507 0.491652
C67   C     C_R   0.732141 0.454541 0.749047 -0.132006
C68   C     C_R   0.257063 0.454133 0.299869 -0.133118
C69   C     C_R   0.232134 0.954546 0.749042 -0.133022
C70   C     C_R   0.757018 0.954099 0.299883 -0.132335
C71   C     C_R   0.001540 0.454309 0.268370 -0.197443
C72   C     C_R   0.389974 0.817062 0.000792 0.082060
C73   C     C_R   0.946358 0.455241 0.695575 -0.218786
C74   C     C_R   0.482562 0.954503 0.248028 -0.192267
C75   C     C_R   0.458183 0.955287 0.700785 -0.216843
C76   C     C_R   0.729276 0.545799 0.747573 -0.143679
C77   C     C_R   0.257142 0.544599 0.305754 -0.157990
C78   C     C_R   0.229278 0.045802 0.747480 -0.141964
C79   C     C_R   0.757014 0.044529 0.305940 -0.160177
C80   C     C_R   0.856473 0.349889 0.910468 -0.155394
C81   C     C_R   0.188366 0.378531 0.089520 -0.150338
C82   C     C_R   0.356575 0.849879 0.910143 -0.154045
C83   C     C_R   0.686512 0.865972 0.998315 0.079047
C84   C     C_R   0.688179 0.878164 0.089858 -0.150850
C85   C     C_R   0.931568 0.648083 0.091199 -0.122020
C86   C     C_R   0.087196 0.635873 0.907867 -0.181162
C87   C     C_R   0.434586 0.149792 0.090128 -0.090642
C88   C     C_R   0.587025 0.136265 0.908158 -0.183095
C89   C     C_R   0.861011 0.677003 0.002012 0.026899
C90   C     C_R   0.166224 0.659821 0.997501 0.042060
C91   C     C_R   0.364664 0.178896 0.000765 0.020070
C92   C     C_R   0.666036 0.160088 0.997762 0.041550
C93   C     C_3   0.792663 0.680315 0.799663 -0.505467
C94   C     C_R   0.984942 0.499417 0.310499 -0.024812
C95   C     C_3   0.832394 0.666157 0.735264 -0.748141
C96   C     C_3   0.235728 0.667876 0.202592 -0.416514
C97   C     C_3   0.178358 0.682556 0.247002 -0.889667
C98   C     C_3   0.294147 0.179936 0.797785 -0.497955
C99   C     C_3   0.334449 0.165203 0.734130 -0.751252
C100  C     C_3   0.737208 0.167212 0.203252 -0.407870
C101  C     C_3   0.681008 0.182628 0.248760 -0.904973
C102  C     C_3   0.941199 0.224596 0.105127 -0.350525
C103  C     C_3   0.040628 0.220475 0.132483 -0.903791
C104  C     C_3   0.260252 0.348309 0.891694 -0.358005
H1    H     H_    0.506671 0.439325 0.697779 0.115798
H2    H     H_    0.953674 0.758644 0.147955 0.133808
H3    H     H_    0.422164 0.100175 0.587954 0.309609
H4    H     H_    0.710649 0.161853 0.854567 0.143642
H5    H     H_    0.455458 0.260514 0.148085 0.132025
H6    H     H_    0.258124 0.731340 0.051419 0.135280
H7    H     H_    0.751299 0.739002 0.941303 0.137733
H8    H     H_    0.756879 0.232024 0.050954 0.135653
H9    H     H_    0.255200 0.241152 0.937842 0.137287
H10   H     H_    0.760134 0.257404 0.831841 0.118920
H11   H     H_    0.348662 0.323633 0.165993 0.116815
H12   H     H_    0.259442 0.757664 0.831147 0.118709
H13   H     H_    0.442124 0.404112 0.483256 0.108271
H14   H     H_    0.848372 0.823007 0.167203 0.116954
H15   H     H_    0.879922 0.423805 0.321453 0.126853
H16   H     H_    0.900349 0.412875 0.503481 0.121390
H17   H     H_    0.411631 0.912943 0.354241 0.119450
H18   H     H_    0.367071 0.922026 0.486342 0.120532
H19   H     H_    0.984999 0.529229 0.446579 0.127516
H20   H     H_    0.867431 0.537004 0.468875 0.125038
H21   H     H_    0.372853 0.036727 0.332787 0.123180
H22   H     H_    0.461757 0.033494 0.515120 0.124729
H23   H     H_    0.995309 0.335473 0.176635 0.101561
H24   H     H_    0.006765 0.939402 0.698063 0.115953
H25   H     H_    0.069843 0.374595 0.821289 0.110013
H26   H     H_    0.496610 0.834793 0.175842 0.102461
H27   H     H_    0.569710 0.872291 0.822186 0.108141
H28   H     H_    0.711048 0.412101 0.733116 0.100828
H29   H     H_    0.269555 0.411872 0.326485 0.088216
H30   H     H_    0.211029 0.912108 0.733143 0.100844
H31   H     H_    0.769478 0.911834 0.326465 0.087789
H32   H     H_    0.998246 0.411611 0.284715 0.123940
H33   H     H_    0.924647 0.413624 0.668076 0.119352
H34   H     H_    0.470118 0.911902 0.254008 0.123365
H35   H     H_    0.942018 0.904041 0.483558 0.108042
H36   H     H_    0.441948 0.913441 0.672493 0.118362
H37   H     H_    0.703482 0.586971 0.729065 0.116033
H38   H     H_    0.268439 0.584066 0.343051 0.129950
H39   H     H_    0.203514 0.086949 0.728845 0.116164
H40   H     H_    0.768175 0.083915 0.343470 0.129484
H41   H     H_    0.821640 0.336069 0.826834 0.087970
H42   H     H_    0.248152 0.375075 0.174108 0.095033
H43   H     H_    0.321553 0.836248 0.826363 0.087347
H44   H     H_    0.747800 0.874666 0.174512 0.094942
H45   H     H_    0.974981 0.663114 0.174111 0.180999
H46   H     H_    0.467149 0.557036 0.408215 0.112095
H47   H     H_    0.057314 0.644049 0.822874 0.180229
H48   H     H_    0.479993 0.165597 0.172381 0.174206
H49   H     H_    0.557144 0.145076 0.823505 0.184105
H50   H     H_    0.380532 0.531292 0.600132 0.116767
H51   H     H_    0.588460 0.465106 0.501063 0.117138
H52   H     H_    0.880614 0.031352 0.600337 0.116288
H53   H     H_    0.088258 0.964967 0.501009 0.115828
H54   H     H_    0.908519 0.676475 0.784129 0.265129
H55   H     H_    0.821707 0.622508 0.712794 0.280992
H56   H     H_    0.795026 0.690611 0.658242 0.234935
H57   H     H_    0.529282 0.592271 0.620794 0.105767
H58   H     H_    0.714913 0.674407 0.748892 0.179604
H59   H     H_    0.803078 0.725089 0.814883 0.204874
H60   H     H_    0.122544 0.713043 0.192142 0.251589
H61   H     H_    0.144211 0.645848 0.252792 0.272899
H62   H     H_    0.225794 0.700602 0.330167 0.247918
H63   H     H_    0.297188 0.641316 0.259181 0.178199
H64   H     H_    0.266834 0.706424 0.198514 0.183860
H65   H     H_    0.409689 0.177336 0.781686 0.263057
H66   H     H_    0.326992 0.121119 0.715328 0.279648
H67   H     H_    0.295286 0.188036 0.655116 0.234815
H68   H     H_    0.966944 0.056885 0.408081 0.111920
H69   H     H_    0.216491 0.173773 0.747054 0.178275
H70   H     H_    0.303641 0.224859 0.811207 0.203236
H71   H     H_    0.626226 0.213795 0.194891 0.252560
H72   H     H_    0.645781 0.146340 0.254064 0.267667
H73   H     H_    0.729476 0.200108 0.332286 0.249164
H74   H     H_    0.797918 0.140006 0.258904 0.177786
H75   H     H_    0.769537 0.205349 0.199717 0.182822
H76   H     H_    0.037809 0.200277 0.064163 0.263777
H77   H     H_    0.072896 0.261505 0.146620 0.256571
H78   H     H_    0.086561 0.195602 0.208194 0.249571
H79   H     H_    0.029261 0.092265 0.620627 0.105637
H80   H     H_    0.944405 0.243537 0.174652 0.165723
H81   H     H_    0.915552 0.182054 0.096650 0.210114
H82   H     H_    0.200569 0.431090 0.844114 0.260770
H83   H     H_    0.328598 0.427729 0.928915 0.262038
H84   H     H_    0.261354 0.408490 0.786085 0.248702
H85   H     H_    0.320906 0.326813 0.900609 0.207841
H86   H     H_    0.194377 0.328396 0.823434 0.167131
H87   H     H_    0.537249 0.699845 0.061046 0.263608
H88   H     H_    0.573130 0.760870 0.144161 0.256751
H89   H     H_    0.586888 0.694823 0.205289 0.249665
H90   H     H_    0.209633 0.662122 0.853092 0.142361
H91   H     H_    0.445494 0.742846 0.173591 0.165817
H92   H     H_    0.415807 0.681560 0.094829 0.210140
H93   H     H_    0.699830 0.928528 0.842568 0.261511
H94   H     H_    0.827829 0.925048 0.926891 0.261821
H95   H     H_    0.760077 0.904816 0.784597 0.248761
H96   H     H_    0.819943 0.823931 0.901512 0.207637
H97   H     H_    0.693451 0.825629 0.824593 0.167185
H98   H     H_    0.992321 0.600300 0.357772 0.305202
H99   H     H_    0.917529 0.601980 0.588068 0.304431
H100  H     H_    0.461164 0.098975 0.330388 0.304106
N1    N     N_R   0.892320 0.603520 0.941090 -0.056815
N2    N     N_R   0.973240 0.529450 0.794410 -0.070041
N3    N     N_R   0.526760 0.029450 0.205590 -0.074878
N4    N     N_R   0.473240 0.029450 0.794410 -0.070954
N5    N     N_R   0.819350 0.473090 0.793940 -0.039119
N6    N     N_R   0.180650 0.473090 0.206060 -0.037185
N7    N     N_R   0.319350 0.973090 0.793940 -0.039226
N8    N     N_R   0.680650 0.973090 0.206060 -0.036822
N9    N     N_R   0.027860 0.473090 0.206590 -0.067538
N10   N     N_R   0.972140 0.473090 0.793410 -0.067568
N11   N     N_R   0.527860 0.973090 0.206590 -0.068527
N12   N     N_R   0.107680 0.603520 0.058910 -0.058511
N13   N     N_R   0.472140 0.973090 0.793410 -0.066339
N14   N     N_R   0.818250 0.529450 0.792940 -0.043145
N15   N     N_R   0.181750 0.529450 0.207060 -0.039388
N16   N     N_R   0.318250 0.029450 0.792940 -0.043403
N17   N     N_R   0.681750 0.029450 0.207060 -0.038966
N18   N     N_R   0.896320 0.399020 0.944720 -0.034891
N19   N     N_R   0.103680 0.399020 0.055280 -0.036629
N20   N     N_R   0.396320 0.899020 0.944720 -0.034326
N21   N     N_R   0.603680 0.899020 0.055280 -0.036422
N22   N     N_R   0.949790 0.603520 0.054810 -0.063198
N23   N     N_R   0.392320 0.103520 0.941090 -0.058710
N24   N     N_R   0.050210 0.603520 0.945190 -0.053685
N25   N     N_R   0.449790 0.103520 0.054810 -0.065700
N26   N     N_R   0.550210 0.103520 0.945190 -0.054131
N27   N     N_R   0.607680 0.103520 0.058910 -0.059336
N28   N     N_R   0.953790 0.399020 0.058440 -0.036082
N29   N     N_R   0.046210 0.399020 0.941560 -0.036782
N30   N     N_R   0.453790 0.899020 0.058440 -0.035995
N31   N     N_R   0.546210 0.899020 0.941560 -0.036662
N32   N     N_R   0.026760 0.529450 0.205590 -0.074251
Ni1   Ni    Ni4+2 0.934100 0.565890 0.869590 0.230672
Ni2   Ni    Ni4+2 0.065900 0.565890 0.130410 0.226880
Ni3   Ni    Ni4+2 0.434100 0.065890 0.869590 0.228856
Ni4   Ni    Ni4+2 0.565900 0.065890 0.130410 0.223840
Ni5   Ni    Ni4+2 0.068420 0.436630 0.132700 0.200605
Ni6   Ni    Ni4+2 0.931580 0.436630 0.867300 0.199130
Ni7   Ni    Ni4+2 0.568420 0.936630 0.132700 0.200422
Ni8   Ni    Ni4+2 0.431580 0.936630 0.867300 0.199592
O1    O     O_3   0.014043 0.598700 0.309726 -0.809624
O2    O     O_3   0.928824 0.599337 0.660634 -0.819099
O3    O     O_3   0.487606 0.098333 0.287185 -0.807257
O4    O     O_3   0.437229 0.098968 0.662602 -0.817567

loop_
_geom_bond_atom_site_label_1
_geom_bond_atom_site_label_2
_ccdc_geom_bond_type
C3    C104  S    
C4    H91   S    
C88   N26   A    
C12   C69   A    
C13   C79   A    
C69   H30   S    
N22   Ni2   S    
C20   H51   S    
C55   C59   D    
C74   N11   A    
C27   C29   S    
C103  H78   S    
C70   N8    A    
C67   H28   S    
C51   C61   S    
C72   C82   A    
C41   H10   S    
C68   N6    A    
C3    H84   S    
C46   H25   S    
C82   H43   S    
N18   Ni6   S    
C57   C62   D    
C99   H66   S    
C66   O4    S    
C10   C67   A    
N7    N16   A    
C21   C31   S    
C63   C94   A    
C58   H19   S    
C16   C21   S    
C4    C52   S    
C95   H55   S    
N5    N14   A    
C32   C36   D    
N15   Ni2   S    
C68   H29   S    
C45   H23   S    
N8    Ni7   S    
C87   C91   A    
C75   H36   S    
C30   C31   S    
C98   H70   S    
C43   C52   D    
C82   N20   A    
C13   C70   A    
C93   H59   S    
C36   C90   S    
C97   H62   S    
C95   H54   S    
C38   C92   S    
N4    N13   A    
C86   N24   A    
C56   C57   S    
C28   N23   A    
C103  H76   S    
C14   C24   S    
C49   C50   S    
C35   C42   S    
N20   N30   A    
C24   C29   S    
C77   H38   S    
N19   N29   A    
C80   N18   A    
C11   C77   A    
C78   N16   A    
C63   N32   A    
C9    C66   A    
C10   C76   A    
C44   C53   D    
C21   H52   S    
C14   H1    S    
C20   C24   S    
C76   N14   A    
C12   C78   A    
C96   H64   S    
C48   H27   S    
C69   N7    A    
C45   N28   A    
C23   C27   S    
C28   C91   A    
C17   N12   A    
C1    N1    A    
C85   N22   A    
C35   H5    S    
C42   C51   D    
N8    N17   A    
C47   N30   A    
C76   H37   S    
N2    N10   A    
C15   C23   S    
C65   O3    S    
C100  H74   S    
C8    C65   A    
C93   C95   S    
C18   C22   S    
C54   H15   S    
C34   H4    S    
C13   C25   S    
N26   Ni3   S    
C18   H35   S    
C34   C41   S    
C81   N19   A    
C84   N21   A    
N7    Ni8   S    
N4    Ni3   S    
C41   C49   D    
C2    C64   A    
C79   N17   A    
C55   H16   S    
C84   H44   S    
C16   C26   S    
C15   C20   S    
C63   O1    S    
C102  H81   S    
C71   N9    A    
C17   C90   A    
N17   Ni4   S    
C9    C62   S    
N21   N31   A    
C46   N29   A    
C88   C92   A    
H3    O4    S    
C5    H87   S    
C6    H97   S    
C32   H90   S    
C53   C83   S    
C86   C90   A    
C49   C102  S    
C62   H22   S    
C98   H69   S    
C85   C89   A    
C2    C59   S    
N20   Ni8   S    
C46   C61   A    
C10   C24   S    
C51   C104  S    
C87   N25   A    
C64   N2    A    
C40   H9    S    
C33   C37   D    
N6    N15   A    
C56   C60   D    
C3    H83   S    
N27   Ni4   S    
C7    H93   S    
C19   C23   S    
C39   N27   A    
C52   C72   S    
C29   H57   S    
C43   H12   S    
N26   N27   A    
C66   N4    A    
N29   Ni6   S    
C83   C84   A    
C44   H14   S    
C97   H60   S    
C104  H86   S    
C96   C97   S    
C20   C27   S    
N3    N11   A    
C96   H63   S    
N28   Ni5   S    
N1    N22   A    
N16   Ni3   S    
C17   C96   S    
N12   N24   A    
N25   Ni4   S    
N1    Ni1   S    
C16   H24   S    
C30   H68   S    
C2    C73   A    
N3    Ni4   S    
C99   H65   S    
N23   Ni3   S    
C16   C18   S    
C80   H41   S    
N23   N25   A    
C98   C99   S    
C27   H46   S    
C87   H48   S    
C36   H6    S    
C47   H26   S    
C59   H20   S    
C18   C25   S    
C73   N10   A    
C101  H71   S    
C6    C53   S    
C38   H8    S    
C95   H56   S    
C19   C29   S    
C3    H82   S    
C39   C92   A    
C71   H32   S    
C11   C68   A    
N9    N32   A    
C5    H89   S    
C54   C58   D    
C28   C98   S    
C25   C30   S    
C4    H92   S    
H98   O1    S    
C21   C25   S    
C54   C55   S    
C60   H21   S    
C1    C89   A    
C22   C30   S    
C31   H79   S    
C34   C38   D    
C33   C44   S    
C14   C19   S    
C77   N15   A    
C33   H2    S    
C5    H88   S    
C4    C5    S    
N6    Ni5   S    
C50   C80   A    
N5    Ni6   S    
C57   H18   S    
C48   C83   A    
C6    C7    S    
C65   N3    A    
C22   H53   S    
N21   Ni7   S    
C103  H77   S    
N30   Ni7   S    
N11   Ni7   S    
C79   H40   S    
C37   C89   S    
N10   Ni6   S    
C102  H80   S    
C88   H49   S    
C7    H94   S    
N9    Ni5   S    
C35   C40   D    
C58   C94   S    
N13   Ni8   S    
N12   Ni2   S    
N24   Ni1   S    
C61   C81   A    
C78   H39   S    
C56   H17   S    
C6    H96   S    
C74   H34   S    
C39   C100  S    
C70   H31   S    
H99   O2    S    
C73   H33   S    
C93   H58   S    
N19   Ni5   S    
C97   H61   S    
C104  H85   S    
C11   C23   S    
C100  C101  S    
C32   C43   S    
N32   Ni2   S    
C67   N5    A    
N2    Ni1   S    
C40   C91   S    
C7    H95   S    
C102  C103  S    
C85   H45   S    
N31   Ni8   S    
C37   H7    S    
C48   N31   A    
C101  H73   S    
N18   N28   A    
C15   H13   S    
C42   H11   S    
C26   C31   S    
C64   O2    S    
C47   C72   A    
C1    C93   S    
C81   H42   S    
C22   C26   S    
C12   C26   S    
C8    C74   A    
C19   H50   S    
C75   N13   A    
C14   C15   S    
C101  H72   S    
C71   C94   A    
C45   C50   A    
C9    C75   A    
N14   Ni1   S    
C86   H47   S    
C100  H75   S    
H100  O3    S    
C8    C60   S    
C99   H67   S    
