data_mof_unit_2089.cif
_audit_creation_date              2012-12-11T17:23:10-0500
_audit_creation_method            fapswitch 2.2
_symmetry_space_group_name_H-M    P1
_symmetry_Int_Tables_number       1
_space_group_crystal_system       triclinic
_cell_length_a                    22.40221
_cell_length_b                    7.096276
_cell_length_c                    19.407434
_cell_angle_alpha                 90.007702
_cell_angle_beta                  99.547663
_cell_angle_gamma                 89.986716
_cell_volume                      3042.50673158

loop_
_atom_site_label
_atom_site_type_symbol
_atom_type_description
_atom_site_fract_x
_atom_site_fract_y
_atom_site_fract_z
_atom_type_partial_charge
O1    O     O_R   0.443980 0.494320 0.557430 -0.533618
O2    O     O_R   0.556020 0.994320 0.442570 -0.533717
O3    O     O_R   0.441210 0.822520 0.414610 -0.537438
O4    O     O_R   0.558790 0.322520 0.585390 -0.537400
C1    C     C_R   0.426662 0.655390 0.388813 0.690745
C2    C     C_R   0.573326 0.155376 0.611193 0.690997
O5    O     O_R   0.436920 0.823940 0.555180 -0.536303
O6    O     O_R   0.563080 0.323940 0.444820 -0.536457
O7    O     O_R   0.551700 0.995760 0.584140 -0.534779
O8    O     O_R   0.448300 0.495760 0.415860 -0.534821
C3    C     C_R   0.421599 0.655447 0.574864 0.718049
C4    C     C_R   0.578421 0.155390 0.425169 0.718387
O9    O     O_3   0.537660 0.661290 0.509340 -0.370345
O10   O     O_3   0.462340 0.161290 0.490660 -0.370311
V1    V     V_3+5 0.493010 0.935560 0.498270 1.425023
V2    V     V_3+5 0.506990 0.435560 0.501730 1.424868
H1    H     H_    0.683046 0.840701 0.261388 0.125644
H2    H     H_    0.333759 0.381076 0.760708 0.126307
C5    C     C_R   0.755935 0.947407 0.212978 -0.236051
C6    C     C_R   0.254393 0.471831 0.800621 -0.238503
H3    H     H_    0.758599 0.819822 0.182988 0.138602
H4    H     H_    0.258241 0.360098 0.839146 0.132869
C7    C     C_R   0.795186 0.098484 0.206805 0.096291
C8    C     C_R   0.206657 0.602091 0.795636 0.091015
C9    C     C_R   0.790657 0.264065 0.246392 0.306321
C10   C     C_R   0.202708 0.747001 0.744918 0.309370
C11   C     C_R   0.746258 0.275753 0.290114 -0.226287
C12   C     C_R   0.245901 0.756063 0.699611 -0.225276
H5    H     H_    0.742427 0.403316 0.319796 0.118941
H6    H     H_    0.242541 0.866293 0.660508 0.120281
C13   C     C_R   0.707398 0.123761 0.296270 0.102221
C14   C     C_R   0.293506 0.625423 0.704941 0.096984
C15   C     C_R   0.712660 0.959526 0.257497 -0.162744
C16   C     C_R   0.297424 0.483466 0.755782 -0.150722
C17   C     C_1   0.839161 0.082832 0.159304 -0.001730
C18   C     C_1   0.161671 0.583960 0.841781 -0.013494
C19   C     C_1   0.662119 0.136408 0.342104 -0.041226
C20   C     C_1   0.338347 0.637223 0.658525 -0.040910
C21   C     C_1   0.624155 0.145963 0.380154 -0.190725
C22   C     C_1   0.376054 0.646281 0.620133 -0.190306
C23   C     C_1   0.876446 0.071856 0.120484 -0.183002
C24   C     C_1   0.123876 0.571970 0.879923 -0.189191
C25   C     C_R   0.632817 0.171662 0.804124 -0.159230
C26   C     C_R   0.367076 0.673248 0.195925 -0.160129
H7    H     H_    0.545577 0.195283 0.739875 0.105848
H8    H     H_    0.454316 0.696872 0.260164 0.106303
H9    H     H_    0.714963 0.164441 0.919205 0.126458
H10   H     H_    0.284892 0.666878 0.080872 0.123733
H11   H     H_    0.614266 0.191476 0.851766 0.113430
H12   H     H_    0.385588 0.693839 0.148301 0.112970
C27   C     C_R   0.615720 0.147949 0.678035 -0.036874
C28   C     C_R   0.384252 0.648068 0.321975 -0.036918
C29   C     C_R   0.910437 0.045852 0.760446 -0.160277
C30   C     C_R   0.089588 0.544604 0.239550 -0.162324
C31   C     C_R   0.873882 0.046659 0.695160 -0.117278
C32   C     C_R   0.126162 0.544901 0.304822 -0.120698
C33   C     C_R   0.811487 0.071119 0.688968 -0.157713
C34   C     C_R   0.188538 0.569842 0.311024 -0.157295
C35   C     C_R   0.783659 0.096004 0.748668 0.077215
C36   C     C_R   0.216322 0.595739 0.251348 0.077206
C37   C     C_R   0.821707 0.096292 0.815810 0.068576
C38   C     C_R   0.178249 0.596618 0.184223 0.069047
C39   C     C_R   0.719471 0.120385 0.743971 0.074174
C40   C     C_R   0.280494 0.620516 0.256050 0.073924
C41   C     C_R   0.695269 0.145657 0.806584 0.138008
C42   C     C_R   0.304647 0.646780 0.193459 0.139363
C43   C     C_R   0.733384 0.145413 0.871427 -0.198802
C44   C     C_R   0.266507 0.647096 0.128633 -0.201507
C45   C     C_R   0.795470 0.120909 0.876084 -0.189796
C46   C     C_R   0.204441 0.622200 0.123970 -0.192653
C47   C     C_R   0.678186 0.121192 0.679607 -0.214820
C48   C     C_R   0.321808 0.620798 0.320396 -0.215447
C49   C     C_R   0.593537 0.173565 0.740468 -0.167082
C50   C     C_R   0.406380 0.674689 0.259565 -0.166861
C51   C     C_R   0.885352 0.070719 0.821121 -0.081192
C52   C     C_R   0.114626 0.570558 0.178900 -0.079493
H13   H     H_    0.692943 0.103038 0.629931 0.093003
H14   H     H_    0.307085 0.601940 0.370055 0.092771
H15   H     H_    0.958776 0.025402 0.763713 0.108599
H16   H     H_    0.041276 0.523660 0.236278 0.098872
H17   H     H_    0.786345 0.069728 0.636629 0.108279
H18   H     H_    0.213702 0.567970 0.363351 0.107560
H19   H     H_    0.894119 0.027503 0.648708 0.120242
H20   H     H_    0.105957 0.524916 0.351251 0.117303
H21   H     H_    0.822877 0.121666 0.927588 0.110768
H22   H     H_    0.177016 0.623414 0.072478 0.108946
O11   O     O_R   0.051730 0.724670 0.084120 -0.534000
O12   O     O_R   0.948270 0.224670 0.915880 -0.533480
O13   O     O_R   0.063080 0.393540 0.944820 -0.538067
O14   O     O_R   0.936920 0.893540 0.055180 -0.535346
C53   C     C_R   0.078218 0.562106 0.924946 0.713551
C54   C     C_R   0.921788 0.062142 0.075054 0.712021
O15   O     O_R   0.058800 0.395030 0.085390 -0.536283
O16   O     O_R   0.941200 0.895030 0.914610 -0.535409
O17   O     O_R   0.943980 0.223310 0.057440 -0.531973
O18   O     O_R   0.056020 0.723310 0.942560 -0.533917
C55   C     C_R   0.072894 0.563491 0.111283 0.679297
C56   C     C_R   0.927089 0.063514 0.888732 0.679810
O19   O     O_3   0.962360 0.556290 0.990650 -0.367357
O20   O     O_3   0.037640 0.056290 0.009350 -0.370752
V3    V     V_3+5 0.006980 0.281990 0.001730 1.426255
V4    V     V_3+5 0.993020 0.781990 0.998270 1.431490
N1    N     N_2   0.828942 0.421892 0.240902 -0.522145
H23   H     H_    0.812023 0.550395 0.253383 0.252112
C57   C     C_3   0.892747 0.397439 0.268263 -0.536592
H24   H     H_    0.905718 0.486492 0.315468 0.182435
H25   H     H_    0.919753 0.441746 0.228023 0.203102
H26   H     H_    0.904217 0.248668 0.282897 0.192935
N2    N     N_2   0.154466 0.880316 0.737402 -0.525759
H27   H     H_    0.143415 0.939869 0.688443 0.250891
C58   C     C_3   0.154960 0.014063 0.794014 -0.524152
H28   H     H_    0.162705 0.158653 0.775441 0.190169
H29   H     H_    0.190922 0.982126 0.839283 0.191112
H30   H     H_    0.110418 0.010687 0.811904 0.206284

loop_
_geom_bond_atom_site_label_1
_geom_bond_atom_site_label_2
_ccdc_geom_bond_type
C25   C49   A    
C42   C44   A    
C39   C41   A    
O18   V4    S    
C11   H5    S    
C18   C24   T    
C58   H28   S    
O1    C3    A    
H8    C50   S    
C40   C48   A    
O2    C4    A    
C2    O7    A    
O12   V3    S    
C51   C56   S    
C45   H21   S    
C58   H29   S    
C37   C51   A    
O5    C3    A    
C57   H25   S    
C8    C18   S    
C27   C47   A    
C36   C38   A    
C29   H15   S    
C8    C10   A    
C28   C50   A    
N2    C58   S    
C33   C35   A    
O16   C56   A    
C37   C45   A    
C38   C46   A    
H7    C49   S    
C24   C53   S    
O14   V4    S    
C48   H14   S    
C53   O18   A    
C26   C42   A    
C6    C8    A    
C41   C43   A    
C13   C15   A    
C1    C28   S    
C14   C20   S    
C2    C27   S    
O13   C53   A    
O6    C4    A    
C6    C16   A    
O5    V1    S    
O6    V2    S    
C38   C52   A    
C29   C51   A    
H1    C15   S    
H9    C43   S    
C32   H20   S    
C30   H16   S    
C29   C31   A    
C57   H26   S    
C30   C32   A    
C35   C37   A    
C11   C13   A    
C12   C14   A    
O4    C2    A    
C5    C15   A    
O15   V3    S    
C25   H11   S    
C52   C55   S    
C54   O17   A    
C13   C19   S    
C43   C45   A    
C14   C16   A    
O4    V2    S    
C5    C7    A    
C28   C48   A    
O11   V4    S    
O14   C54   A    
C25   C41   A    
C23   C54   S    
O20   V4    S    
N1    C57   S    
O1    V2    S    
H10   C44   S    
C26   C50   A    
O2    V1    S    
H2    C16   S    
C10   N2    S    
C30   C52   A    
O19   V3    S    
C39   C47   A    
C7    C17   S    
C31   C33   A    
C33   H17   S    
C31   H19   S    
C46   H22   S    
O15   C55   A    
C47   H13   S    
O3    V1    S    
C26   H12   S    
O13   V3    S    
C10   C12   A    
C9    N1    S    
C27   C49   A    
C6    H4    S    
O3    C1    A    
C9    C11   A    
C57   H24   S    
C35   C39   A    
C36   C40   A    
C4    C21   S    
C34   H18   S    
O7    V1    S    
C1    O8    A    
C19   C21   T    
O8    V2    S    
N2    H27   S    
C20   C22   T    
C12   H6    S    
O20   V3    S    
C32   C34   A    
C58   H30   S    
C7    C9    A    
C3    C22   S    
C17   C23   T    
O19   V4    S    
O16   V4    S    
C44   C46   A    
O9    V2    S    
N1    H23   S    
O10   V1    S    
O11   C55   A    
C34   C36   A    
O12   C56   A    
O17   V3    S    
C40   C42   A    
C5    H3    S    
