data_mof_unit_2009.cif
_audit_creation_date              2012-10-26T19:40:38-0400
_audit_creation_method            fapswitch 2.2
_symmetry_space_group_name_H-M    P1
_symmetry_Int_Tables_number       1
_space_group_crystal_system       triclinic
_cell_length_a                    9.672631
_cell_length_b                    10.935157
_cell_length_c                    13.327399
_cell_angle_alpha                 89.864935
_cell_angle_beta                  72.639466
_cell_angle_gamma                 89.650325
_cell_volume                      1345.42126377

loop_
_atom_site_label
_atom_site_type_symbol
_atom_type_description
_atom_site_fract_x
_atom_site_fract_y
_atom_site_fract_z
_atom_type_partial_charge
C1    C     C_R   0.498606 0.734444 0.502960 0.561175
C2    C     C_R   0.374886 0.481648 0.816242 -0.015976
C3    C     C_2   0.620044 0.063992 0.490024 0.260819
C4    C     C_R   0.422657 0.493402 0.700565 0.526903
C5    C     C_2   0.507132 0.133297 0.484312 -0.052471
C6    C     C_2   0.612632 0.931154 0.473818 -0.145915
C7    C     C_2   0.493105 0.865633 0.518868 0.220398
C8    C     C_2   0.052931 0.570438 0.562021 0.376980
C9    C     C_2   0.892894 0.554465 0.571388 -0.030867
C10   C     C_R   0.502029 0.265191 0.496561 0.554522
C11   C     C_R   0.577399 0.496662 0.299580 0.537013
C12   C     C_R   0.425207 0.450811 0.983937 0.039592
C13   C     C_R   0.775380 0.368263 0.033537 -0.138676
C14   C     C_R   0.620487 0.471828 0.186539 -0.004309
C15   C     C_R   0.234431 0.520324 0.871449 -0.156560
C16   C     C_R   0.183272 0.509262 0.980035 -0.141034
C17   C     C_R   0.274537 0.469460 0.038032 0.007279
C18   C     C_3   0.357981 0.889521 0.689396 -0.126538
C19   C     C_3   0.021130 0.765112 0.632429 -0.125738
C20   C     C_3   0.200492 0.423891 0.149539 -0.255170
C21   C     C_3   0.222961 0.285626 0.158567 -0.295395
C22   C     C_3   0.146421 0.238956 0.269126 -0.446150
C23   C     C_R   0.467501 0.436806 0.873058 0.009656
C24   C     C_3   0.820328 0.043533 0.551488 -0.125182
C25   C     C_R   0.535052 0.440645 0.034485 0.023753
C26   C     C_R   0.669444 0.384233 0.981889 0.044812
C27   C     C_R   0.696788 0.346410 0.878061 -0.146985
C28   C     C_R   0.598788 0.374712 0.823457 -0.130798
C29   C     C_R   0.519838 0.494252 0.132260 -0.130070
C30   C     C_R   0.749294 0.409102 0.136634 -0.143650
Cu1   Cu    Cu3+1 0.361370 0.499980 0.499980 0.984926
Cu2   Cu    Cu3+1 0.638630 0.500020 0.500020 0.930954
H1    H     H_    0.828008 0.389688 0.177778 0.122011
H2    H     H_    0.161120 0.554457 0.830141 0.158733
H3    H     H_    0.069797 0.528474 0.018559 0.116594
H4    H     H_    0.625685 0.343121 0.743228 0.163244
H5    H     H_    0.457002 0.916894 0.709874 0.104896
H6    H     H_    0.336502 0.790335 0.704889 0.146000
H7    H     H_    0.265326 0.940807 0.742023 0.127793
H8    H     H_    0.911738 0.760323 0.690438 0.081877
H9    H     H_    0.014552 0.795835 0.554210 0.105901
H10   H     H_    0.081564 0.835972 0.660925 0.167538
H11   H     H_    0.195511 0.280183 0.326385 0.158949
H12   H     H_    0.414456 0.092188 0.467581 0.113209
H13   H     H_    0.029027 0.261734 0.291904 0.167188
H14   H     H_    0.158828 0.138074 0.271522 0.149418
H15   H     H_    0.179381 0.236772 0.101537 0.162494
H16   H     H_    0.340174 0.263695 0.139831 0.175883
H17   H     H_    0.233074 0.473387 0.210662 0.144066
H18   H     H_    0.081806 0.440828 0.170525 0.127471
H19   H     H_    0.882440 0.971545 0.497801 0.109839
H20   H     H_    0.746191 0.002430 0.624132 0.103689
H21   H     H_    0.899683 0.100185 0.575634 0.140416
H22   H     H_    0.710601 0.885552 0.426699 0.097241
H23   H     H_    0.120932 0.432161 0.461084 0.158683
H24   H     H_    0.813056 0.592915 0.639296 0.146527
H25   H     H_    0.922015 0.473365 0.432930 0.196392
H26   H     H_    0.796986 0.299712 0.837468 0.109898
H27   H     H_    0.877116 0.322730 0.994811 0.109031
H28   H     H_    0.432500 0.557459 0.165880 0.115589
N1    N     N_2   0.152660 0.501340 0.501130 -0.318510
N2    N     N_2   0.846520 0.501370 0.501160 -0.369748
O1    O     O_R   0.382960 0.678040 0.499980 -0.428839
O2    O     O_3   0.095226 0.652485 0.626678 -0.522069
O3    O     O_3   0.745491 0.119365 0.499064 -0.544125
O4    O     O_R   0.617100 0.678080 0.500020 -0.530967
O5    O     O_R   0.325800 0.499940 0.650950 -0.455281
O6    O     O_R   0.559930 0.499980 0.650990 -0.514734
O7    O     O_R   0.382900 0.321920 0.499980 -0.521853
O8    O     O_R   0.617040 0.321960 0.500020 -0.429424
O9    O     O_R   0.440070 0.500020 0.349010 -0.511871
O10   O     O_R   0.674200 0.500060 0.349050 -0.504730
O11   O     O_3   0.368560 0.919341 0.584316 -0.595714

loop_
_geom_bond_atom_site_label_1
_geom_bond_atom_site_label_2
_ccdc_geom_bond_type
C12   C17   A    
C24   H20   S    
C4    O5    A    
C2    C4    S    
C18   H7    S    
C29   H28   S    
C6    C7    D    
C13   H27   S    
Cu1   N1    S    
C15   H2    S    
C22   H11   S    
C19   H10   S    
Cu1   O7    S    
C8    N1    D    
Cu2   O6    S    
C21   H16   S    
C22   H13   S    
C24   H19   S    
Cu1   O9    S    
C1    O4    A    
C18   H6    S    
C3    C5    D    
Cu2   N2    S    
H25   N2    S    
C7    O11   S    
C9    H24   S    
C3    O3    S    
C21   C22   S    
C25   C26   A    
C9    N2    D    
Cu1   O5    S    
C2    C15   A    
C12   C23   A    
C26   C27   A    
C20   H17   S    
C24   O3    S    
C14   C30   A    
C20   H18   S    
H23   N1    S    
Cu2   O4    S    
C22   H14   S    
C19   O2    S    
C8    O2    S    
C6    H22   S    
C18   O11   S    
C16   H3    S    
C25   C29   A    
C11   C14   S    
C11   O9    A    
C13   C26   A    
C23   C28   A    
C19   H8    S    
C12   C25   A    
C15   C16   A    
C10   O7    A    
Cu1   O1    S    
C13   C30   A    
C5    C10   S    
C17   C20   S    
C20   C21   S    
C28   H4    S    
C8    C9    S    
Cu2   O10   S    
C3    C6    S    
C2    C23   A    
C4    O6    A    
C11   O10   A    
C1    O1    A    
Cu2   O8    S    
C14   C29   A    
C30   H1    S    
C21   H15   S    
C24   H21   S    
C1    C7    S    
C5    H12   S    
C18   H5    S    
Cu1   Cu2   S    
C19   H9    S    
C16   C17   A    
C27   C28   A    
C27   H26   S    
C10   O8    A    
