data_mof_unit_2135.cif
_audit_creation_date              2012-12-10T21:00:49-0500
_audit_creation_method            fapswitch 2.2
_symmetry_space_group_name_H-M    P1
_symmetry_Int_Tables_number       1
_space_group_crystal_system       triclinic
_cell_length_a                    18.104992
_cell_length_b                    18.177166
_cell_length_c                    18.315589
_cell_angle_alpha                 119.905845
_cell_angle_beta                  90.078975
_cell_angle_gamma                 119.862148
_cell_volume                      4274.15297271

loop_
_atom_site_label
_atom_site_type_symbol
_atom_type_description
_atom_site_fract_x
_atom_site_fract_y
_atom_site_fract_z
_atom_type_partial_charge
C1    C     C_R   0.109666 0.220047 0.609737 0.498287
C2    C     C_3   0.450419 0.897122 0.946542 0.056513
C3    C     C_3   0.482083 0.030101 0.076195 0.019141
C4    C     C_3   0.517921 0.969902 0.923784 0.019201
C5    C     C_3   0.451531 0.406691 0.486306 -0.130181
C6    C     C_3   0.548522 0.593392 0.513753 -0.130177
C7    C     C_3   0.555861 0.479495 0.519828 -0.128205
C8    C     C_3   0.444197 0.520602 0.480246 -0.128068
C9    C     C_3   0.550102 0.499536 0.448745 0.070928
C10   C     C_3   0.449941 0.500537 0.551306 0.070737
C11   C     C_3   0.446573 0.426633 0.414262 -0.109043
C12   C     C_R   0.889725 0.779961 0.390203 0.496701
C13   C     C_3   0.553468 0.573454 0.585797 -0.109287
C14   C     C_R   0.077565 0.160299 0.838061 -0.089743
C15   C     C_R   0.913575 0.833247 0.159824 -0.088435
C16   C     C_R   0.392891 0.781080 0.887849 0.497701
C17   C     C_R   0.607109 0.218920 0.112142 0.497898
C18   C     C_R   0.075535 0.114331 0.748837 0.071936
C19   C     C_R   0.916562 0.880554 0.249379 0.070427
C20   C     C_R   0.014213 0.099770 0.686402 0.072243
C21   C     C_R   0.981520 0.900325 0.312683 0.071600
C22   C     C_R   0.956949 0.131420 0.714643 -0.087873
C23   C     C_3   0.924293 0.403810 0.445269 -0.123751
C24   C     C_R   0.040843 0.871886 0.284786 -0.088217
C25   C     C_R   0.960058 0.177015 0.803548 -0.112715
C26   C     C_R   0.036474 0.824639 0.195530 -0.112376
C27   C     C_R   0.020097 0.191176 0.865060 -0.121785
C28   C     C_R   0.973127 0.805620 0.133243 -0.119943
C29   C     C_R   0.955830 0.943860 0.535455 -0.158782
C30   C     C_R   0.040850 0.056118 0.463904 -0.167859
C31   C     C_R   0.945794 0.892282 0.444663 0.017312
C32   C     C_R   0.051622 0.107720 0.554888 0.010871
C33   C     C_R   0.988160 0.949010 0.408052 -0.039186
C34   C     C_3   0.075786 0.596301 0.554753 -0.123792
C35   C     C_R   0.008076 0.050982 0.591194 -0.039404
C36   C     C_R   0.564305 0.473480 0.717544 -0.101866
C37   C     C_R   0.437547 0.529359 0.284026 -0.101594
C38   C     C_R   0.525664 0.460164 0.779752 -0.061768
C39   C     C_R   0.475823 0.541967 0.221392 -0.062546
C40   C     C_R   0.110185 0.500112 0.889033 0.502552
C41   C     C_R   0.889801 0.499875 0.110954 0.503367
C42   C     C_R   0.572241 0.537079 0.871690 0.059694
C43   C     C_R   0.428611 0.464873 0.129569 0.059476
C44   C     C_R   0.657948 0.627199 0.900226 -0.091481
C45   C     C_3   0.411722 0.962380 0.983059 -0.105186
C46   C     C_R   0.342692 0.375287 0.101586 -0.091593
C47   C     C_R   0.696326 0.640083 0.837803 -0.116761
C48   C     C_R   0.304692 0.363117 0.164426 -0.117403
C49   C     C_R   0.649786 0.563082 0.746597 -0.107820
C50   C     C_R   0.351826 0.440300 0.255503 -0.107526
C51   C     C_R   0.585310 0.523351 0.997072 -0.160152
C52   C     C_R   0.415095 0.477781 0.003691 -0.155045
C53   C     C_R   0.551379 0.502826 0.058024 0.022422
C54   C     C_R   0.448894 0.497953 0.942523 0.023935
C55   C     C_R   0.465793 0.480576 0.062554 -0.033439
C56   C     C_3   0.588280 0.037623 0.016921 -0.105166
C57   C     C_R   0.534685 0.520688 0.938289 -0.034400
C58   C     C_R   0.105540 0.775820 0.936966 -0.106690
C59   C     C_R   0.893717 0.224672 0.063826 -0.106161
C60   C     C_R   0.094116 0.720325 0.973067 -0.074404
C61   C     C_R   0.905168 0.280009 0.027549 -0.073899
C62   C     C_R   0.023783 0.614349 0.925224 0.058010
C63   C     C_R   0.976184 0.385674 0.074802 0.057636
C64   C     C_R   0.392537 0.500090 0.607863 0.501280
C65   C     C_R   0.607470 0.499929 0.392146 0.501114
C66   C     C_R   0.964538 0.564774 0.841485 -0.078662
C67   C     C_3   0.480061 0.036227 0.960155 -0.135389
C68   C     C_R   0.036040 0.435092 0.158134 -0.079443
C69   C     C_R   0.976067 0.620642 0.805722 -0.101112
C70   C     C_R   0.024458 0.379394 0.194091 -0.101678
C71   C     C_R   0.046625 0.725981 0.853303 -0.094551
C72   C     C_R   0.953248 0.274367 0.147091 -0.094383
C73   C     C_R   0.959858 0.552852 0.016645 -0.163027
C74   C     C_R   0.040129 0.447143 0.983350 -0.163451
C75   C     C_R   0.946431 0.498725 0.054608 0.016923
C76   C     C_R   0.053522 0.501229 0.945349 0.016918
C77   C     C_R   0.986928 0.444802 0.037489 -0.037895
C78   C     C_3   0.519943 0.963777 0.039826 -0.135283
C79   C     C_R   0.013019 0.555151 0.962468 -0.037711
C80   C     C_R   0.393754 0.498435 0.887166 0.499851
C81   C     C_R   0.606297 0.501745 0.112983 0.497456
C82   C     C_R   0.109015 0.500195 0.607687 0.502535
C83   C     C_R   0.891012 0.499838 0.392315 0.502974
C84   C     C_3   0.021259 0.434419 0.448030 -0.110989
C85   C     C_3   0.978818 0.565693 0.551989 -0.111082
C86   C     C_3   0.044854 0.530665 0.451457 -0.126821
C87   C     C_3   0.955221 0.469444 0.548561 -0.126767
C88   C     C_3   0.948734 0.499967 0.449424 0.068077
C89   C     C_3   0.549583 0.102877 0.053435 0.056345
C90   C     C_3   0.051340 0.500134 0.550593 0.068189
C91   C     C_3   0.140444 0.084136 0.723311 -0.274459
C92   C     C_3   0.109293 0.985240 0.716381 -0.452233
C93   C     C_3   0.850283 0.908781 0.274538 -0.285727
C94   C     C_3   0.754174 0.812172 0.236977 -0.416887
C95   C     C_3   0.462613 0.062068 0.164395 -0.275551
C96   C     C_3   0.401912 0.099427 0.173129 -0.431201
C97   C     C_3   0.537437 0.938040 0.835608 -0.275663
C98   C     C_3   0.597918 0.900374 0.826695 -0.431113
H1    H     H_    0.080745 0.555989 0.410855 0.099529
H2    H     H_    0.082261 0.802673 0.174631 0.101263
H3    H     H_    0.922131 0.900749 0.563510 0.140167
H4    H     H_    0.074386 0.099151 0.435740 0.141980
H5    H     H_    0.680286 0.572873 0.698581 0.099863
H6    H     H_    0.321562 0.431040 0.303806 0.099879
H7    H     H_    0.528353 0.413806 0.646855 0.096170
H8    H     H_    0.473957 0.589164 0.354628 0.095688
H9    H     H_    0.460215 0.389443 0.756397 0.085777
H10   H     H_    0.541470 0.612295 0.244326 0.081523
H11   H     H_    0.695208 0.687057 0.970794 0.092070
H12   H     H_    0.919313 0.444078 0.589133 0.099199
H13   H     H_    0.304962 0.315287 0.031124 0.095998
H14   H     H_    0.039386 0.380458 0.405826 0.117258
H15   H     H_    0.960710 0.619677 0.594191 0.116922
H16   H     H_    0.762498 0.709399 0.860159 0.100449
H17   H     H_    0.238348 0.294220 0.142495 0.100467
H18   H     H_    0.650588 0.538071 0.993093 0.135221
H19   H     H_    0.349882 0.463233 0.007753 0.134513
H20   H     H_    0.055598 0.768965 0.825358 0.097812
H21   H     H_    0.944242 0.231514 0.175184 0.098049
H22   H     H_    0.160161 0.857361 0.973741 0.090561
H23   H     H_    0.022451 0.226514 0.933947 0.110508
H24   H     H_    0.838602 0.143371 0.027501 0.090528
H25   H     H_    0.140409 0.759424 0.037663 0.091859
H26   H     H_    0.858401 0.241037 0.963271 0.092129
H27   H     H_    0.910031 0.483055 0.803922 0.092212
H28   H     H_    0.091045 0.516585 0.195261 0.092661
H29   H     H_    0.930409 0.582325 0.741112 0.094373
H30   H     H_    0.070569 0.417612 0.258414 0.094430
H31   H     H_    0.928129 0.593152 0.028435 0.142903
H32   H     H_    0.071891 0.406878 0.971599 0.143100
H33   H     H_    0.861288 0.324815 0.399381 0.104800
H34   H     H_    0.970026 0.769303 0.064123 0.109501
H35   H     H_    0.138783 0.675304 0.600642 0.104556
H36   H     H_    0.464131 0.066583 0.927505 0.103345
H37   H     H_    0.535871 0.933420 0.072478 0.103056
H38   H     H_    0.338916 0.930956 0.968601 0.117808
H39   H     H_    0.661086 0.069055 0.031386 0.117454
H40   H     H_    0.602478 0.462045 0.534207 0.099179
H41   H     H_    0.397635 0.538202 0.466058 0.098973
H42   H     H_    0.410848 0.330249 0.476248 0.099671
H43   H     H_    0.589208 0.669834 0.523811 0.099309
H44   H     H_    0.403718 0.365770 0.343014 0.125218
H45   H     H_    0.124224 0.172737 0.886994 0.094601
H46   H     H_    0.596299 0.634363 0.657045 0.125124
H47   H     H_    0.106316 0.996861 0.781589 0.142796
H48   H     H_    0.041502 0.920145 0.664903 0.159680
H49   H     H_    0.157622 0.964378 0.696962 0.136386
H50   H     H_    0.147716 0.071877 0.658762 0.150529
H51   H     H_    0.208717 0.148226 0.774367 0.139897
H52   H     H_    0.732185 0.760064 0.163037 0.156383
H53   H     H_    0.750131 0.769342 0.265450 0.180361
H54   H     H_    0.707202 0.835484 0.255152 0.119969
H55   H     H_    0.868054 0.959968 0.347941 0.147309
H56   H     H_    0.864960 0.817864 0.110373 0.092666
H57   H     H_    0.852255 0.952761 0.248009 0.126676
H58   H     H_    0.392330 0.124798 0.239242 0.128891
H59   H     H_    0.334686 0.035615 0.120464 0.134593
H60   H     H_    0.432552 0.165890 0.167788 0.192773
H61   H     H_    0.428624 0.994214 0.168183 0.136503
H62   H     H_    0.527514 0.124562 0.220709 0.136734
H63   H     H_    0.664997 0.963823 0.879655 0.134883
H64   H     H_    0.566855 0.833418 0.831375 0.192816
H65   H     H_    0.607902 0.875610 0.760788 0.128906
H66   H     H_    0.472541 0.875748 0.779263 0.136637
H67   H     H_    0.909921 0.120809 0.667591 0.092868
H68   H     H_    0.571633 0.006031 0.832006 0.136609
H69   H     H_    0.090321 0.886013 0.332371 0.093751
H70   H     H_    0.915886 0.201477 0.824782 0.101956
O1    O     O_3   0.251620 0.500000 0.748430 -0.436863
O2    O     O_R   0.570330 0.268390 0.136490 -0.549998
O3    O     O_R   0.134680 0.268390 0.572240 -0.554050
O4    O     O_R   0.865320 0.731610 0.427760 -0.555515
O5    O     O_R   0.306670 0.731630 0.863510 -0.546583
O6    O     O_R   0.693330 0.268370 0.136490 -0.546597
O7    O     O_R   0.135450 0.439270 0.865360 -0.547342
O8    O     O_R   0.864550 0.560730 0.134640 -0.545509
O9    O     O_R   0.429670 0.560710 0.692610 -0.546936
O10   O     O_R   0.570330 0.439290 0.307390 -0.546855
O11   O     O_R   0.308540 0.439240 0.865360 -0.556429
O12   O     O_3   0.748380 0.500000 0.251570 -0.436172
O13   O     O_R   0.691460 0.560760 0.134640 -0.563070
O14   O     O_R   0.133580 0.439310 0.571150 -0.549967
O15   O     O_R   0.866420 0.560690 0.428850 -0.549980
O16   O     O_R   0.430770 0.560690 0.864590 -0.533188
O17   O     O_R   0.569230 0.439310 0.135410 -0.531432
O18   O     O_R   0.133580 0.560760 0.692610 -0.539449
O19   O     O_R   0.866420 0.439240 0.307390 -0.539133
O20   O     O_R   0.134680 0.560740 0.864590 -0.531228
O21   O     O_R   0.865320 0.439260 0.135410 -0.531057
O22   O     O_R   0.306670 0.439270 0.571150 -0.547169
O23   O     O_R   0.693330 0.560730 0.428850 -0.547626
O24   O     O_R   0.135450 0.268370 0.694460 -0.535424
O25   O     O_R   0.864550 0.731630 0.305540 -0.537029
O26   O     O_R   0.429670 0.731610 0.863510 -0.550399
Zn1   Zn    Zn3+2 0.207400 0.586780 0.791530 0.934136
Zn2   Zn    Zn3+2 0.792600 0.413220 0.208470 0.935030
Zn3   Zn    Zn3+2 0.208510 0.413230 0.792630 0.925437
Zn4   Zn    Zn3+2 0.791490 0.586770 0.207370 0.920164
Zn5   Zn    Zn3+2 0.383150 0.586740 0.791530 0.924177
Zn6   Zn    Zn3+2 0.616850 0.413260 0.208470 0.923500
Zn7   Zn    Zn3+2 0.207400 0.413250 0.618010 0.915671
Zn8   Zn    Zn3+2 0.792600 0.586750 0.381990 0.913207

loop_
_geom_bond_atom_site_label_1
_geom_bond_atom_site_label_2
_ccdc_geom_bond_type
C16   O5    A    
C47   H16   S    
C96   H60   S    
O6    Zn2   S    
C93   C94   S    
C37   C50   A    
O19   Zn2   S    
O14   Zn7   S    
C12   O25   A    
C14   C18   A    
C95   C96   S    
C84   C90   S    
C76   C79   A    
C81   O13   A    
C6    C9    S    
O2    Zn6   S    
C97   C98   S    
C27   H23   S    
C12   O4    A    
C87   H12   S    
C17   O6    A    
C15   C19   A    
C43   C46   A    
C84   H14   S    
C74   C76   A    
C82   O18   A    
C8    H41   S    
C95   H61   S    
C18   C91   S    
C60   C62   A    
C19   C21   A    
C84   C86   S    
C5    C11   S    
O12   Zn8   S    
C8    C11   S    
C86   C88   S    
C58   C71   A    
C66   C69   A    
C21   C33   S    
C65   O10   A    
C58   C60   A    
C97   H68   S    
C67   C89   S    
C56   C78   S    
C53   C81   S    
C34   C86   S    
C13   H46   S    
C38   H9    S    
C61   C63   A    
O7    Zn3   S    
C15   H56   S    
C63   C68   A    
C20   C35   S    
C65   O23   A    
O20   Zn1   S    
C74   C77   A    
O5    Zn1   S    
C31   C33   A    
C51   C57   A    
O23   Zn8   S    
C14   C27   A    
C2    C16   S    
C78   H37   S    
C19   C93   S    
C52   C55   A    
C59   C72   A    
O1    Zn5   S    
C44   H11   S    
O16   Zn5   S    
C59   H24   S    
C48   C50   A    
C83   C88   S    
C92   H47   S    
C2    C45   S    
C16   O26   A    
C23   C87   S    
C4    C97   S    
C4    C56   S    
C92   H49   S    
C73   C75   A    
C83   O19   A    
C64   O9    A    
C42   C44   A    
O13   Zn4   S    
C42   C57   S    
C81   O17   A    
C91   H50   S    
C98   H64   S    
C52   C54   A    
C98   H65   S    
C54   C80   S    
C53   C55   A    
C25   H70   S    
C39   H10   S    
C37   C39   A    
C46   C48   A    
C59   C61   A    
C69   C71   A    
C23   C84   S    
C62   C66   A    
C85   C87   S    
C92   H48   S    
C95   H62   S    
C80   O11   A    
O18   Zn1   S    
C93   H57   S    
C24   H69   S    
C17   C89   S    
O1    Zn1   S    
C30   H4    S    
C91   C92   S    
C5    C7    S    
C17   O2    A    
C39   C43   A    
O11   Zn3   S    
C34   H35   S    
C94   H53   S    
C93   H55   S    
C22   C25   A    
C1    C32   S    
C40   C76   S    
C28   H34   S    
C34   C85   S    
O3    Zn7   S    
C60   H25   S    
C2    C4    S    
C32   C35   A    
C45   C67   S    
O12   Zn6   S    
C1    O3    A    
C4    C67   S    
C9    C11   S    
C62   C79   S    
C50   H6    S    
C64   O22   A    
C34   C90   S    
C22   H67   S    
C7    C13   S    
C97   H66   S    
C67   H36   S    
C58   H22   S    
C73   C79   A    
C83   O15   A    
O24   Zn3   S    
C6    H43   S    
O4    Zn8   S    
C86   H1    S    
C75   C77   A    
C41   C75   S    
C29   H3    S    
C48   H17   S    
C43   C55   S    
C56   C89   S    
C41   O8    A    
C20   C22   A    
C23   C88   S    
C61   H26   S    
C12   C31   S    
C21   C24   A    
C94   H52   S    
C68   H28   S    
C98   H63   S    
C2    C78   S    
C5    H42   S    
O1    Zn3   S    
C85   H15   S    
C63   C77   S    
C85   C88   S    
C70   H30   S    
C7    C9    S    
O10   Zn6   S    
C14   H45   S    
C82   O14   A    
C45   H38   S    
C1    O24   A    
C71   H20   S    
C36   H7    S    
O15   Zn8   S    
C8    C10   S    
C10   C64   S    
C24   C26   A    
O8    Zn4   S    
C10   C13   S    
O12   Zn2   S    
C49   H5    S    
C40   O7    A    
C6    C8    S    
C44   C47   A    
O22   Zn7   S    
C38   C42   A    
C40   O20   A    
C25   C27   A    
C29   C35   A    
C26   C28   A    
C51   H18   S    
C82   C90   S    
C66   H27   S    
C41   O21   A    
C3    C89   S    
C74   H32   S    
C37   H8    S    
C29   C31   A    
C47   C49   A    
C52   H19   S    
C6    C13   S    
C30   C32   A    
C56   H39   S    
O21   Zn2   S    
C15   C28   A    
C96   H58   S    
C73   H31   S    
C72   H21   S    
C36   C38   A    
C3    C95   S    
C3    C45   S    
C96   H59   S    
C30   C33   A    
C18   C20   A    
C7    H40   S    
C80   O16   A    
O17   Zn6   S    
C11   H44   S    
C9    C65   S    
O12   Zn4   S    
O1    Zn7   S    
O26   Zn5   S    
C5    C10   S    
C69   H29   S    
C68   C70   A    
O9    Zn5   S    
C87   C90   S    
C91   H51   S    
C23   H33   S    
C70   C72   A    
C51   C53   A    
C46   H13   S    
C3    C78   S    
C94   H54   S    
C36   C49   A    
O25   Zn4   S    
C26   H2    S    
C54   C57   A    
