data_mof_unit_1942.cif
_audit_creation_date              2013-03-05T16:48:41-0500
_audit_creation_method            fapswitch 2.2
_symmetry_space_group_name_H-M    P1
_symmetry_Int_Tables_number       1
_space_group_crystal_system       triclinic
_cell_length_a                    27.761681
_cell_length_b                    8.910111
_cell_length_c                    8.103986
_cell_angle_alpha                 89.903985
_cell_angle_beta                  90.000548
_cell_angle_gamma                 90.000197
_cell_volume                      2004.59640079

loop_
_atom_site_label
_atom_site_type_symbol
_atom_site_description
_atom_site_fract_x
_atom_site_fract_y
_atom_site_fract_z
_atom_type_partial_charge
O1    O     O_R   0.500000 0.285350 0.636850 -0.616393
O2    O     O_R   0.500000 0.714650 0.363150 -0.616396
O3    O     O_R   0.500000 0.714650 0.636850 -0.612481
O4    O     O_R   0.500000 0.285350 0.363150 -0.612480
C1    C     C_R   0.500000 0.218031 0.500084 0.942539
C2    C     C_R   0.500000 0.781969 0.499916 0.942535
O5    O     O_R   0.428760 0.500000 0.636860 -0.620139
O6    O     O_R   0.571240 0.500000 0.363140 -0.620193
O7    O     O_R   0.571240 0.500000 0.636860 -0.620193
O8    O     O_R   0.428760 0.500000 0.363140 -0.620141
C3    C     C_R   0.405826 0.500003 0.499999 0.926506
C4    C     C_R   0.594178 0.500001 0.500001 0.926608
Zn1   Zn    Zn3+2 0.500000 0.500000 0.682780 1.014447
Zn2   Zn    Zn3+2 0.500000 0.500000 0.317220 1.014445
C5    C     C_R   0.177829 0.370308 0.463884 0.620295
C6    C     C_R   0.822206 0.630744 0.531709 0.620372
C7    C     C_R   0.177828 0.629838 0.536022 0.620305
C8    C     C_R   0.822207 0.369341 0.468263 0.620368
O9    O     O_2   0.202907 0.244656 0.428136 -0.491322
O10   O     O_2   0.797140 0.757314 0.563376 -0.490728
O11   O     O_2   0.202905 0.755490 0.571783 -0.491314
O12   O     O_2   0.797143 0.242764 0.436611 -0.490732
N1    N     N_R   0.201672 0.500072 0.499965 -0.333338
N2    N     N_R   0.798353 0.500040 0.499992 -0.333482
C9    C     C_R   0.278066 0.548316 0.359309 0.426680
C10   C     C_R   0.721943 0.452197 0.640850 0.427187
C11   C     C_R   0.278060 0.451803 0.640662 0.426690
C12   C     C_R   0.721939 0.547861 0.359148 0.427174
C13   C     C_R   0.328134 0.546978 0.359188 -0.235732
C14   C     C_R   0.671876 0.453514 0.640970 -0.235911
C15   C     C_R   0.328128 0.453095 0.640796 -0.235725
C16   C     C_R   0.671872 0.546521 0.359030 -0.235912
C17   C     C_R   0.252990 0.500069 0.499981 0.108875
C18   C     C_R   0.747026 0.500034 0.499997 0.108125
C19   C     C_R   0.101839 0.500073 0.499931 -0.046106
C20   C     C_R   0.898196 0.500053 0.499961 -0.046698
C21   C     C_R   0.127468 0.367626 0.464003 -0.035426
C22   C     C_R   0.872568 0.633435 0.531364 -0.034948
C23   C     C_R   0.127467 0.632522 0.535866 -0.035435
C24   C     C_R   0.872569 0.366664 0.468577 -0.034947
C25   C     C_R   0.102517 0.235843 0.428765 -0.113119
C26   C     C_R   0.897519 0.766283 0.561275 -0.112057
C27   C     C_R   0.102515 0.764309 0.571070 -0.113119
C28   C     C_R   0.897522 0.233821 0.438657 -0.112056
C29   C     C_R   0.353330 0.500023 0.499994 -0.175948
C30   C     C_R   0.646675 0.500011 0.500001 -0.176073
C31   C     C_R   0.974478 0.364310 0.467545 0.049188
C32   C     C_R   0.025562 0.635395 0.534452 0.048690
C33   C     C_R   0.974476 0.635817 0.532328 0.049188
C34   C     C_R   0.025564 0.364744 0.465394 0.048690
C35   C     C_R   0.949285 0.500060 0.499943 0.080287
C36   C     C_R   0.050754 0.500071 0.499925 0.080701
C37   C     C_R   0.947404 0.232179 0.438542 -0.209351
C38   C     C_R   0.052635 0.766110 0.570527 -0.211098
C39   C     C_R   0.947401 0.767938 0.561361 -0.209355
C40   C     C_R   0.052637 0.234039 0.429289 -0.211106
C41   C     C_1   0.500000 0.065240 0.500122 -0.166765
C42   C     C_1   0.500000 0.934760 0.499878 -0.166764
N3    N     N_1   0.500000 0.500000 0.073640 -0.025707
N4    N     N_1   0.500000 0.500000 0.926360 -0.025706
H1    H     H_    0.347256 0.415663 0.749903 0.204056
H2    H     H_    0.652739 0.583574 0.249782 0.204103
H3    H     H_    0.347268 0.584393 0.250085 0.204056
H4    H     H_    0.652745 0.416454 0.750219 0.204103
Cl1   Cl    Cl    0.247261 0.388823 0.817339 -0.477270
Cl2   Cl    Cl    0.752706 0.610254 0.182170 -0.476867
Cl3   Cl    Cl    0.247277 0.611322 0.182623 -0.477272
Cl4   Cl    Cl    0.752715 0.389816 0.817824 -0.476861
H5    H     H_    0.121482 0.132712 0.400417 0.197122
H6    H     H_    0.878549 0.870388 0.584689 0.194764
H7    H     H_    0.121479 0.867445 0.599404 0.197121
H8    H     H_    0.878553 0.129710 0.415264 0.194759
H9    H     H_    0.963335 0.124250 0.415747 0.136322
H10   H     H_    0.036711 0.872669 0.600410 0.140013
H11   H     H_    0.963330 0.875868 0.584167 0.136327
H12   H     H_    0.036714 0.127487 0.399364 0.140023

loop_
_geom_bond_atom_site_label_1
_geom_bond_atom_site_label_2
_geom_bond_distance
_ccdc_geom_bond_type
O5    Zn1   2.012445 S    
C13   H3    1.083535 S    
C5    O9    1.350249 S    
C40   H12   1.075332 S    
C14   H4    1.083513 S    
C15   H1    1.083537 S    
C19   C23   1.408839 A    
C9    Cl3   1.758781 S    
O3    C2    1.260564 A    
Zn1   N4    1.973969 S    
C11   C17   1.402656 A    
C32   C38   1.417029 A    
Zn2   N3    1.973969 S    
C7    N1    1.364405 A    
O1    C1    1.261129 A    
C19   C21   1.408835 A    
C22   C26   1.393072 A    
C26   H6    1.083677 S    
O7    Zn1   2.012449 S    
C7    C23   1.398317 A    
C2    C42   1.361379 S    
C5    C21   1.398319 A    
C20   C24   1.408693 A    
C8    C24   1.398340 A    
C38   H10   1.075325 S    
C28   C37   1.384883 A    
C10   C18   1.402809 A    
N1    C17   1.424671 S    
N2    C18   1.424938 S    
C34   C36   1.422100 A    
O3    Zn1   1.947825 S    
O6    C4    1.278916 A    
C31   C37   1.416730 A    
C39   H11   1.074767 S    
C5    N1    1.364407 A    
C12   C18   1.402808 A    
N3    N4    1.193554 T    
C6    N2    1.364489 A    
C21   C25   1.393263 A    
O2    C2    1.261129 A    
O5    C3    1.278873 A    
C31   C34   1.418346 A    
C9    C13   1.390015 A    
C11   C15   1.390020 A    
C12   C16   1.389993 A    
C27   H7    1.084005 S    
C4    C30   1.457408 S    
O8    Zn2   2.012452 S    
C31   C35   1.422028 A    
C33   C35   1.422027 A    
C33   C39   1.416730 A    
C7    O11   1.350253 S    
C13   C29   1.401707 A    
C12   Cl2   1.758683 S    
C25   C40   1.384855 A    
C11   Cl1   1.758781 S    
C26   C39   1.384878 A    
C27   C38   1.384855 A    
C32   C36   1.422103 A    
C6    O10   1.350144 S    
C20   C35   1.418319 A    
C32   C33   1.418345 A    
C10   C14   1.390000 A    
C8    N2    1.364488 A    
C3    C29   1.457366 S    
O1    Zn1   1.949051 S    
C25   H5    1.084004 S    
O6    Zn2   2.012442 S    
C8    O12   1.350145 S    
C16   C30   1.401652 A    
C14   C30   1.401651 A    
C37   H9    1.074768 S    
O4    C1    1.260564 A    
C23   C27   1.393262 A    
C1    C41   1.361379 S    
C10   Cl4   1.758685 S    
C20   C22   1.408693 A    
C16   H2    1.083513 S    
C41   C42   1.162603 T    
C28   H8    1.083675 S    
O4    Zn2   1.947826 S    
O2    Zn2   1.949050 S    
O7    C4    1.278917 A    
C34   C40   1.417027 A    
O8    C3    1.278869 A    
C24   C28   1.393070 A    
C15   C29   1.401705 A    
C6    C22   1.398339 A    
C19   C36   1.418225 A    
C9    C17   1.402652 A    
