data_mof_unit_2003.cif
_audit_creation_date              2012-12-11T15:57:33-0500
_audit_creation_method            fapswitch 2.2
_symmetry_space_group_name_H-M    P1
_symmetry_Int_Tables_number       1
_space_group_crystal_system       triclinic
_cell_length_a                    10.690032
_cell_length_b                    10.749154
_cell_length_c                    16.986679
_cell_angle_alpha                 99.580322
_cell_angle_beta                  99.314541
_cell_angle_gamma                 61.725474
_cell_volume                      1687.29360816

loop_
_atom_site_label
_atom_site_type_symbol
_atom_type_description
_atom_site_fract_x
_atom_site_fract_y
_atom_site_fract_z
_atom_type_partial_charge
C1    C     C_R   0.355942 0.774536 0.401126 0.555134
C2    C     C_2   0.314887 0.308624 0.810542 -0.095890
C3    C     C_2   0.356067 0.193394 0.756063 -0.143785
C4    C     C_R   0.369625 0.346222 0.357322 0.531306
C5    C     C_2   0.378987 0.198171 0.675214 -0.153736
C6    C     C_1   0.817017 0.342237 0.708745 -0.032965
C7    C     C_1   0.843947 0.313455 0.776385 -0.029397
C8    C     C_1   0.358502 0.763305 0.713546 -0.044246
C9    C     C_1   0.326088 0.810747 0.780530 -0.047122
C10   C     C_R   0.887818 0.310429 0.083882 0.552649
C11   C     C_R   0.318844 0.299585 0.119725 0.549428
C12   C     C_2   0.791088 0.349169 0.144960 -0.100154
C13   C     C_R   0.294913 0.889257 0.083035 0.559988
C14   C     C_R   0.885527 0.296861 0.858638 0.546145
C15   C     C_R   0.304578 0.288107 0.890413 0.547038
C16   C     C_R   0.712303 0.412556 0.392459 0.559231
C17   C     C_R   0.280662 0.880686 0.857258 0.541887
C18   C     C_R   0.381171 0.713710 0.631336 0.559926
C19   C     C_R   0.364882 0.345386 0.579205 0.546781
C20   C     C_R   0.772943 0.381248 0.629702 0.553714
C21   C     C_1   0.342928 0.335739 0.273976 -0.059349
C22   C     C_1   0.331180 0.326307 0.203056 -0.043788
C23   C     C_2   0.771463 0.254786 0.177852 0.112454
C24   C     C_2   0.756849 0.380063 0.312620 -0.150183
C25   C     C_3   0.825743 0.006457 0.187050 -0.287164
C26   C     C_3   0.660617 0.760064 0.145830 -0.274842
C27   C     C_3   0.176001 0.087782 0.301909 -0.286764
C28   C     C_2   0.716311 0.298428 0.257147 -0.154513
C29   C     C_2   0.337836 0.845997 0.331136 0.116586
C30   C     C_2   0.347184 0.814932 0.154768 -0.057349
C31   C     C_2   0.447721 0.828540 0.209295 0.103859
C32   C     C_2   0.454819 0.801589 0.291832 -0.121415
C33   C     C_2   0.304135 0.316579 0.639461 -0.109154
Cr1   Cr    Cr6+3 0.608020 0.610770 0.522990 1.020216
Cr2   Cr    Cr6+3 0.289390 0.599570 0.488050 1.022372
Cr3   Cr    Cr6+3 0.602610 0.289690 0.489020 1.017806
Cr4   Cr    Cr6+3 0.053780 0.052210 0.965970 1.036834
Cr5   Cr    Cr6+3 0.060060 0.372530 0.992430 1.020042
Cr6   Cr    Cr6+3 0.372600 0.061970 0.991430 1.024639
H1    H     H_    0.283617 0.414555 0.795805 0.092031
H2    H     H_    0.718090 0.025220 0.197446 0.145250
H3    H     H_    0.889281 0.008369 0.245339 0.161765
H4    H     H_    0.470084 0.108226 0.649355 0.164754
H5    H     H_    0.746922 0.459042 0.170904 0.065085
H6    H     H_    0.582025 0.921737 0.237578 0.244282
H7    H     H_    0.711430 0.808113 0.117496 0.138017
H8    H     H_    0.620303 0.701230 0.097252 0.156589
H9    H     H_    0.742064 0.685034 0.187435 0.125407
H10   H     H_    0.116649 0.940194 0.323246 0.262248
H11   H     H_    0.067399 0.153575 0.273712 0.160895
H12   H     H_    0.207988 0.402595 0.663103 0.116322
H13   H     H_    0.254174 0.091447 0.267785 0.170093
H14   H     H_    0.185736 0.133846 0.364837 0.146370
H15   H     H_    0.651453 0.254502 0.272288 0.154917
H16   H     H_    0.825465 0.421673 0.299741 0.102820
H17   H     H_    0.560727 0.733488 0.318444 0.119495
H18   H     H_    0.283355 0.770141 0.170586 0.109737
H19   H     H_    0.386813 0.088797 0.773072 0.163773
H20   H     H_    0.769169 0.106855 0.082005 0.262641
H21   H     H_    0.881664 0.899846 0.154005 0.139236
N1    N     N_2   0.813443 0.113106 0.140261 -0.466780
N2    N     N_2   0.545744 0.870816 0.189631 -0.481474
N3    N     N_2   0.198404 0.943599 0.300309 -0.530308
O1    O     O_R   0.749250 0.499990 0.439200 -0.511179
O2    O     O_R   0.411120 0.181190 0.091480 -0.503652
O3    O     O_R   0.364220 0.944920 0.062310 -0.461500
O4    O     O_R   0.477870 0.725740 0.440280 -0.523511
O5    O     O_R   0.158740 0.906940 0.874970 -0.503803
O6    O     O_R   0.930920 0.176940 0.885610 -0.496036
O7    O     O_R   0.910730 0.394510 0.895320 -0.513105
O8    O     O_R   0.185840 0.361180 0.920280 -0.491941
O9    O     O_R   0.399210 0.173040 0.915160 -0.516658
O10   O     O_R   0.353170 0.937370 0.898860 -0.507745
O11   O     O_3   0.162150 0.162240 0.983280 -0.255536
O12   O     O_R   0.299400 0.468710 0.556310 -0.510679
O13   O     O_R   0.260770 0.742210 0.412610 -0.510320
O14   O     O_R   0.297990 0.466320 0.394220 -0.494966
O15   O     O_R   0.487720 0.253870 0.385870 -0.529322
O16   O     O_R   0.721940 0.304340 0.422320 -0.487279
O17   O     O_R   0.750770 0.502570 0.614050 -0.506789
O18   O     O_R   0.479280 0.728140 0.602370 -0.490832
O19   O     O_R   0.262290 0.744790 0.587460 -0.496826
O20   O     O_R   0.489240 0.256450 0.560730 -0.507770
O21   O     O_R   0.723350 0.306730 0.584410 -0.489538
O22   O     O_3   0.500010 0.500010 0.500020 -0.291145
O23   O     O_R   0.170650 0.915100 0.051290 -0.510761
O24   O     O_R   0.941960 0.184500 0.049060 -0.471082
O25   O     O_R   0.922640 0.402670 0.071640 -0.529916
O26   O     O_R   0.196880 0.368740 0.083740 -0.497492

loop_
_geom_bond_atom_site_label_1
_geom_bond_atom_site_label_2
_ccdc_geom_bond_type
Cr4   O11   S    
Cr5   O7    S    
H10   N3    S    
Cr4   O6    S    
C14   O7    A    
Cr6   O3    S    
C29   N3    S    
C24   H16   S    
C15   O9    A    
Cr5   O26   S    
Cr2   O12   S    
C29   C32   D    
C30   C31   D    
Cr3   O20   S    
C30   H18   S    
H6    N2    S    
C18   O18   A    
Cr6   O11   S    
Cr1   O17   S    
C7    C14   S    
C8    C9    T    
C5    C33   D    
C13   O23   A    
Cr6   O9    S    
Cr1   O18   S    
C27   H11   S    
C26   H9    S    
C5    H4    S    
C16   C24   S    
C21   C22   T    
C17   O10   A    
Cr6   O2    S    
C31   N2    S    
C19   O20   A    
Cr1   O1    S    
Cr2   O19   S    
C13   O3    A    
C10   O24   A    
Cr2   O13   S    
H20   N1    S    
C20   O17   A    
Cr4   O23   S    
Cr4   O5    S    
C19   C33   S    
C25   H2    S    
C28   H15   S    
Cr2   O14   S    
C8    C18   S    
Cr5   O25   S    
Cr1   O22   S    
Cr1   O4    S    
C4    O15   A    
C11   O26   A    
C31   C32   S    
C12   C23   D    
C10   O25   A    
C1    C29   S    
C25   N1    S    
C23   C28   S    
C2    C15   S    
C10   C12   S    
C26   H8    S    
C9    C17   S    
C25   H21   S    
C20   O21   A    
C14   O6    A    
C15   O8    A    
C27   H13   S    
Cr5   O11   S    
Cr5   O8    S    
C17   O5    A    
C1    O13   A    
Cr4   O24   S    
C24   C28   D    
C3    C5    S    
Cr3   O16   S    
C25   H3    S    
C27   H14   S    
C6    C7    T    
C1    O4    A    
Cr3   O22   S    
C33   H12   S    
C6    C20   S    
C11   C22   S    
C16   O16   A    
C19   O12   A    
C2    C3    D    
C26   N2    S    
C4    O14   A    
C12   H5    S    
Cr3   O15   S    
C4    C21   S    
Cr2   O22   S    
Cr3   O21   S    
C18   O19   A    
Cr6   O10   S    
C26   H7    S    
C3    H19   S    
C2    H1    S    
C23   N1    S    
C13   C30   S    
C27   N3    S    
C16   O1    A    
C32   H17   S    
C11   O2    A    
