data_mof_unit_2916.cif
_audit_creation_date              2012-12-11T14:56:49-0500
_audit_creation_method            fapswitch 2.2
_symmetry_space_group_name_H-M    P1
_symmetry_Int_Tables_number       1
_space_group_crystal_system       triclinic
_cell_length_a                    10.523971
_cell_length_b                    10.688929
_cell_length_c                    17.057955
_cell_angle_alpha                 80.336832
_cell_angle_beta                  89.641134
_cell_angle_gamma                 119.221191
_cell_volume                      1642.19914676

loop_
_atom_site_label
_atom_site_type_symbol
_atom_type_description
_atom_site_fract_x
_atom_site_fract_y
_atom_site_fract_z
_atom_type_partial_charge
Br1   Br    Br    0.972972 0.502268 0.115934 -0.500746
Br2   Br    Br    0.549373 0.536014 0.885639 -0.545045
C1    C     C_R   0.278748 0.888683 0.132637 0.580208
C2    C     C_1   0.683828 0.400370 0.709667 -0.043516
C3    C     C_R   0.628723 0.711520 0.805190 0.136011
C4    C     C_R   0.636935 0.282423 0.085464 0.592613
C5    C     C_R   0.613883 0.697350 0.726643 -0.109487
C6    C     C_R   0.669429 0.821618 0.665640 -0.001009
C7    C     C_R   0.746692 0.961351 0.683102 -0.155920
C8    C     C_R   0.757793 0.976562 0.762153 -0.175042
C9    C     C_R   0.692229 0.851622 0.823451 0.034752
C10   C     C_R   0.082211 0.882809 0.790694 -0.123096
C11   C     C_R   0.065573 0.879323 0.711156 -0.124586
C12   C     C_R   0.799989 0.428028 0.261931 -0.118158
C13   C     C_R   0.113648 0.801665 0.672246 0.029177
C14   C     C_R   0.165520 0.715943 0.715209 -0.137763
C15   C     C_R   0.183826 0.720631 0.795191 -0.119430
C16   C     C_R   0.643498 0.855703 0.124189 0.543268
C17   C     C_R   0.149842 0.811126 0.831559 0.036903
C18   C     C_R   0.711515 0.772679 0.353468 0.560604
C19   C     C_R   0.689447 0.396549 0.394380 0.555477
C20   C     C_R   0.108240 0.812533 0.359936 0.545541
C21   C     C_R   0.677236 0.800157 0.585425 0.545697
C22   C     C_R   0.717070 0.445848 0.625962 0.557318
C23   C     C_R   0.791772 0.419860 0.182338 0.107425
C24   C     C_R   0.089322 0.798358 0.589572 0.544196
C25   C     C_R   0.216318 0.858073 0.902517 0.573257
C26   C     C_R   0.639634 0.288298 0.861338 0.597969
C27   C     C_R   0.648282 0.866534 0.899885 0.573162
C28   C     C_R   0.527014 0.317937 0.203158 0.208700
C29   C     C_R   0.537242 0.325986 0.283397 -0.123204
C30   C     C_R   0.672435 0.373732 0.313481 -0.049461
C31   C     C_3   0.375419 0.382917 0.137642 0.012937
C32   C     C_3   0.231401 0.325841 0.100395 -0.306734
C33   C     C_R   0.653510 0.351031 0.154272 0.030352
C34   C     C_1   0.685222 0.831513 0.201596 -0.031023
C35   C     C_1   0.703812 0.807370 0.270305 -0.032910
C36   C     C_1   0.227622 0.854117 0.215399 0.001334
C37   C     C_1   0.178948 0.834646 0.283054 -0.021820
C38   C     C_1   0.661345 0.355379 0.780048 -0.002725
Cr1   Cr    Cr6+3 0.402240 0.783890 0.019450 1.053759
Cr2   Cr    Cr6+3 0.382360 0.097900 0.991800 1.071679
Cr3   Cr    Cr6+3 0.715380 0.118170 0.988700 1.050631
Cr4   Cr    Cr6+3 0.936650 0.882420 0.465510 1.031727
Cr5   Cr    Cr6+3 0.605770 0.565620 0.493360 1.026536
Cr6   Cr    Cr6+3 0.921340 0.550490 0.496380 1.021233
H1    H     H_    0.016617 0.939349 0.679871 0.149649
H2    H     H_    0.465560 0.454954 0.088973 0.168312
H3    H     H_    0.374611 0.448465 0.181812 0.148119
H4    H     H_    0.138348 0.256408 0.147418 0.173358
H5    H     H_    0.219318 0.419130 0.069760 0.143988
H6    H     H_    0.229402 0.260187 0.055886 0.172232
H7    H     H_    0.196616 0.650535 0.686407 0.134538
H8    H     H_    0.234954 0.662767 0.826425 0.158744
H9    H     H_    0.439883 0.294114 0.321999 0.154583
H10   H     H_    0.907345 0.479069 0.283165 0.176358
H11   H     H_    0.561993 0.588556 0.713300 0.156228
H12   H     H_    0.796549 0.057670 0.635823 0.145896
H13   H     H_    0.807624 0.085618 0.775116 0.151569
H14   H     H_    0.052193 0.950088 0.818433 0.139994
O1    O     O_R   0.521780 0.757110 0.108900 -0.535339
O2    O     O_R   0.805020 0.410040 0.421340 -0.509659
O3    O     O_R   0.049240 0.685450 0.403290 -0.503303
O4    O     O_R   0.275160 0.783810 0.101120 -0.454803
O5    O     O_R   0.077520 0.903010 0.551800 -0.518293
O6    O     O_R   0.802980 0.872780 0.546830 -0.502397
O7    O     O_R   0.578090 0.681300 0.569920 -0.521269
O8    O     O_R   0.608530 0.436370 0.586530 -0.490165
O9    O     O_R   0.798770 0.401880 0.597100 -0.504942
O10   O     O_R   0.043450 0.677890 0.566230 -0.515162
O11   O     O_3   0.821250 0.666180 0.485090 -0.301536
O12   O     O_R   0.513330 0.228330 0.898660 -0.463442
O13   O     O_R   0.237900 0.972600 0.090980 -0.481086
O14   O     O_R   0.511190 0.220540 0.061620 -0.472466
O15   O     O_R   0.736920 0.257720 0.063840 -0.470081
O16   O     O_R   0.710450 0.984050 0.081720 -0.491030
O17   O     O_R   0.524090 0.765520 0.933110 -0.473371
O18   O     O_R   0.277300 0.791600 0.938160 -0.486559
O19   O     O_R   0.240210 0.981010 0.915190 -0.515282
O20   O     O_3   0.390321 0.263535 0.175733 -0.543778
O21   O     O_R   0.739230 0.266130 0.888050 -0.512464
O22   O     O_R   0.712580 0.991850 0.918770 -0.517906
O23   O     O_3   0.499990 0.999980 0.999980 -0.297255
O24   O     O_R   0.083770 0.911170 0.376030 -0.499034
O25   O     O_R   0.808770 0.880340 0.383890 -0.480876
O26   O     O_R   0.584340 0.689460 0.394160 -0.502116
O27   O     O_R   0.614320 0.443940 0.423590 -0.510750

loop_
_geom_bond_atom_site_label_1
_geom_bond_atom_site_label_2
_ccdc_geom_bond_type
C12   H10   S    
C19   O27   A    
Cr5   O11   S    
Cr3   O23   S    
Cr4   O6    S    
Cr1   O1    S    
C25   O18   A    
C5    C6    A    
C1    O4    A    
C32   H5    S    
C28   C33   A    
Cr6   O2    S    
C21   O6    A    
C34   C35   T    
Cr5   O27   S    
C3    C9    A    
C25   O19   A    
Cr1   O17   S    
C28   C29   A    
C2    C22   S    
C26   C38   S    
C31   H3    S    
C13   C14   A    
Cr1   O23   S    
C6    C21   S    
C4    C33   S    
Cr4   O11   S    
C7    H12   S    
C21   O7    A    
C14   H7    S    
Cr6   O9    S    
C20   O3    A    
C2    C38   T    
C1    C36   S    
C14   C15   A    
C18   O26   A    
Cr5   O7    S    
C17   C25   S    
C7    C8    A    
C28   O20   S    
Cr2   O19   S    
Br1   C23   S    
Cr4   O5    S    
C26   O12   A    
C22   O9    A    
C4    O14   A    
Cr3   O15   S    
C19   C30   S    
C32   H4    S    
Cr2   O14   S    
C4    O15   A    
Cr1   O18   S    
C3    C5    A    
C6    C7    A    
C13   C24   S    
C20   O24   A    
C29   C30   A    
C18   O25   A    
Cr5   O8    S    
Cr2   O12   S    
C31   C32   S    
C19   O2    A    
C16   O1    A    
Cr6   O11   S    
C23   C33   A    
C11   C13   A    
Cr3   O21   S    
Br2   C3    S    
Cr4   O25   S    
C11   H1    S    
Cr3   O16   S    
C31   H2    S    
Cr2   O13   S    
C16   O16   A    
C26   O21   A    
C24   O5    A    
Cr2   O23   S    
C12   C30   A    
Cr4   O24   S    
C31   O20   S    
C32   H6    S    
Cr6   O3    S    
C8    H13   S    
C27   O22   A    
C18   C35   S    
C36   C37   T    
C24   O10   A    
C20   C37   S    
C10   C17   A    
C15   C17   A    
Cr5   O26   S    
C12   C23   A    
C1    O13   A    
Cr6   O10   S    
C8    C9    A    
C22   O8    A    
C10   H14   S    
C27   O17   A    
C10   C11   A    
C9    C27   S    
Cr3   O22   S    
Cr1   O4    S    
C29   H9    S    
C16   C34   S    
C15   H8    S    
C5    H11   S    
