data_mof_unit_4785.cif
_audit_creation_date              2012-12-10T17:17:24-0500
_audit_creation_method            fapswitch 2.2
_symmetry_space_group_name_H-M    P1
_symmetry_Int_Tables_number       1
_space_group_crystal_system       triclinic
_cell_length_a                    10.182102
_cell_length_b                    10.833265
_cell_length_c                    12.377032
_cell_angle_alpha                 90.613907
_cell_angle_beta                  109.174221
_cell_angle_gamma                 95.991505
_cell_volume                      1280.9987403

loop_
_atom_site_label
_atom_site_type_symbol
_atom_type_description
_atom_site_fract_x
_atom_site_fract_y
_atom_site_fract_z
_atom_type_partial_charge
C1    C     C_R   0.050198 0.732224 0.489690 0.933495
C2    C     C_R   0.425813 0.463284 0.974779 -0.061718
C3    C     C_R   0.354314 0.526207 0.877315 0.054796
C4    C     C_R   0.573743 0.482255 0.012809 0.123768
C5    C     C_R   0.646354 0.537967 0.942158 0.176181
C6    C     C_R   0.572951 0.594800 0.844202 -0.235149
C7    C     C_R   0.430374 0.597782 0.817856 -0.156612
C8    C     C_R   0.650446 0.465858 0.125754 -0.146080
C9    C     C_R   0.867871 0.520639 0.088738 -0.189231
C10   C     C_R   0.207209 0.510445 0.836235 -0.107445
C11   C     C_2   0.073319 0.863478 0.474376 -0.359886
C12   C     C_R   0.135341 0.515245 0.713663 0.878833
C13   C     C_2   0.969660 0.931675 0.468738 -0.137092
C14   C     C_2   0.910247 0.134584 0.497538 -0.360685
C15   C     C_2   0.991946 0.063757 0.465573 -0.134290
C16   C     C_2   0.432377 0.511890 0.508758 -0.115369
C17   C     C_2   0.567682 0.488029 0.491299 -0.108842
C18   C     C_R   0.946380 0.267379 0.504459 0.961590
C19   C     C_R   0.866044 0.488100 0.286527 0.880947
C20   C     C_R   0.792917 0.548713 0.977598 -0.197252
C21   C     C_R   0.795421 0.486811 0.164421 -0.074682
C22   C     C_R   0.132682 0.455902 0.903602 -0.275446
C23   C     C_R   0.201716 0.393407 0.999182 -0.202392
C24   C     C_R   0.345154 0.384555 0.028103 0.434504
H1    H     H_    0.981126 0.536607 0.118180 0.167359
H2    H     H_    0.869510 0.891155 0.473681 0.191596
H3    H     H_    0.820371 0.094849 0.519639 0.159686
H4    H     H_    0.173258 0.904428 0.469530 0.160944
H5    H     H_    0.566150 0.413584 0.431521 0.206691
H6    H     H_    0.434118 0.586483 0.568518 0.156379
H7    H     H_    0.683816 0.623548 0.601116 0.156372
H8    H     H_    0.316144 0.376425 0.398870 0.203483
H9    H     H_    0.627064 0.645137 0.793090 0.132798
H10   H     H_    0.849114 0.587138 0.922672 0.144123
H11   H     H_    0.597052 0.447439 0.186960 0.197271
H12   H     H_    0.019325 0.446205 0.873964 0.184254
H13   H     H_    0.139875 0.338970 0.042001 0.193905
H14   H     H_    0.379160 0.654462 0.748366 0.147273
H15   H     H_    0.082113 0.103070 0.443508 0.198059
N1    N     N_2   0.313640 0.446500 0.454900 -0.188633
N2    N     N_2   0.686360 0.553430 0.545150 -0.198974
O1    O     O_R   0.936910 0.692950 0.509080 -0.610262
O2    O     O_R   0.138320 0.658600 0.480130 -0.616019
O3    O     O_R   0.002900 0.525670 0.675280 -0.611919
O4    O     O_R   0.204310 0.491320 0.646330 -0.602499
O5    O     O_R   0.861680 0.341400 0.519870 -0.600897
O6    O     O_R   0.063090 0.307050 0.490920 -0.605709
O7    O     O_R   0.795690 0.508680 0.353670 -0.611634
O8    O     O_R   0.997100 0.474330 0.324720 -0.610576
Zn1   Zn    Zn3+2 0.865520 0.522940 0.519330 0.955501
Zn2   Zn    Zn3+2 0.134480 0.477060 0.480670 0.962123
S1    S     S_3+6 0.404730 0.252438 0.105806 -0.013523
O9    O     O_2   0.440253 0.281846 0.231784 -0.384046
O10   O     O_2   0.289703 0.146121 0.070538 -0.276890
O11   O     O_3   0.545281 0.208650 0.079117 -0.552610
H16   H     H_    0.581752 0.147258 0.137043 0.384428

loop_
_geom_bond_atom_site_label_1
_geom_bond_atom_site_label_2
_ccdc_geom_bond_type
N2    Zn1   S    
C24   S1    S    
C2    C4    A    
C23   C24   A    
S1    O11   S    
C6    C7    A    
C14   H3    S    
N1    Zn2   S    
C17   H5    S    
O5    Zn1   S    
C9    C20   A    
C1    C11   S    
C6    H9    S    
C4    C8    A    
C20   H10   S    
C18   O6    A    
O11   H16   S    
O7    Zn1   S    
C2    C3    A    
C9    H1    S    
C12   O3    A    
C3    C10   A    
C10   C22   A    
C11   C13   D    
C15   H15   S    
C16   C17   S    
C10   C12   S    
C11   H4    S    
O1    Zn1   S    
C18   O5    A    
C19   C21   S    
C7    H14   S    
C16   N1    D    
C8    C21   A    
C3    C7    A    
H8    N1    S    
C13   C15   S    
C2    C24   A    
C5    C6    A    
C17   N2    D    
C13   H2    S    
O4    Zn2   S    
C16   H6    S    
C9    C21   A    
C1    O1    A    
C22   H12   S    
S1    O9    D    
O3    Zn1   S    
C5    C20   A    
C14   C18   S    
C14   C15   D    
C4    C5    A    
O6    Zn2   S    
H7    N2    S    
O2    Zn2   S    
C23   H13   S    
C19   O8    A    
C1    O2    A    
C22   C23   A    
S1    O10   D    
C12   O4    A    
O8    Zn2   S    
C8    H11   S    
C19   O7    A    
