data_mof_unit_1640.cif
_audit_creation_date              2012-12-10T18:43:41-0500
_audit_creation_method            fapswitch 2.2
_symmetry_space_group_name_H-M    P1
_symmetry_Int_Tables_number       1
_space_group_crystal_system       triclinic
_cell_length_a                    10.696346
_cell_length_b                    10.619168
_cell_length_c                    9.936115
_cell_angle_alpha                 90.435638
_cell_angle_beta                  104.12805
_cell_angle_gamma                 90.812619
_cell_volume                      1094.28778583

loop_
_atom_site_label
_atom_site_type_symbol
_atom_type_description
_atom_site_fract_x
_atom_site_fract_y
_atom_site_fract_z
_atom_type_partial_charge
C1    C     C_R   0.500813 0.260722 0.499601 1.001416
C2    C     C_R   0.499320 0.739295 0.500411 0.985920
C3    C     C_R   0.258267 0.503821 0.441606 0.796761
C4    C     C_R   0.741861 0.504098 0.558605 0.790814
C5    C     C_R   0.571993 0.586387 0.092568 0.173710
C6    C     C_R   0.428946 0.412017 0.910736 0.096560
C7    C     C_R   0.570738 0.587997 0.948932 0.066318
C8    C     C_R   0.427412 0.414208 0.053659 0.144183
C9    C     C_2   0.119562 0.522963 0.408471 0.254253
C10   C     C_2   0.881350 0.522527 0.592895 0.263588
C11   C     C_2   0.070159 0.568854 0.509759 -0.141676
C12   C     C_2   0.932899 0.569225 0.493726 -0.091333
C13   C     C_R   0.395729 0.065012 0.415255 0.401317
C14   C     C_R   0.604941 0.935000 0.584022 0.393789
C15   C     C_R   0.391229 0.934287 0.417738 0.268353
C16   C     C_R   0.609138 0.065760 0.582130 0.272774
C17   C     C_R   0.497184 0.871834 0.501490 -0.326698
C18   C     C_R   0.503137 0.128197 0.498425 -0.337646
H1    H     H_    0.873473 0.594436 0.392844 0.179201
H2    H     H_    0.130771 0.593108 0.611709 0.187225
N1    N     N_R   0.499970 0.499970 0.857200 -0.116526
N2    N     N_R   0.500030 0.500030 0.142800 -0.102927
O1    O     O_R   0.499990 0.316750 0.614620 -0.633154
O2    O     O_R   0.500010 0.683250 0.385380 -0.594695
O3    O     O_R   0.499990 0.316780 0.385290 -0.565542
O4    O     O_R   0.500010 0.683220 0.614710 -0.616812
O5    O     O_R   0.317810 0.500000 0.571850 -0.647162
O6    O     O_R   0.682190 0.500000 0.428150 -0.611781
O7    O     O_R   0.317810 0.500030 0.342520 -0.587706
O8    O     O_R   0.682190 0.499970 0.657480 -0.624407
Zn1   Zn    Zn3+2 0.500000 0.499980 0.653120 0.947441
Zn2   Zn    Zn3+2 0.500000 0.500020 0.346880 1.009107
N3    N     N_3   0.647539 0.677221 0.186192 -0.386922
H3    H     H_    0.743133 0.671147 0.178987 0.197965
H4    H     H_    0.614673 0.766894 0.153760 0.194106
N4    N     N_3   0.356854 0.313435 0.826143 -0.460835
H5    H     H_    0.420533 0.248531 0.802115 0.225439
H6    H     H_    0.296897 0.350133 0.737159 0.252441
O9    O     O_3   0.959104 0.490206 0.720506 -0.758242
H7    H     H_    0.904281 0.451655 0.776842 0.352752
O10   O     O_3   0.040286 0.492183 0.279792 -0.750615
H8    H     H_    0.093422 0.454107 0.221773 0.357575
N5    N     N_3   0.643382 0.685459 0.902952 -0.445815
H9    H     H_    0.700498 0.647127 0.842550 0.266020
H10   H     H_    0.579540 0.750560 0.847072 0.241572
N6    N     N_3   0.350119 0.325290 0.106410 -0.351343
H11   H     H_    0.379241 0.234605 0.087685 0.206890
H12   H     H_    0.254078 0.335153 0.051714 0.199086
O11   O     O_3   0.295479 0.134802 0.337465 -0.751516
H13   H     H_    0.227696 0.078394 0.281580 0.391063
O12   O     O_3   0.705783 0.865176 0.660586 -0.770478
H14   H     H_    0.774104 0.921563 0.715546 0.394832
O13   O     O_3   0.282759 0.871649 0.339745 -0.752923
H15   H     H_    0.278693 0.784379 0.372564 0.331956
O14   O     O_3   0.717434 0.128413 0.660503 -0.754382
H16   H     H_    0.721033 0.216089 0.628717 0.336707

loop_
_geom_bond_atom_site_label_1
_geom_bond_atom_site_label_2
_ccdc_geom_bond_type
C8    N2    A    
N5    H9    S    
O2    Zn2   S    
C15   C17   A    
C3    C9    S    
C7    N5    S    
N1    Zn1   S    
O10   H8    S    
C9    O10   S    
C14   O12   S    
C13   C15   A    
C11   C12   S    
O14   H16   S    
C3    O5    A    
N3    H3    S    
C16   O14   S    
O4    Zn1   S    
C2    O4    A    
C16   C18   A    
O13   H15   S    
C2    C17   S    
C1    O3    A    
N5    H10   S    
C14   C17   A    
C1    C18   S    
N2    Zn2   S    
C13   C18   A    
O3    Zn2   S    
C13   O11   S    
C10   C12   D    
C12   H1    S    
N4    H6    S    
N4    H5    S    
C4    O6    A    
C6    N4    S    
C1    O1    A    
O7    Zn2   S    
N6    H12   S    
C9    C11   D    
C2    O2    A    
O8    Zn1   S    
C14   C16   A    
C11   H2    S    
O5    Zn1   S    
O12   H14   S    
C15   O13   S    
O6    Zn2   S    
C3    O7    A    
O11   H13   S    
O9    H7    S    
C5    C7    A    
N6    H11   S    
C6    C8    A    
C8    N6    S    
N3    H4    S    
C7    N1    A    
C6    N1    A    
C4    C10   S    
C4    O8    A    
C5    N2    A    
O1    Zn1   S    
C10   O9    S    
C5    N3    S    
