data_mof_unit_4012.cif
_audit_creation_date              2013-03-05T15:43:17-0500
_audit_creation_method            fapswitch 2.2
_symmetry_space_group_name_H-M    P1
_symmetry_Int_Tables_number       1
_space_group_crystal_system       triclinic
_cell_length_a                    10.709771
_cell_length_b                    10.709293
_cell_length_c                    10.009753
_cell_angle_alpha                 88.752328
_cell_angle_beta                  89.891664
_cell_angle_gamma                 90.548555
_cell_volume                      1147.73204196

loop_
_atom_site_label
_atom_site_type_symbol
_atom_site_description
_atom_site_fract_x
_atom_site_fract_y
_atom_site_fract_z
_atom_type_partial_charge
O1    O     O_R   0.499980 0.319060 0.613040 -0.539300
O2    O     O_R   0.500020 0.319100 0.386900 -0.633789
C1    C     C_R   0.491716 0.262128 0.501572 0.854372
O3    O     O_R   0.316750 0.499980 0.613090 -0.600402
O4    O     O_R   0.316790 0.500020 0.386950 -0.605272
C2    C     C_R   0.260134 0.487922 0.500986 0.904317
Zn1   Zn    Zn3+2 0.499970 0.499970 0.650990 1.048499
Zn2   Zn    Zn3+2 0.500030 0.500030 0.349010 1.020977
O5    O     O_R   0.499980 0.680900 0.613100 -0.614283
O6    O     O_R   0.500020 0.680940 0.386960 -0.623969
O7    O     O_R   0.683210 0.499980 0.613050 -0.623682
O8    O     O_R   0.683250 0.500020 0.386910 -0.602341
C3    C     C_R   0.503561 0.737467 0.498322 0.918033
C4    C     C_R   0.740139 0.510344 0.500202 0.871551
H1    H     H_    0.111837 0.480663 0.287717 0.246568
C5    C     C_R   0.108186 0.426236 0.750432 0.173851
C6    C     C_R   0.053707 0.465927 0.871022 0.175477
C7    C     C_R   0.949605 0.545273 0.866305 0.231938
C8    C     C_R   0.891069 0.568529 0.743558 -0.258977
H2    H     H_    0.809985 0.627989 0.741351 0.214925
C9    C     C_R   0.940183 0.521072 0.624354 0.009019
C10   C     C_R   0.060060 0.472290 0.626631 -0.038997
C11   C     C_R   0.126350 0.472997 0.503897 -0.079431
C12   C     C_R   0.063394 0.483912 0.382372 -0.112233
H3    H     H_    0.888496 0.499366 0.286870 0.233308
C13   C     C_R   0.936882 0.500339 0.381716 -0.114364
C14   C     C_R   0.874225 0.518638 0.502013 -0.098480
C15   C     C_2   0.461235 0.933171 0.391809 -0.093251
C16   C     C_2   0.513416 0.869506 0.492837 -0.249456
H4    H     H_    0.419216 0.886746 0.307241 0.182490
H5    H     H_    0.561711 0.914612 0.574237 0.171282
C17   C     C_2   0.464556 0.067894 0.391424 -0.251538
C18   C     C_2   0.458952 0.131346 0.505649 0.146789
H6    H     H_    0.483757 0.114148 0.295804 0.190188
C19   C     C_2   0.452480 0.587673 0.923108 -0.014921
N1    N     N_2   0.501340 0.501330 0.852150 -0.165543
H7    H     H_    0.403393 0.662805 0.872051 0.166662
H8    H     H_    0.554765 0.434638 0.899148 0.194459
C20   C     C_2   0.461247 0.592174 0.072911 0.014874
N2    N     N_2   0.501380 0.501360 0.147810 -0.170396
H9    H     H_    0.427973 0.675574 0.120551 0.150588
H10   H     H_    0.524750 0.419107 0.103836 0.188362
N3    N     N_R   0.410662 0.075888 0.628536 0.239166
O9    O     O_R   0.461023 0.102313 0.742837 -0.328518
O10   O     O_R   0.312724 0.002950 0.626827 -0.310901
N4    N     N_R   0.194760 0.323987 0.751410 0.245365
O11   O     O_R   0.279002 0.311818 0.844051 -0.290545
O12   O     O_R   0.187966 0.240696 0.658966 -0.347536
N5    N     N_R   0.096747 0.418322 0.997265 0.256448
O13   O     O_R   0.202863 0.456867 0.044872 -0.375594
O14   O     O_R   0.022087 0.351207 0.072941 -0.365910
N6    N     N_R   0.900584 0.599085 0.985636 0.233681
O15   O     O_R   0.975782 0.633751 0.080088 -0.364807
O16   O     O_R   0.782909 0.627301 0.993782 -0.408748

loop_
_geom_bond_atom_site_label_1
_geom_bond_atom_site_label_2
_geom_bond_distance
_ccdc_geom_bond_type
O4    Zn2   1.998160 S    
C19   C20   1.504389 S    
C11   C12   1.395135 A    
C4    C14   1.438107 S    
Zn1   N1    2.014011 S    
C8    H2    1.081727 S    
O8    C4    1.294690 A    
Zn2   O8    1.999285 S    
C17   C18   1.344247 D    
N5    O14   1.301062 A    
C15   H4    1.087084 S    
C6    C7    1.408504 A    
C9    C14   1.415501 A    
C7    N6    1.438025 S    
C16   H5    1.085684 S    
H1    C12   1.080741 S    
C9    C10   1.390738 A    
Zn1   O7    1.998161 S    
N3    O10   1.302134 A    
C13   C14   1.395855 A    
C5    C6    1.415119 A    
O3    Zn1   1.999284 S    
C2    C11   1.440334 S    
N1    H8    1.026168 S    
C15   C16   1.333877 D    
C8    C9    1.409913 A    
C12   C13   1.367961 A    
O2    C1    1.290651 A    
N3    O9    1.301362 A    
O4    C2    1.295123 A    
O7    C4    1.284769 A    
N4    O12   1.300826 A    
O3    C2    1.284873 A    
C1    C18   1.440308 S    
C5    N4    1.441470 S    
C18   N3    1.446777 S    
C15   C17   1.442810 S    
N6    O15   1.301048 A    
C20   H9    1.084490 S    
N5    O13   1.300270 A    
N4    O11   1.300396 A    
C6    N5    1.431037 S    
C20   N2    1.292348 D    
Zn1   O5    1.966280 S    
O5    C3    1.287443 A    
C10   C11   1.417605 A    
C7    C8    1.399013 A    
C5    C10   1.423107 A    
Zn2   N2    2.013725 S    
C19   H7    1.084519 S    
H3    C13   1.082668 S    
O1    Zn1   1.982409 S    
Zn2   O6    1.982409 S    
O2    Zn2   1.966280 S    
C19   N1    1.292203 D    
C3    C16   1.416832 S    
N6    O16   1.301618 A    
N2    H10   1.026163 S    
O1    C1    1.285869 A    
O6    C3    1.280461 A    
C17   H6    1.086471 S    
