data_mof_unit_747.cif
_audit_creation_date              2012-12-11T14:17:49-0500
_audit_creation_method            fapswitch 2.2
_symmetry_space_group_name_H-M    P1
_symmetry_Int_Tables_number       1
_space_group_crystal_system       triclinic
_cell_length_a                    11.278568
_cell_length_b                    11.278661
_cell_length_c                    18.981858
_cell_angle_alpha                 89.972329
_cell_angle_beta                  90.027908
_cell_angle_gamma                 120.120549
_cell_volume                      2088.58404272

loop_
_atom_site_label
_atom_site_type_symbol
_atom_type_description
_atom_site_fract_x
_atom_site_fract_y
_atom_site_fract_z
_atom_type_partial_charge
Br1   Br    Br    0.418411 0.173946 0.830782 -0.326573
Br2   Br    Br    0.879847 0.240310 0.599629 -0.441016
Br3   Br    Br    0.367078 0.095362 0.587545 -0.442352
Br4   Br    Br    0.731949 0.614208 0.595515 -0.439184
Br5   Br    Br    0.826643 0.242991 0.831172 -0.331645
Br6   Br    Br    0.756529 0.583435 0.831037 -0.333270
Br7   Br    Br    0.058643 0.253786 0.152798 -0.409464
Br8   Br    Br    0.194596 0.942276 0.152174 -0.410879
Br9   Br    Br    0.747399 0.805487 0.152534 -0.412934
Br10  Br    Br    0.240385 0.880087 0.400439 -0.449860
Br11  Br    Br    0.095132 0.366877 0.412547 -0.452143
Br12  Br    Br    0.614447 0.731932 0.404574 -0.453167
C1    C     C_R   0.520901 0.458488 0.147274 0.586693
C2    C     C_R   0.981009 0.397654 0.540311 0.109512
C3    C     C_R   0.388662 0.963512 0.532818 0.100449
C4    C     C_R   0.585236 0.596211 0.536317 0.104588
C5    C     C_R   0.673085 0.890067 0.553492 -0.014734
C6    C     C_R   0.079801 0.764133 0.552186 -0.011638
C7    C     C_R   0.223214 0.322889 0.551233 -0.008342
C8    C     C_R   0.890111 0.673128 0.446508 -0.012044
C9    C     C_R   0.764165 0.079760 0.447814 -0.007655
C10   C     C_R   0.322875 0.223185 0.448769 -0.005121
C11   C     C_R   0.803998 0.945848 0.530127 -0.080677
C12   C     C_R   0.541513 0.062499 0.147268 0.580694
C13   C     C_R   0.036249 0.847406 0.525881 -0.088735
C14   C     C_R   0.145985 0.191763 0.527939 -0.080195
C15   C     C_R   0.945880 0.804015 0.469905 -0.076977
C16   C     C_R   0.847420 0.036217 0.474152 -0.084967
C17   C     C_R   0.191767 0.145963 0.472089 -0.076288
C18   C     C_R   0.541187 0.427082 0.361430 0.511226
C19   C     C_R   0.551759 0.075255 0.356520 0.561501
C20   C     C_R   0.879205 0.455531 0.360866 0.518672
C21   C     C_R   0.427121 0.541155 0.638573 0.522806
C22   C     C_R   0.075098 0.551672 0.643519 0.580066
C23   C     C_R   0.937518 0.479172 0.147286 0.585713
C24   C     C_R   0.455549 0.879248 0.639136 0.529991
C25   C     C_R   0.495623 0.976858 0.928575 0.032173
C26   C     C_R   0.023216 0.518575 0.928598 0.033266
C27   C     C_R   0.481379 0.504602 0.928606 0.031699
C28   C     C_R   0.002852 0.496804 0.077037 0.022777
C29   C     C_R   0.493648 0.997183 0.076994 0.023375
C30   C     C_R   0.503417 0.506306 0.077022 0.022628
C31   C     C_R   0.416284 0.027414 0.960624 -0.005407
C32   C     C_R   0.972986 0.388676 0.960855 -0.005236
C33   C     C_R   0.611431 0.584344 0.960772 -0.005151
C34   C     C_R   0.453155 0.521581 0.854384 0.613409
C35   C     C_R   0.985680 0.382767 0.035673 -0.003356
C36   C     C_R   0.397277 0.014756 0.035415 -0.002998
C37   C     C_R   0.617579 0.603129 0.035570 -0.003373
C38   C     C_R   0.573897 0.952225 0.043673 -0.141467
C39   C     C_R   0.047396 0.621940 0.043513 -0.142058
C40   C     C_R   0.378096 0.425705 0.043590 -0.141759
C41   C     C_R   0.064918 0.634194 0.971503 -0.157527
C42   C     C_R   0.568912 0.934797 0.971654 -0.158260
C43   C     C_R   0.365746 0.430875 0.971580 -0.158677
C44   C     C_R   0.353403 0.088082 0.921294 0.169888
C45   C     C_R   0.068493 0.546844 0.854372 0.608145
C46   C     C_R   0.912520 0.264718 0.921738 0.170307
C47   C     C_R   0.735312 0.647808 0.921579 0.170284
C48   C     C_R   0.977160 0.261975 0.064563 0.164869
C49   C     C_R   0.285086 0.023614 0.064050 0.164737
C50   C     C_R   0.738677 0.715539 0.064361 0.164654
C51   C     C_R   0.252448 0.106825 0.952367 -0.144509
C52   C     C_R   0.893941 0.145165 0.953082 -0.144429
C53   C     C_R   0.855117 0.748954 0.952824 -0.144571
C54   C     C_R   0.928876 0.144925 0.023072 -0.154523
C55   C     C_R   0.216829 0.072031 0.022327 -0.154776
C56   C     C_R   0.478466 0.931472 0.854376 0.612404
C57   C     C_R   0.855681 0.784289 0.022793 -0.154576
C58   C     C_R   0.469913 0.916644 0.564454 -0.005961
C59   C     C_R   0.026197 0.524739 0.571149 0.014944
C60   C     C_R   0.454825 0.520567 0.565474 0.001017
C61   C     C_R   0.916535 0.469864 0.435565 -0.006037
C62   C     C_R   0.524827 0.026360 0.428890 0.013641
C63   C     C_R   0.520633 0.454750 0.434549 0.000531
C64   C     C_R   0.585697 0.934561 0.527642 0.043091
C65   C     C_R   0.017698 0.626282 0.531967 0.046078
C66   C     C_R   0.358334 0.403854 0.528517 0.053896
C67   C     C_R   0.397763 0.981252 0.459741 0.107682
C68   C     C_R   0.934523 0.585684 0.472368 0.043016
C69   C     C_R   0.626330 0.017750 0.468049 0.046874
C70   C     C_R   0.403886 0.358285 0.471495 0.053989
C71   C     C_R   0.963289 0.388541 0.467231 0.099096
C72   C     C_R   0.596338 0.585134 0.463736 0.102876
Cr1   Cr    Cr6+3 0.768550 0.541320 0.250660 1.136800
Cr2   Cr    Cr6+3 0.458680 0.227230 0.250660 1.134955
Cr3   Cr    Cr6+3 0.772770 0.231450 0.250660 1.135680
Cr4   Cr    Cr6+3 0.541320 0.768550 0.749340 1.102114
Cr5   Cr    Cr6+3 0.227230 0.458680 0.749340 1.099558
Cr6   Cr    Cr6+3 0.231450 0.772770 0.749340 1.100524
H1    H     H_    0.644900 0.934490 0.073153 0.189601
H2    H     H_    0.916966 0.052049 0.045728 0.155991
H3    H     H_    0.135924 0.084189 0.044763 0.154779
H4    H     H_    0.948778 0.865363 0.045367 0.155795
H5    H     H_    0.645201 0.815510 0.593785 0.175469
H6    H     H_    0.163898 0.812923 0.587653 0.179036
H7    H     H_    0.175488 0.358528 0.587480 0.171144
H8    H     H_    0.815605 0.645306 0.406192 0.178798
H9    H     H_    0.812972 0.163796 0.412315 0.181692
H10   H     H_    0.358466 0.175466 0.412493 0.173808
H11   H     H_    0.869542 0.920155 0.558457 0.138280
H12   H     H_    0.064712 0.710731 0.072813 0.189550
H13   H     H_    0.075335 0.944579 0.550508 0.136016
H14   H     H_    0.051135 0.129274 0.554160 0.138593
H15   H     H_    0.920220 0.869578 0.441575 0.143724
H16   H     H_    0.944588 0.075271 0.449527 0.140350
H17   H     H_    0.129256 0.051126 0.445866 0.143359
H18   H     H_    0.289230 0.354235 0.072957 0.189333
H19   H     H_    0.111068 0.736382 0.949439 0.141921
H20   H     H_    0.624643 0.888423 0.949717 0.141394
H21   H     H_    0.263485 0.374861 0.949565 0.141405
H22   H     H_    0.200624 0.148405 0.921917 0.149913
H23   H     H_    0.852393 0.051425 0.922830 0.149876
H24   H     H_    0.948799 0.801169 0.922505 0.149679
O1    O     O_R   0.910960 0.572410 0.171010 -0.472390
O2    O     O_R   0.528530 0.639750 0.824400 -0.479353
O3    O     O_R   0.111220 0.471470 0.824400 -0.480557
O4    O     O_R   0.360250 0.888780 0.824400 -0.479344
O5    O     O_R   0.909330 0.572400 0.331540 -0.476616
O6    O     O_R   0.427600 0.336930 0.331540 -0.475617
O7    O     O_R   0.663070 0.090670 0.331540 -0.513144
O8    O     O_R   0.572400 0.909330 0.668460 -0.473264
O9    O     O_R   0.336930 0.427600 0.668460 -0.472710
O10   O     O_R   0.090670 0.663070 0.668460 -0.512639
O11   O     O_R   0.638240 0.528520 0.324410 -0.468585
O12   O     O_R   0.427590 0.338550 0.171010 -0.471418
O13   O     O_R   0.471480 0.109720 0.324410 -0.488060
O14   O     O_R   0.890280 0.361760 0.324410 -0.446902
O15   O     O_R   0.528520 0.638240 0.675590 -0.465590
O16   O     O_R   0.109720 0.471480 0.675590 -0.487029
O17   O     O_R   0.361760 0.890280 0.675590 -0.443466
O18   O     O_3   0.666667 0.333333 0.250630 -0.368762
O19   O     O_3   0.333333 0.666667 0.749370 -0.369290
O20   O     O_R   0.661450 0.089040 0.171010 -0.474123
O21   O     O_R   0.572410 0.910960 0.828990 -0.488616
O22   O     O_R   0.338550 0.427590 0.828990 -0.488562
O23   O     O_R   0.089040 0.661450 0.828990 -0.490770
O24   O     O_R   0.639750 0.528530 0.175600 -0.456783
O25   O     O_R   0.471470 0.111220 0.175600 -0.457758
O26   O     O_R   0.888780 0.360250 0.175600 -0.456532

loop_
_geom_bond_atom_site_label_1
_geom_bond_atom_site_label_2
_ccdc_geom_bond_type
C28   C35   A    
Cr4   O2    S    
C10   C17   A    
Cr2   O12   S    
C6    H6    S    
C2    C59   A    
Br7   C48   S    
Cr1   O11   S    
C4    C60   A    
C19   O13   A    
Cr3   O26   S    
C7    H7    S    
C39   H12   S    
Br12  C72   S    
C38   C42   A    
Br5   C46   S    
C10   C70   A    
Br1   C44   S    
Cr4   O19   S    
Cr1   O18   S    
C9    H9    S    
C63   C72   A    
C15   H15   S    
C41   H19   S    
C25   C56   S    
C4    C72   A    
C21   O9    A    
C42   H20   S    
C53   H24   S    
C51   H22   S    
Cr1   O5    S    
C7    C14   A    
C49   C55   A    
C1    C30   S    
C60   C66   A    
C21   C60   S    
C56   O4    A    
C35   C48   A    
Cr4   O15   S    
C29   C36   A    
C27   C43   A    
C16   H16   S    
C5    C64   A    
C23   O1    A    
C5    H5    S    
C38   H1    S    
C31   C36   A    
C32   C35   A    
Br8   C49   S    
C27   C33   A    
C14   H14   S    
C18   O11   A    
C48   C54   A    
Cr5   O22   S    
C12   C29   S    
Cr3   O20   S    
C6    C13   A    
C2    C71   A    
Cr3   O14   S    
C24   C58   S    
C12   O25   A    
C46   C52   A    
C51   C55   A    
C10   H10   S    
C8    C68   A    
Br9   C50   S    
Cr1   O1    S    
Cr5   O19   S    
C19   O7    A    
Cr4   O8    S    
C57   H4    S    
C24   O17   A    
C32   C46   A    
C20   C61   S    
Cr3   O7    S    
Cr6   O19   S    
C13   H13   S    
C19   C62   S    
C54   H2    S    
Cr5   O9    S    
Br11  C71   S    
Cr5   O16   S    
C50   C57   A    
C39   C41   A    
C52   C54   A    
Cr3   O18   S    
Br4   C4    S    
C7    C66   A    
C24   O8    A    
C26   C32   A    
C23   O26   A    
C26   C45   S    
C66   C70   A    
C33   C37   A    
C44   C51   A    
C45   O23   A    
C5    C11   A    
C11   C16   A    
C40   H18   S    
Cr2   O25   S    
C27   C34   S    
Cr6   O17   S    
C9    C16   A    
C9    C69   A    
C62   C67   A    
C58   C64   A    
C25   C31   A    
C1    O12   A    
C20   O5    A    
Cr6   O4    S    
C29   C38   A    
C59   C65   A    
Cr6   O23   S    
Br3   C3    S    
C45   O3    A    
C65   C68   A    
C21   O15   A    
C3    C58   A    
C33   C47   A    
C22   O10   A    
C52   H23   S    
C12   O20   A    
C43   H21   S    
Cr2   O13   S    
Cr6   O10   S    
Br6   C47   S    
C56   O21   A    
Cr4   O21   S    
Cr5   O3    S    
C64   C69   A    
Br10  C67   S    
C40   C43   A    
C63   C70   A    
C8    C15   A    
C3    C67   A    
C13   C15   A    
C28   C39   A    
C25   C42   A    
C34   O2    A    
C1    O24   A    
C20   O14   A    
C23   C28   S    
C47   C53   A    
C18   C63   S    
Cr2   O18   S    
C36   C49   A    
C11   H11   S    
C26   C41   A    
C18   O6    A    
C6    C65   A    
C53   C57   A    
Cr1   O24   S    
C61   C68   A    
Br2   C2    S    
C30   C37   A    
C34   O22   A    
C31   C44   A    
C8    H8    S    
C22   O16   A    
C14   C17   A    
C55   H3    S    
C17   H17   S    
C37   C50   A    
Cr2   O6    S    
C62   C69   A    
C22   C59   S    
C61   C71   A    
C30   C40   A    
