data_mof_unit_316.cif
_audit_creation_date              2012-12-11T17:36:11-0500
_audit_creation_method            fapswitch 2.2
_symmetry_space_group_name_H-M    P1
_symmetry_Int_Tables_number       1
_space_group_crystal_system       triclinic
_cell_length_a                    26.064426
_cell_length_b                    6.87766
_cell_length_c                    21.722779
_cell_angle_alpha                 89.998259
_cell_angle_beta                  95.813331
_cell_angle_gamma                 89.999485
_cell_volume                      3874.04789135

loop_
_atom_site_label
_atom_site_type_symbol
_atom_type_description
_atom_site_fract_x
_atom_site_fract_y
_atom_site_fract_z
_atom_type_partial_charge
O1    O     O_R   0.208650 0.594520 0.175450 -0.527671
O2    O     O_R   0.791350 0.405480 0.824550 -0.527697
O3    O     O_R   0.291350 0.094520 0.324550 -0.527663
O4    O     O_R   0.708650 0.905480 0.675450 -0.527688
O5    O     O_R   0.192980 0.260780 0.300160 -0.513560
O6    O     O_R   0.807020 0.739220 0.699840 -0.513564
O7    O     O_R   0.307020 0.760780 0.199840 -0.513563
O8    O     O_R   0.692980 0.239220 0.800160 -0.513565
C1    C     C_R   0.179054 0.432748 0.319005 0.796161
C2    C     C_R   0.820950 0.567253 0.681000 0.796244
C3    C     C_R   0.320947 0.932750 0.180996 0.796142
C4    C     C_R   0.679050 0.067251 0.818999 0.796237
O9    O     O_R   0.202550 0.264660 0.174420 -0.535267
O10   O     O_R   0.797450 0.735340 0.825580 -0.535199
O11   O     O_R   0.297450 0.764660 0.325580 -0.535269
O12   O     O_R   0.702550 0.235340 0.674420 -0.535203
O13   O     O_R   0.300990 0.096480 0.197920 -0.520218
O14   O     O_R   0.699010 0.903520 0.802080 -0.520010
O15   O     O_R   0.199010 0.596480 0.302080 -0.520207
O16   O     O_R   0.800990 0.403520 0.697920 -0.520003
C5    C     C_R   0.189079 0.434853 0.152939 0.843820
C6    C     C_R   0.810920 0.565146 0.847061 0.843872
C7    C     C_R   0.310921 0.934847 0.347061 0.843812
C8    C     C_R   0.689082 0.065152 0.652937 0.843870
O17   O     O_3   0.282290 0.427760 0.257860 -0.351394
O18   O     O_3   0.717710 0.572240 0.742140 -0.351318
O19   O     O_3   0.217710 0.927760 0.242140 -0.351394
O20   O     O_3   0.782290 0.072240 0.757860 -0.351320
V1    V     V_3+5 0.244010 0.152080 0.248540 1.717133
V2    V     V_3+5 0.755990 0.847920 0.751460 1.717299
V3    V     V_3+5 0.255990 0.652080 0.251460 1.717132
V4    V     V_3+5 0.744010 0.347920 0.748540 1.717295
C9    C     C_R   0.653957 0.050998 0.595110 -0.233969
C10   C     C_R   0.346084 0.948999 0.404859 -0.234406
C11   C     C_R   0.846044 0.550972 0.904889 -0.233973
C12   C     C_R   0.153916 0.449021 0.095141 -0.234404
C13   C     C_R   0.647887 0.018275 0.483017 0.492388
C14   C     C_R   0.352278 0.981196 0.516961 0.489723
C15   C     C_R   0.852109 0.518102 0.016978 0.492393
C16   C     C_R   0.147723 0.481294 0.983041 0.489717
C17   C     C_R   0.676156 0.061190 0.539469 -0.268989
C18   C     C_R   0.323952 0.938353 0.460541 -0.269211
C19   C     C_R   0.823841 0.561069 0.960529 -0.268977
C20   C     C_R   0.176050 0.438428 0.039459 -0.269225
C21   C     C_R   0.600159 0.016469 0.594227 0.378577
C22   C     C_R   0.399878 0.983686 0.405684 0.377700
C23   C     C_R   0.899843 0.516477 0.905772 0.378563
C24   C     C_R   0.100121 0.483679 0.094316 0.377697
C25   C     C_R   0.569355 0.008603 0.535664 -0.103772
C26   C     C_R   0.430724 0.991554 0.464218 -0.104407
C27   C     C_R   0.930645 0.508576 0.964336 -0.103761
C28   C     C_R   0.069276 0.491571 0.035782 -0.104421
C29   C     C_R   0.594791 0.970260 0.482011 -0.155162
C30   C     C_R   0.405320 0.029593 0.517902 -0.151495
C31   C     C_R   0.905210 0.470148 0.017985 -0.155150
C32   C     C_R   0.094679 0.529661 0.982100 -0.151503
C33   C     C_R   0.514404 0.030789 0.527796 0.032591
C34   C     C_R   0.485679 0.969498 0.472060 0.032389
C35   C     C_R   0.985595 0.530798 0.972205 0.032599
C36   C     C_R   0.014322 0.469485 0.027939 0.032401
C37   C     C_R   0.512314 0.871168 0.428621 -0.069068
C38   C     C_R   0.487761 0.129099 0.571239 -0.068328
C39   C     C_R   0.987693 0.371095 0.071371 -0.069066
C40   C     C_R   0.012234 0.629156 0.928767 -0.068364
C41   C     C_R   0.565950 0.878428 0.431335 0.461666
C42   C     C_R   0.434131 0.121542 0.568562 0.464089
C43   C     C_R   0.934056 0.378296 0.068654 0.461659
C44   C     C_R   0.065865 0.621625 0.931443 0.464132
H1    H     H_    0.283368 0.904456 0.459694 0.225517
H2    H     H_    0.716774 0.094573 0.540404 0.224638
H3    H     H_    0.216635 0.404550 0.040306 0.225518
H4    H     H_    0.783220 0.594403 0.959592 0.224639
H5    H     H_    0.491492 0.788643 0.391861 0.211144
H6    H     H_    0.508570 0.211710 0.607987 0.210807
H7    H     H_    0.008519 0.288561 0.108129 0.211140
H8    H     H_    0.991423 0.711777 0.892021 0.210801
C45   C     C_R   0.440855 0.816520 0.097849 -0.127053
C46   C     C_R   0.559130 0.183522 0.902120 -0.129458
C47   C     C_R   0.059147 0.316516 0.402157 -0.127068
C48   C     C_R   0.940869 0.683529 0.597878 -0.129463
H9    H     H_    0.470271 0.704977 0.098324 0.173455
H10   H     H_    0.529714 0.295065 0.901635 0.173240
H11   H     H_    0.029731 0.204975 0.401684 0.173449
H12   H     H_    0.970286 0.795070 0.598361 0.173240
C49   C     C_R   0.401734 0.799847 0.137596 0.415600
C50   C     C_R   0.598255 0.200169 0.862377 0.414991
C51   C     C_R   0.098268 0.299840 0.362410 0.415603
C52   C     C_R   0.901744 0.700177 0.637620 0.414993
C53   C     C_R   0.362822 0.945033 0.138122 -0.234275
C54   C     C_R   0.637168 0.054982 0.861864 -0.233729
C55   C     C_R   0.137180 0.445025 0.361880 -0.234293
C56   C     C_R   0.862831 0.554990 0.638135 -0.233743
C57   C     C_R   0.364921 0.104474 0.096513 0.367630
C58   C     C_R   0.635063 0.895560 0.903479 0.367135
C59   C     C_R   0.135080 0.604463 0.403487 0.367636
C60   C     C_R   0.864937 0.395572 0.596522 0.367141
C61   C     C_R   0.404527 0.118200 0.057582 -0.099780
C62   C     C_R   0.595456 0.881861 0.942407 -0.102311
C63   C     C_R   0.095475 0.618190 0.442418 -0.099771
C64   C     C_R   0.904545 0.381873 0.557595 -0.102319
H13   H     H_    0.405342 0.240826 0.026334 0.176169
H14   H     H_    0.594637 0.759250 0.973661 0.175321
H15   H     H_    0.094659 0.740815 0.473665 0.176171
H16   H     H_    0.905364 0.259264 0.526342 0.175313
C65   C     C_R   0.442563 0.975446 0.058000 -0.030306
C66   C     C_R   0.557420 0.024621 0.941979 -0.030305
C67   C     C_R   0.057439 0.475440 0.442003 -0.030306
C68   C     C_R   0.942580 0.524629 0.558022 -0.030304
C69   C     C_1   0.483115 0.992421 0.017130 0.052067
C70   C     C_1   0.516865 0.007665 0.982845 0.051086
C71   C     C_1   0.016886 0.492421 0.482872 0.052064
C72   C     C_1   0.983136 0.507670 0.517156 0.051083
Cl1   Cl    Cl    0.594139 0.734598 0.376645 -0.383344
Cl2   Cl    Cl    0.405867 0.265203 0.623240 -0.397941
Cl3   Cl    Cl    0.905881 0.234364 0.123333 -0.383454
Cl4   Cl    Cl    0.094123 0.765330 0.876769 -0.397901
S1    S     S_3+6 0.424899 0.061796 0.336026 0.029403
O21   O     O_2   0.475028 0.169035 0.349552 -0.278409
O22   O     O_2   0.432914 0.887265 0.296569 -0.316020
O23   O     O_3   0.383496 0.213826 0.296181 -0.487111
H17   H     H_    0.396543 0.226086 0.255105 0.392058
S2    S     S_3+6 0.575085 0.938392 0.663862 0.027628
O24   O     O_2   0.567045 0.112938 0.703303 -0.316912
O25   O     O_2   0.524959 0.831156 0.650295 -0.280018
O26   O     O_3   0.616461 0.786369 0.703753 -0.487063
H18   H     H_    0.603385 0.774123 0.744814 0.391844
S3    S     S_3+6 0.075096 0.561731 0.163976 0.029400
O27   O     O_2   0.024961 0.668943 0.150454 -0.278408
O28   O     O_2   0.067090 0.387172 0.203427 -0.316005
O29   O     O_3   0.116493 0.713764 0.203824 -0.487127
H19   H     H_    0.103441 0.726031 0.244897 0.392050
S4    S     S_3+6 0.924921 0.438451 0.836136 0.027631
O30   O     O_2   0.932953 0.613020 0.796699 -0.316895
O31   O     O_2   0.975051 0.331235 0.849700 -0.280013
O32   O     O_3   0.883549 0.286425 0.796243 -0.487079
H20   H     H_    0.896629 0.274178 0.755185 0.391836
S5    S     S_3+6 0.679084 0.060875 0.415349 0.147452
O33   O     O_2   0.640858 0.129793 0.363448 -0.241383
O34   O     O_2   0.720028 0.213720 0.428191 -0.278017
O35   O     O_3   0.707246 0.854111 0.394745 -0.433338
H21   H     H_    0.722510 0.886634 0.356088 0.405630
S6    S     S_3+6 0.321474 0.936535 0.584748 0.150271
O36   O     O_2   0.295696 0.119741 0.603440 -0.246155
O37   O     O_2   0.281174 0.781255 0.572041 -0.273177
O38   O     O_3   0.364727 0.861076 0.642564 -0.430759
H22   H     H_    0.344862 0.847469 0.678856 0.412045
S7    S     S_3+6 0.820899 0.560517 0.084646 0.147446
O39   O     O_2   0.859109 0.629452 0.136559 -0.241419
O40   O     O_2   0.779928 0.713274 0.071818 -0.277974
O41   O     O_3   0.792772 0.353642 0.105220 -0.433356
H23   H     H_    0.777542 0.386006 0.143911 0.405655
S8    S     S_3+6 0.178528 0.436679 0.915252 0.150253
O42   O     O_2   0.204299 0.619902 0.896561 -0.246093
O43   O     O_2   0.218833 0.281409 0.927955 -0.273259
O44   O     O_3   0.135274 0.361232 0.857438 -0.430767
H24   H     H_    0.155159 0.347237 0.821177 0.412046
Cl5   Cl    Cl    0.404950 0.595688 0.186814 -0.512836
Cl6   Cl    Cl    0.595041 0.404294 0.813143 -0.514640
Cl7   Cl    Cl    0.095053 0.095679 0.313196 -0.512826
Cl8   Cl    Cl    0.904956 0.904303 0.686850 -0.514619
Cl9   Cl    Cl    0.317779 0.288866 0.088183 -0.608041
Cl10  Cl    Cl    0.682199 0.711152 0.911816 -0.611608
Cl11  Cl    Cl    0.182222 0.788849 0.411815 -0.608032
Cl12  Cl    Cl    0.817801 0.211169 0.588185 -0.611631

loop_
_geom_bond_atom_site_label_1
_geom_bond_atom_site_label_2
_ccdc_geom_bond_type
O17   V3    S    
C63   H15   S    
O1    C5    A    
C19   H4    S    
C51   C55   A    
O19   V1    S    
C9    C21   A    
O3    C7    A    
S7    O39   D    
C10   C18   A    
O1    V3    S    
C48   H12   S    
C11   C23   A    
C1    C55   S    
C47   C51   A    
O38   H22   S    
C25   C33   A    
O32   H20   S    
C5    C12   S    
O7    C3    A    
C6    C11   S    
S5    O34   D    
C35   C40   A    
C26   C30   A    
C36   C39   A    
C40   C44   A    
C4    C54   S    
S7    O40   D    
C14   C18   A    
S1    O22   D    
C66   C70   S    
O4    C8    A    
C59   C63   A    
C58   C62   A    
C15   S7    S    
C56   C60   A    
O13   V1    S    
C16   S8    S    
C20   H3    S    
O2    V4    S    
O3    V1    S    
C43   Cl3   S    
C28   C36   A    
C1    O15   A    
C64   H16   S    
C15   C31   A    
C52   C56   A    
C2    O16   A    
S4    O30   D    
C16   C32   A    
O2    C6    A    
C10   C22   A    
C45   H9    S    
C23   C27   A    
C11   C19   A    
C58   Cl10  S    
C16   C20   A    
C13   C29   A    
C46   C50   A    
C34   C37   A    
O11   C7    A    
O15   V3    S    
C35   C36   A    
O12   C8    A    
C13   S5    S    
C53   C57   A    
C14   S6    S    
S6    O38   S    
C49   Cl5   S    
O10   V2    S    
C54   C58   A    
O5    V1    S    
O17   V1    S    
S5    O35   S    
C39   C43   A    
C64   C68   A    
O7    V3    S    
C38   C42   A    
O19   V3    S    
C26   C34   A    
O20   V4    S    
S7    O41   S    
O35   H21   S    
C50   C54   A    
S1    O23   S    
C49   C53   A    
O18   V4    S    
C15   C19   A    
C37   H5    S    
C62   H14   S    
C55   C59   A    
C18   H1    S    
C60   Cl12  S    
C22   S1    S    
O8    V4    S    
S3    O28   D    
O5    C1    A    
C59   Cl11  S    
C46   H10   S    
C14   C30   A    
S8    O44   S    
C21   C25   A    
O8    C4    A    
C7    C10   S    
C3    C53   S    
C48   C68   A    
C40   H8    S    
C47   C67   A    
C50   Cl6   S    
C44   Cl4   S    
O14   V2    S    
O6    V2    S    
S8    O43   D    
C57   Cl9   S    
O18   V2    S    
O26   H18   S    
S6    O37   D    
C12   C20   A    
C27   C35   A    
C41   Cl1   S    
C33   C38   A    
S2    O25   D    
S3    O27   D    
C57   C61   A    
C29   C41   A    
O23   H17   S    
O16   V4    S    
O9    V1    S    
C65   C69   S    
C3    O13   A    
C42   Cl2   S    
C71   C72   T    
S6    O36   D    
C67   C71   S    
O6    C2    A    
C31   C43   A    
O11   V3    S    
C30   C42   A    
C21   S2    S    
O12   V4    S    
C63   C67   A    
S5    O33   D    
C22   C26   A    
C8    C9    S    
C62   C66   A    
C23   S4    S    
C46   C66   A    
C9    C17   A    
O10   C6    A    
S2    O26   S    
O20   V2    S    
O29   H19   S    
S3    O29   S    
C61   C65   A    
C48   C52   A    
C32   C44   A    
C69   C70   T    
O9    C5    A    
C24   S3    S    
C47   H11   S    
C33   C34   A    
C39   H7    S    
C45   C49   A    
S4    O32   S    
C25   C29   A    
C60   C64   A    
C45   C65   A    
C51   Cl7   S    
C12   C24   A    
C27   C31   A    
C52   Cl8   S    
C37   C41   A    
C13   C17   A    
O4    V2    S    
C2    C56   S    
C68   C72   S    
C24   C28   A    
S8    O42   D    
S4    O31   D    
C4    O14   A    
O44   H24   S    
O41   H23   S    
C38   H6    S    
S2    O24   D    
S1    O21   D    
C61   H13   S    
C28   C32   A    
C17   H2    S    
