data_mof_unit_2926.cif
_audit_creation_date              2012-10-26T19:52:44-0400
_audit_creation_method            fapswitch 2.2
_symmetry_space_group_name_H-M    P1
_symmetry_Int_Tables_number       1
_space_group_crystal_system       triclinic
_cell_length_a                    15.023136
_cell_length_b                    10.825077
_cell_length_c                    9.542276
_cell_angle_alpha                 90.028503
_cell_angle_beta                  89.859684
_cell_angle_gamma                 89.547417
_cell_volume                      1551.77466644

loop_
_atom_site_label
_atom_site_type_symbol
_atom_type_description
_atom_site_fract_x
_atom_site_fract_y
_atom_site_fract_z
_atom_type_partial_charge
C1    C     C_R   0.501008 0.262330 0.499970 0.541031
C2    C     C_R   0.187428 0.388199 0.453371 0.023278
C3    C     C_R   0.232745 0.492541 0.502552 -0.016424
C4    C     C_R   0.329103 0.498213 0.500293 0.524909
C5    C     C_R   0.186885 0.592707 0.559383 -0.128112
C6    C     C_R   0.505297 0.063418 0.625780 -0.024478
C7    C     C_R   0.508628 0.129143 0.499999 0.012703
C8    C     C_R   0.524768 0.064208 0.374667 -0.128401
C9    C     C_R   0.525550 0.935327 0.374755 -0.118502
C10   C     C_R   0.511152 0.870557 0.500442 0.033358
C11   C     C_R   0.508583 0.936315 0.626312 0.059871
C12   C     C_R   0.906357 0.596467 0.559088 0.017562
C13   C     C_3   0.446472 0.926613 0.749080 -0.097769
C14   C     C_3   0.440980 0.068526 0.746593 0.210228
C15   C     C_R   0.550512 0.418070 0.073206 0.179325
C16   C     C_R   0.501975 0.737634 0.500052 0.576297
C17   C     C_R   0.442957 0.575174 0.074731 0.028196
C18   C     C_R   0.442495 0.574412 0.925700 0.055394
C19   C     C_R   0.551024 0.418870 0.926046 0.179346
C20   C     C_3   0.649618 0.404566 0.919568 -0.274427
C21   C     C_3   0.649127 0.402357 0.078472 -0.262475
C22   C     C_R   0.670983 0.498736 0.500137 0.569707
C23   C     C_R   0.955007 0.264932 0.479882 0.049507
C24   C     C_R   0.812997 0.598033 0.554876 0.207977
C25   C     C_R   0.767757 0.495067 0.502857 -0.010232
C26   C     C_R   0.813920 0.387297 0.461120 -0.060593
C27   C     C_R   0.907107 0.378867 0.484471 -0.043736
C28   C     C_R   0.953526 0.487785 0.520971 -0.013770
C29   C     C_2   0.489394 0.871267 0.878038 0.195744
C30   C     C_2   0.478881 0.133954 0.872508 0.291443
C31   C     C_2   0.764565 0.289919 0.383793 0.201232
C32   C     C_2   0.907904 0.145834 0.501758 0.372238
C33   C     C_2   0.236837 0.295029 0.368033 0.344678
C34   C     C_R   0.048911 0.266073 0.475818 0.287361
C35   C     C_2   0.090710 0.820140 0.644385 0.301745
C36   C     C_R   0.094648 0.379985 0.478284 0.033138
C37   C     C_R   0.047302 0.488175 0.519253 0.004145
C38   C     C_R   0.093860 0.596351 0.559307 -0.006453
C39   C     C_R   0.046237 0.703328 0.602367 -0.001115
C40   C     C_R   0.953324 0.701488 0.601503 -0.029242
Cl1   Cl    Cl    0.751110 0.731444 0.606196 -0.547214
Cl2   Cl    Cl    0.332926 0.124743 0.696612 -0.502460
Cl3   Cl    Cl    0.108414 0.125556 0.503399 -0.428513
Cu1   Cu    Cu3+1 0.500000 0.499980 0.640670 1.042904
Cu2   Cu    Cu3+1 0.500000 0.500020 0.359330 0.984819
H1    H     H_    0.533362 0.887092 0.275943 0.156229
H2    H     H_    0.917988 0.784802 0.631642 0.229631
H3    H     H_    0.532741 0.112304 0.275948 0.161729
H4    H     H_    0.453001 0.872048 0.976382 0.109627
H5    H     H_    0.550468 0.139461 0.886425 0.078140
H6    H     H_    0.696572 0.267754 0.412081 0.100743
H7    H     H_    0.850660 0.142528 0.571251 0.093494
H8    H     H_    0.305407 0.271511 0.392301 0.146011
H9    H     H_    0.157103 0.842197 0.608450 0.144239
H10   H     H_    0.383145 0.880100 0.721233 0.126731
H11   H     H_    0.398299 0.636635 0.130803 0.119761
H12   H     H_    0.397145 0.634773 0.869892 0.106315
H13   H     H_    0.670314 0.315110 0.871908 0.128768
H14   H     H_    0.683319 0.487291 0.876215 0.195477
H15   H     H_    0.668212 0.310841 0.121780 0.175278
H16   H     H_    0.683658 0.482767 0.125389 0.184970
H17   H     H_    0.225620 0.668695 0.599091 0.092612
N1    N     N_R   0.500570 0.500930 0.147930 -0.231121
N2    N     N_R   0.500570 0.500890 0.852020 -0.214667
O1    O     O_R   0.500000 0.319640 0.618810 -0.490249
O2    O     O_2   0.429673 0.177297 0.962150 -0.451440
O3    O     O_2   0.798563 0.237094 0.283759 -0.463845
O4    O     O_2   0.930217 0.052084 0.439250 -0.378902
O5    O     O_2   0.202120 0.247336 0.266063 -0.407467
O6    O     O_2   0.052439 0.895246 0.719269 -0.413578
O7    O     O_R   0.500010 0.319680 0.381230 -0.516959
O8    O     O_R   0.370250 0.499950 0.618800 -0.485007
O9    O     O_R   0.370260 0.499990 0.381220 -0.513527
O10   O     O_R   0.499990 0.680320 0.618770 -0.466089
O11   O     O_R   0.500000 0.680360 0.381190 -0.513100
O12   O     O_R   0.629740 0.500010 0.618780 -0.483678
O13   O     O_R   0.629750 0.500050 0.381200 -0.509879
O14   O     O_2   0.563941 0.825458 0.873832 -0.444467

loop_
_geom_bond_atom_site_label_1
_geom_bond_atom_site_label_2
_ccdc_geom_bond_type
C40   H2    S    
Cu2   O7    S    
C16   O11   A    
C19   C20   S    
C22   O12   A    
C7    C8    A    
C29   H4    S    
Cu1   N2    S    
C15   C19   A    
C26   C27   A    
C1    O7    A    
C12   C28   A    
C16   O10   A    
C13   C29   S    
C36   C37   A    
C38   C39   A    
Cu2   O9    S    
Cu1   O12   S    
C32   H7    S    
C29   O14   D    
C35   O6    D    
C8    C9    A    
C22   C25   S    
C1    O1    A    
C23   C27   A    
C9    C10   A    
C21   H16   S    
C33   O5    D    
C32   O4    D    
C30   H5    S    
C9    H1    S    
C5    C38   A    
C35   H9    S    
C24   Cl1   S    
Cu1   O1    S    
C14   C30   S    
C33   H8    S    
C24   C25   A    
C21   H15   S    
C39   C40   A    
C25   C26   A    
Cu2   N1    S    
C12   C40   A    
C35   C39   S    
C8    H3    S    
C37   C38   A    
C6    C14   S    
C18   H12   S    
C19   N2    A    
C23   C34   A    
C17   C18   A    
C20   H14   S    
Cu1   O10   S    
C17   H11   S    
C4    O9    A    
C30   O2    D    
C2    C33   S    
C6    C11   A    
C20   H13   S    
C3    C4    S    
C4    O8    A    
Cu1   Cu2   S    
C2    C36   A    
C1    C7    S    
C26   C31   S    
C34   Cl3   S    
C22   O13   A    
C31   H6    S    
C3    C5    A    
C6    C7    A    
C12   C24   A    
C14   Cl2   S    
Cu2   O11   S    
C23   C32   S    
C2    C3    A    
C10   C16   S    
C17   N1    A    
C11   C13   S    
C18   N2    A    
C28   C37   A    
C5    H17   S    
Cu1   O8    S    
C34   C36   A    
C10   C11   A    
C31   O3    D    
C15   C21   S    
C20   C21   S    
C27   C28   A    
C15   N1    A    
Cu2   O13   S    
C13   C14   S    
C13   H10   S    
