data_mof_unit_3274.cif
_audit_creation_date              2012-12-10T17:49:35-0500
_audit_creation_method            fapswitch 2.2
_symmetry_space_group_name_H-M    P1
_symmetry_Int_Tables_number       1
_space_group_crystal_system       triclinic
_cell_length_a                    10.560984
_cell_length_b                    10.550125
_cell_length_c                    9.963405
_cell_angle_alpha                 90.682457
_cell_angle_beta                  88.705886
_cell_angle_gamma                 90.346053
_cell_volume                      1109.73923792

loop_
_atom_site_label
_atom_site_type_symbol
_atom_type_description
_atom_site_fract_x
_atom_site_fract_y
_atom_site_fract_z
_atom_type_partial_charge
C1    C     C_R   0.524290 0.263318 0.500113 0.873300
C2    C     C_R   0.554329 0.066718 0.628598 0.021628
C3    C     C_R   0.559505 0.131291 0.504643 -0.121185
C4    C     C_R   0.257780 0.507756 0.500751 0.874381
C5    C     C_R   0.565539 0.063700 0.384578 -0.216181
C6    C     C_R   0.541349 0.936180 0.385858 -0.184702
C7    C     C_R   0.500773 0.877734 0.505351 -0.111308
C8    C     C_R   0.302829 0.365599 0.135590 0.216521
C9    C     C_R   0.190628 0.349517 0.065485 -0.265677
C10   C     C_R   0.200687 0.330135 0.928108 -0.007578
C11   C     C_R   0.311825 0.366060 0.860415 -0.177919
C12   C     C_3   0.965117 0.398828 0.434438 0.194088
C13   C     C_R   0.406906 0.434033 0.927886 0.081308
C14   C     C_R   0.405434 0.433531 0.072108 0.133998
C15   C     C_R   0.586730 0.566284 0.070739 -0.151078
C16   C     C_R   0.495251 0.741301 0.501487 0.869926
C17   C     C_R   0.585822 0.567974 0.928112 0.021198
C18   C     C_R   0.741995 0.496928 0.498694 0.890243
C19   C     C_3   0.032490 0.612236 0.560628 0.010365
C20   C     C_3   0.953597 0.505184 0.624955 -0.207216
C21   C     C_3   0.876510 0.498079 0.496335 -0.014081
C22   C     C_3   0.954576 0.604060 0.432887 0.146388
C23   C     C_3   0.044190 0.404426 0.562165 -0.172239
C24   C     C_3   0.045334 0.504996 0.369759 -0.164730
C25   C     C_1   0.424093 0.922075 0.002677 0.131560
C26   C     C_3   0.328406 0.814925 0.758363 -0.788765
C27   C     C_3   0.326692 0.248129 0.215005 -0.767149
C28   C     C_1   0.107337 0.251796 0.863773 0.145344
C29   C     C_1   0.674642 0.649162 0.858706 0.229745
C30   C     C_1   0.047483 0.735980 0.626482 0.168092
C31   C     C_3   0.901254 0.715856 0.357227 -0.885884
C32   C     C_3   0.922796 0.277351 0.364718 -0.923601
C33   C     C_1   0.696099 0.214518 0.755124 0.215366
C34   C     C_3   0.122349 0.512629 0.499644 -0.113267
C35   C     C_R   0.599257 0.117809 0.751263 0.016586
C36   C     C_R   0.560759 0.064568 0.872978 -0.273299
C37   C     C_R   0.475568 0.963582 0.874827 0.043209
C38   C     C_R   0.439593 0.905172 0.753165 0.147440
C39   C     C_R   0.495798 0.947454 0.629126 0.061749
H1    H     H_    0.916143 0.505307 0.729938 0.183176
H2    H     H_    0.294753 0.791421 0.656704 0.225303
H3    H     H_    0.353566 0.726907 0.811372 0.253572
H4    H     H_    0.249129 0.860431 0.815276 0.239267
H5    H     H_    0.270307 0.164897 0.180082 0.208845
H6    H     H_    0.425359 0.216744 0.197110 0.235256
H7    H     H_    0.297048 0.262497 0.321468 0.253872
H8    H     H_    0.851693 0.680966 0.266884 0.242933
H9    H     H_    0.833380 0.768791 0.423209 0.244904
H10   H     H_    0.979674 0.780121 0.325608 0.247795
H11   H     H_    0.007010 0.220704 0.334047 0.244539
H12   H     H_    0.553229 0.884011 0.292319 0.186704
H13   H     H_    0.862007 0.221076 0.434460 0.246841
H14   H     H_    0.868206 0.300748 0.274499 0.246976
H15   H     H_    0.656774 0.621238 0.124188 0.143593
H16   H     H_    0.108149 0.310411 0.117663 0.164195
H17   H     H_    0.322772 0.337286 0.757752 0.210750
H18   H     H_    0.083639 0.508117 0.265370 0.164363
H19   H     H_    0.087350 0.320946 0.608298 0.163173
H20   H     H_    0.585185 0.109694 0.289848 0.158380
H21   H     H_    0.593607 0.104904 0.966804 0.146538
N1    N     N_R   0.498800 0.498800 0.142780 -0.115627
N2    N     N_R   0.498760 0.498720 0.857170 -0.138701
N3    N     N_1   0.381541 0.888490 0.104275 -0.216003
N4    N     N_1   0.032788 0.186699 0.814162 -0.190544
N5    N     N_1   0.745871 0.715358 0.803551 -0.205209
N6    N     N_1   0.053159 0.835089 0.676888 -0.199909
N7    N     N_1   0.774391 0.291282 0.760095 -0.203093
O1    O     O_R   0.500000 0.316780 0.614690 -0.638952
O2    O     O_R   0.499990 0.316750 0.385360 -0.624556
O3    O     O_R   0.313960 0.499980 0.614650 -0.638789
O4    O     O_R   0.313940 0.499960 0.385310 -0.610418
O5    O     O_R   0.500010 0.683250 0.614640 -0.607211
O6    O     O_R   0.500000 0.683220 0.385310 -0.612773
O7    O     O_R   0.686060 0.500040 0.614690 -0.614828
O8    O     O_R   0.686040 0.500020 0.385350 -0.624053
Zn1   Zn    Zn3+2 0.500010 0.500020 0.653130 0.940765
Zn2   Zn    Zn3+2 0.499990 0.499980 0.346870 0.942349

loop_
_geom_bond_atom_site_label_1
_geom_bond_atom_site_label_2
_ccdc_geom_bond_type
C2    C35   A    
C8    C9    A    
C23   H19   S    
C18   O8    A    
C18   C21   S    
C17   C29   S    
O2    Zn2   S    
C19   C20   S    
C16   O5    A    
O5    Zn1   S    
C4    O3    A    
C12   C23   S    
C33   N7    T    
O7    Zn1   S    
C36   C37   A    
C5    C6    A    
C20   H1    S    
C1    O1    A    
C25   N3    T    
C32   H13   S    
C25   C37   S    
C27   H5    S    
C13   N2    A    
C35   C36   A    
N1    Zn2   S    
C24   H18   S    
C8    C14   A    
C9    H16   S    
C6    H12   S    
C9    C10   A    
C27   H6    S    
C18   O7    A    
C31   H8    S    
C13   C14   A    
C12   C32   S    
N2    Zn1   S    
C31   H10   S    
C2    C39   A    
C26   H4    S    
C4    C34   S    
C22   C31   S    
C5    H20   S    
C16   O6    A    
C15   H15   S    
C19   C22   S    
C26   C38   S    
C3    C5    A    
C14   N1    A    
C12   C21   S    
C1    O2    A    
C1    C3    S    
C37   C38   A    
C17   N2    A    
C20   C23   S    
C23   C34   S    
C15   N1    A    
O8    Zn2   S    
C32   H11   S    
C30   N6    T    
C29   N5    T    
C28   N4    T    
C27   H7    S    
C7    C16   S    
C31   H9    S    
O3    Zn1   S    
C22   C24   S    
C32   H14   S    
O4    Zn2   S    
C26   H3    S    
C10   C28   S    
C15   C17   A    
O6    Zn2   S    
C36   H21   S    
C19   C34   S    
C6    C7    A    
O1    Zn1   S    
C12   C24   S    
C2    C3    A    
C11   C13   A    
C38   C39   A    
C33   C35   S    
C24   C34   S    
C10   C11   A    
C20   C21   S    
C8    C27   S    
C7    C39   A    
C21   C22   S    
C19   C30   S    
C4    O4    A    
C11   H17   S    
C26   H2    S    
