data_mof_unit_856.cif
_audit_creation_date              2013-03-05T16:11:32-0500
_audit_creation_method            fapswitch 2.2
_symmetry_space_group_name_H-M    P1
_symmetry_Int_Tables_number       1
_space_group_crystal_system       triclinic
_cell_length_a                    10.625383
_cell_length_b                    9.867172
_cell_length_c                    15.773967
_cell_angle_alpha                 90.031517
_cell_angle_beta                  90.636262
_cell_angle_gamma                 90.208867
_cell_volume                      1653.66859952

loop_
_atom_site_label
_atom_site_type_symbol
_atom_site_description
_atom_site_fract_x
_atom_site_fract_y
_atom_site_fract_z
_atom_type_partial_charge
O1    O     O_R   0.316750 0.614620 0.499990 -0.635696
O2    O     O_R   0.316750 0.385380 0.499990 -0.634538
C1    C     C_R   0.259131 0.499820 0.497437 0.894383
O3    O     O_R   0.499990 0.614720 0.377140 -0.614609
O4    O     O_R   0.499990 0.385280 0.377140 -0.609902
C2    C     C_R   0.499904 0.499964 0.338456 0.896341
Zn1   Zn    Zn3+2 0.499980 0.653120 0.500000 1.043423
Zn2   Zn    Zn3+2 0.499980 0.346880 0.500000 1.044266
O5    O     O_R   0.683220 0.614710 0.500000 -0.552048
O6    O     O_R   0.683220 0.385290 0.500000 -0.551549
O7    O     O_R   0.499980 0.614620 0.622860 -0.586313
O8    O     O_R   0.499980 0.385380 0.622860 -0.586927
C3    C     C_R   0.737956 0.500389 0.486379 0.947224
C4    C     C_R   0.499889 0.500031 0.661618 0.930021
C5    C     C_3   0.424836 0.625727 0.049567 -0.042351
C6    C     C_3   0.428118 0.371276 0.049431 -0.043647
C7    C     C_3   0.430704 0.368827 0.950082 -0.068780
C8    C     C_3   0.427325 0.628386 0.950223 -0.068071
H1    H     H_    0.327847 0.618858 0.927598 0.140414
H2    H     H_    0.331034 0.374580 0.927448 0.140653
H3    H     H_    0.324817 0.604820 0.065960 0.130110
H4    H     H_    0.327604 0.388382 0.065824 0.130251
C9    C     C_1   0.499033 0.500074 0.750243 -0.104065
C10   C     C_3   0.503343 0.499931 0.083291 0.225613
C11   C     C_3   0.499135 0.499966 0.917054 0.159327
C12   C     C_3   0.637620 0.502566 0.949545 -0.367146
C13   C     C_3   0.644230 0.502629 0.048634 0.381320
C14   C     C_1   0.498546 0.500033 0.825378 -0.039458
C15   C     C_1   0.502068 0.499864 0.174914 -0.065370
C16   C     C_1   0.500982 0.499883 0.249979 -0.163066
H5    H     H_    0.687208 0.591735 0.922505 0.182848
H6    H     H_    0.689488 0.415347 0.922422 0.182321
C17   C     C_R   0.062930 0.377980 0.468572 -0.241392
C18   C     C_R   0.063913 0.623661 0.475588 -0.243561
H7    H     H_    0.113755 0.283115 0.465716 0.203168
H8    H     H_    0.115092 0.718773 0.478427 0.205106
C19   C     C_R   0.934377 0.378203 0.454533 0.300340
C20   C     C_R   0.935762 0.625837 0.461640 0.294901
C21   C     C_R   0.869343 0.501740 0.463368 -0.278901
C22   C     C_R   0.125948 0.500023 0.483742 -0.143662
C23   C     C_R   0.565051 0.072374 0.560974 0.316817
C24   C     C_R   0.564175 0.928341 0.561422 0.319231
N1    N     N_R   0.499970 0.857200 0.499980 -0.146963
N2    N     N_R   0.499970 0.142800 0.499980 -0.147918
C25   C     C_R   0.435369 0.927883 0.439171 -0.114409
C26   C     C_R   0.435037 0.071498 0.439330 -0.113734
H9    H     H_    0.383492 0.873435 0.390488 0.158502
H10   H     H_    0.382883 0.125456 0.390782 0.158122
C27   C     C_3   0.451011 0.233395 0.094698 -0.843537
H11   H     H_    0.371936 0.163244 0.079286 0.230334
H12   H     H_    0.537548 0.180962 0.075900 0.256107
H13   H     H_    0.452095 0.244511 0.164629 0.250267
C28   C     C_3   0.444191 0.764357 0.094960 -0.846004
H14   H     H_    0.363309 0.831479 0.079660 0.230753
H15   H     H_    0.445651 0.753217 0.164880 0.249283
H16   H     H_    0.529290 0.820092 0.076162 0.256032
C29   C     C_3   0.480623 0.235313 0.911323 -0.762361
H17   H     H_    0.422596 0.147991 0.932183 0.234465
H18   H     H_    0.472752 0.237471 0.841211 0.274659
H19   H     H_    0.580013 0.216102 0.928922 0.245373
C30   C     C_3   0.473714 0.763777 0.911586 -0.763693
H20   H     H_    0.465764 0.761402 0.841482 0.274655
H21   H     H_    0.413497 0.848834 0.932576 0.234032
H22   H     H_    0.572592 0.786707 0.929131 0.245825
C31   C     C_3   0.719179 0.629804 0.079520 -0.825048
H23   H     H_    0.705107 0.649658 0.148012 0.263036
H24   H     H_    0.821911 0.617958 0.069616 0.230556
H25   H     H_    0.695496 0.721191 0.042755 0.221689
C32   C     C_3   0.722443 0.378330 0.079409 -0.823099
H26   H     H_    0.701125 0.286122 0.042572 0.221304
H27   H     H_    0.824815 0.394070 0.069502 0.230037
H28   H     H_    0.708913 0.357896 0.147887 0.265483
N3    N     N_R   0.872547 0.255117 0.428164 0.240066
O9    O     O_R   0.916823 0.138450 0.452107 -0.293073
O10   O     O_R   0.787126 0.258370 0.368397 -0.384072
N4    N     N_R   0.875870 0.753023 0.443426 0.244105
O11   O     O_R   0.918204 0.863773 0.478357 -0.288755
O12   O     O_R   0.795301 0.761862 0.380914 -0.372919
N5    N     N_R   0.636308 0.143804 0.624062 0.239769
O13   O     O_R   0.594643 0.149956 0.701175 -0.386381
O14   O     O_R   0.753649 0.173007 0.609959 -0.310255
N6    N     N_R   0.629800 0.857760 0.627312 0.239464
O15   O     O_R   0.744828 0.818398 0.615490 -0.308654
O16   O     O_R   0.585438 0.858774 0.703809 -0.390066

loop_
_geom_bond_atom_site_label_1
_geom_bond_atom_site_label_2
_geom_bond_distance
_ccdc_geom_bond_type
C5    C8    1.567789 S    
C12   H6    1.111619 S    
C30   H22   1.106032 S    
N3    O9    1.299858 A    
C24   N6    1.428185 S    
C10   C13   1.599504 S    
C20   N4    1.436874 S    
C28   H14   1.111390 S    
C11   C14   1.446040 S    
Zn1   O7    1.975075 S    
C12   C13   1.563826 S    
C18   C22   1.394084 A    
C5    C28   1.555542 S    
N4    O12   1.301811 A    
O4    C2    1.285938 A    
O7    C4    1.285676 A    
C29   H18   1.108394 S    
C7    H2    1.115479 S    
C32   H27   1.110985 S    
C8    H1    1.115482 S    
C23   C24   1.421209 A    
C30   H21   1.109816 S    
O5    C3    1.290015 A    
C10   C15   1.445471 S    
C6    C7    1.567845 S    
C31   H24   1.110984 S    
Zn1   N1    2.013693 S    
C13   C32   1.558737 S    
C31   H25   1.100800 S    
C25   H9    1.081741 S    
C12   H5    1.111622 S    
C6    C10   1.586842 S    
C18   C20   1.377144 A    
N3    O10   1.301873 A    
C32   H26   1.100781 S    
C8    C11   1.573771 S    
O3    Zn1   1.974479 S    
N2    C26   1.366491 A    
C28   H15   1.108377 S    
C26   H10   1.081754 S    
C17   C22   1.394996 A    
N4    O11   1.300142 A    
O3    C2    1.285972 A    
N5    O14   1.300249 A    
C29   H19   1.106013 S    
C27   H12   1.100193 S    
C11   C12   1.552889 S    
C25   C26   1.417095 A    
C17   C19   1.381345 A    
O1    C1    1.286046 A    
C4    C9    1.398098 S    
C32   H28   1.109764 S    
C15   C16   1.184260 T    
C13   C31   1.558733 S    
Zn2   O8    1.974665 S    
C27   H13   1.108388 S    
C9    C14   1.185240 T    
C6    C27   1.555502 S    
N1    C25   1.366477 A    
C5    C10   1.586805 S    
C2    C16   1.395796 S    
O8    C4    1.285627 A    
C1    C22   1.429146 S    
N6    O15   1.299185 A    
N6    O16   1.300376 A    
C23   N2    1.369746 A    
C24   N1    1.370605 A    
C28   H16   1.100214 S    
Zn1   O5    1.984896 S    
C19   N3    1.437781 S    
C6    H4    1.115078 S    
O1    Zn1   1.982243 S    
O2    Zn2   1.984961 S    
Zn2   N2    2.013692 S    
O6    C3    1.293237 A    
C23   N5    1.427911 S    
O4    Zn2   1.974887 S    
C8    C30   1.549803 S    
C7    C11   1.573778 S    
O2    C1    1.286883 A    
C19   C21   1.410984 A    
C29   H17   1.109839 S    
C20   C21   1.411497 A    
C17   H7    1.083521 S    
C18   H8    1.083596 S    
C31   H23   1.109743 S    
C30   H20   1.108332 S    
C3    C21   1.446365 S    
N5    O13   1.300513 A    
C5    H3    1.115084 S    
Zn2   O6    1.982184 S    
C27   H11   1.111404 S    
C7    C29   1.549870 S    
