data_mof_unit_3069.cif
_audit_creation_date              2012-12-11T15:39:20-0500
_audit_creation_method            fapswitch 2.2
_symmetry_space_group_name_H-M    P1
_symmetry_Int_Tables_number       1
_space_group_crystal_system       triclinic
_cell_length_a                    17.454644
_cell_length_b                    24.518857
_cell_length_c                    14.993296
_cell_angle_alpha                 90.115361
_cell_angle_beta                  125.647461
_cell_angle_gamma                 89.409018
_cell_volume                      5213.94637242

loop_
_atom_site_label
_atom_site_type_symbol
_atom_type_description
_atom_site_fract_x
_atom_site_fract_y
_atom_site_fract_z
_atom_type_partial_charge
C1    C     C_R   0.314391 0.371835 0.905681 -0.138076
C2    C     C_R   0.681409 0.366383 0.091256 -0.133234
C3    C     C_R   0.839773 0.853240 0.909344 -0.141869
C4    C     C_R   0.189507 0.875941 0.092951 -0.132139
C5    C     C_R   0.386612 0.685043 0.996878 -0.103985
C6    C     C_R   0.619071 0.681736 0.000667 -0.104404
C7    C     C_R   0.892852 0.186250 0.998211 -0.097815
C8    C     C_R   0.119475 0.181806 0.002367 -0.107875
C9    C     C_R   0.467323 0.497729 0.294328 0.025934
C10   C     C_R   0.427363 0.496947 0.629439 0.036420
C11   C     C_R   0.955309 0.997738 0.280899 0.021295
C12   C     C_R   0.931699 0.997344 0.631099 0.034919
C13   C     C_R   0.194057 0.501595 0.637509 0.084450
C14   C     C_R   0.825262 0.502230 0.281863 0.063839
C15   C     C_R   0.675672 0.002756 0.724991 0.070092
C16   C     C_R   0.307011 0.001098 0.362217 0.074076
C17   C     C_R   0.063911 0.553324 0.479206 0.106437
C18   C     C_R   0.974615 0.554813 0.383116 0.110425
C19   C     C_R   0.524220 0.055249 0.616494 0.111487
C20   C     C_R   0.435955 0.053102 0.518811 0.105910
C21   C     C_R   0.112267 0.504004 0.524294 0.039808
C22   C     C_R   0.926826 0.505404 0.338148 0.030991
C23   C     C_R   0.573476 0.006198 0.666543 0.027974
C24   C     C_R   0.389502 0.003668 0.475447 0.044336
C25   C     C_R   0.074404 0.456626 0.460196 -0.198035
C26   C     C_R   0.980984 0.457224 0.367146 -0.186113
C27   C     C_R   0.520755 0.958036 0.637788 -0.189897
C28   C     C_R   0.428442 0.956819 0.542187 -0.198405
C29   C     C_3   0.951038 0.606400 0.417892 -0.237867
C30   C     C_3   0.047767 0.602543 0.526325 -0.215553
C31   C     C_3   0.451988 0.101155 0.469907 -0.219104
C32   C     C_3   0.547522 0.105668 0.579437 -0.231316
C33   C     C_R   0.305081 0.774799 0.908714 0.054176
C34   C     C_R   0.713948 0.764371 0.076023 0.044966
C35   C     C_R   0.804734 0.273659 0.906677 0.053554
C36   C     C_R   0.196223 0.271134 0.080867 0.050312
C37   C     C_R   0.747966 0.313937 0.907297 -0.241241
C38   C     C_R   0.247072 0.313544 0.078198 -0.245948
C39   C     C_R   0.255101 0.818986 0.911333 -0.245351
C40   C     C_R   0.779865 0.797265 0.080283 -0.225368
C41   C     C_R   0.753499 0.323197 0.003175 0.148203
C42   C     C_R   0.256703 0.316236 0.991996 0.144950
C43   C     C_R   0.259070 0.828788 0.006113 0.145628
C44   C     C_R   0.802174 0.789062 0.005243 0.140346
C45   C     C_R   0.452230 0.654059 0.087862 0.469841
C46   C     C_R   0.553203 0.652464 0.910383 0.488180
C47   C     C_R   0.955176 0.154216 0.088825 0.471916
C48   C     C_R   0.052073 0.152865 0.911309 0.483159
C49   C     C_R   0.826482 0.299425 0.101934 -0.172154
C50   C     C_R   0.211596 0.279665 0.905167 -0.172593
C51   C     C_R   0.322517 0.799418 0.102143 -0.163718
C52   C     C_R   0.759412 0.749303 0.925104 -0.186615
C53   C     C_R   0.368293 0.754807 0.098780 -0.240830
C54   C     C_R   0.694922 0.716293 0.920901 -0.204284
C55   C     C_R   0.879182 0.258149 0.100922 -0.241499
C56   C     C_R   0.163162 0.237604 0.908278 -0.225994
C57   C     C_R   0.356467 0.740139 0.001158 0.127877
C58   C     C_R   0.673018 0.723362 0.996680 0.102055
C59   C     C_R   0.863812 0.241784 0.002054 0.133144
C60   C     C_R   0.157379 0.232133 0.996986 0.125322
C61   C     C_R   0.368807 0.538961 0.448196 -0.176109
C62   C     C_R   0.383755 0.539636 0.367035 -0.170008
C63   C     C_R   0.869195 0.038693 0.447611 -0.176454
C64   C     C_R   0.876967 0.038855 0.360629 -0.170257
C65   C     C_R   0.425029 0.493996 0.353826 0.157252
C66   C     C_R   0.396530 0.492827 0.515999 0.148882
C67   C     C_R   0.917126 0.993578 0.344783 0.157084
C68   C     C_R   0.902492 0.993342 0.518317 0.151320
C69   C     C_R   0.429629 0.444398 0.403126 -0.181897
C70   C     C_R   0.414953 0.443780 0.483583 -0.176344
C71   C     C_R   0.930784 0.944836 0.401234 -0.180895
C72   C     C_R   0.923519 0.944758 0.487430 -0.177468
C73   C     C_R   0.496475 0.453426 0.264457 -0.157106
C74   C     C_R   0.447359 0.453115 0.696589 -0.172679
C75   C     C_R   0.983243 0.953354 0.249843 -0.158176
C76   C     C_R   0.949299 0.953311 0.697147 -0.176315
C77   C     C_R   0.244538 0.546283 0.698941 -0.151586
C78   C     C_R   0.765903 0.546500 0.246972 -0.138251
C79   C     C_R   0.734075 0.046936 0.756002 -0.153158
C80   C     C_R   0.255476 0.045979 0.300316 -0.140908
C81   C     C_R   0.490553 0.544214 0.261812 0.020236
C82   C     C_R   0.446757 0.543077 0.692655 0.023910
C83   C     C_R   0.984624 0.044223 0.255360 0.025941
C84   C     C_R   0.949245 0.043375 0.693867 0.021269
C85   C     C_R   0.242620 0.455360 0.698065 -0.133388
C86   C     C_R   0.771421 0.455870 0.260682 -0.121308
C87   C     C_R   0.730546 0.955850 0.748275 -0.117458
C88   C     C_R   0.258205 0.955088 0.302498 -0.140665
C89   C     C_R   0.350241 0.651483 0.906952 -0.150138
C90   C     C_R   0.650293 0.650567 0.091555 -0.158011
C91   C     C_R   0.854755 0.152670 0.908171 -0.168382
C92   C     C_R   0.153314 0.149581 0.093084 -0.149147
C93   C     C_R   0.408665 0.366289 0.089413 -0.132963
C94   C     C_R   0.594318 0.371185 0.907815 -0.131004
C95   C     C_R   0.933682 0.852827 0.092723 -0.151594
C96   C     C_R   0.097964 0.874634 0.908951 -0.127286
C97   C     C_R   0.321400 0.352928 0.996309 0.054039
C98   C     C_R   0.679905 0.353187 0.000303 0.051352
C99   C     C_R   0.860992 0.826999 0.002313 0.057347
C100  C     C_R   0.187185 0.861492 0.002037 0.047247
H1    H     H_    0.257398 0.366582 0.820183 0.097172
H2    H     H_    0.730421 0.352730 0.174355 0.082947
H3    H     H_    0.791509 0.840328 0.825168 0.089973
H4    H     H_    0.247358 0.872108 0.178344 0.095042
H5    H     H_    0.891598 0.603490 0.425717 0.149337
H6    H     H_    0.095016 0.637401 0.543901 0.136721
H7    H     H_    0.403300 0.136376 0.448711 0.138217
H8    H     H_    0.608169 0.101599 0.573853 0.146988
H9    H     H_    0.696980 0.335562 0.831902 0.113690
H10   H     H_    0.281129 0.343003 0.144231 0.121255
H11   H     H_    0.209610 0.843355 0.837944 0.115455
H12   H     H_    0.811566 0.830069 0.139514 0.116555
H13   H     H_    0.837626 0.307823 0.179321 0.108416
H14   H     H_    0.219785 0.280590 0.838949 0.115993
H15   H     H_    0.329220 0.805988 0.177606 0.111963
H16   H     H_    0.776414 0.743673 0.866711 0.118925
H17   H     H_    0.405494 0.729077 0.171129 0.150539
H18   H     H_    0.664941 0.683812 0.860888 0.129861
H19   H     H_    0.923389 0.235465 0.176593 0.154257
H20   H     H_    0.135418 0.207293 0.844065 0.139652
H21   H     H_    0.342216 0.575621 0.461451 0.129415
H22   H     H_    0.368175 0.576628 0.320069 0.120172
H23   H     H_    0.842703 0.075047 0.461991 0.128506
H24   H     H_    0.857358 0.075325 0.311044 0.119444
H25   H     H_    0.453357 0.406727 0.389053 0.104215
H26   H     H_    0.430507 0.406078 0.528557 0.106217
H27   H     H_    0.957426 0.907885 0.388791 0.105690
H28   H     H_    0.945757 0.908026 0.536656 0.107520
H29   H     H_    0.500930 0.411704 0.287923 0.092914
H30   H     H_    0.427921 0.411211 0.671920 0.094455
H31   H     H_    0.974316 0.911142 0.259489 0.097182
H32   H     H_    0.929997 0.911462 0.671643 0.097789
H33   H     H_    0.236159 0.587833 0.670650 0.090125
H34   H     H_    0.782346 0.588257 0.247174 0.099118
H35   H     H_    0.717227 0.089035 0.755604 0.100498
H36   H     H_    0.263227 0.087586 0.327880 0.101523
H37   H     H_    0.230857 0.413888 0.668750 0.084156
H38   H     H_    0.798522 0.415189 0.288172 0.087910
H39   H     H_    0.706832 0.914293 0.732496 0.092292
H40   H     H_    0.270955 0.913668 0.332883 0.087373
H41   H     H_    0.304049 0.662702 0.821293 0.139602
H42   H     H_    0.695586 0.663473 0.176129 0.144141
H43   H     H_    0.811638 0.164676 0.822950 0.146394
H44   H     H_    0.201166 0.160731 0.178467 0.139381
H45   H     H_    0.439905 0.350357 0.170718 0.089527
H46   H     H_    0.567542 0.366017 0.822805 0.094990
H47   H     H_    0.973625 0.838520 0.176702 0.092326
H48   H     H_    0.071207 0.867984 0.824275 0.095392
H49   H     H_    0.111927 0.418023 0.487535 0.123467
H50   H     H_    0.948831 0.418927 0.327264 0.124985
H51   H     H_    0.553645 0.920001 0.680339 0.126874
H52   H     H_    0.392487 0.918181 0.515784 0.123801
N1    N     N_R   0.394180 0.396910 0.943210 -0.040425
N2    N     N_R   0.605820 0.396910 0.056790 -0.039868
N3    N     N_R   0.894180 0.896910 0.943210 -0.037496
N4    N     N_R   0.105820 0.896910 0.056790 -0.040457
N5    N     N_R   0.450950 0.603070 0.056740 -0.070757
N6    N     N_R   0.549050 0.603070 0.943260 -0.073950
N7    N     N_R   0.950950 0.103070 0.056740 -0.069832
N8    N     N_R   0.049050 0.103070 0.943260 -0.073291
N9    N     N_R   0.525650 0.471570 0.206150 -0.046569
N10   N     N_R   0.474350 0.471570 0.793850 -0.043882
N11   N     N_R   0.025650 0.971570 0.206150 -0.045982
N12   N     N_R   0.974350 0.971570 0.793850 -0.044623
N13   N     N_R   0.319480 0.528420 0.793810 -0.039754
N14   N     N_R   0.680520 0.528420 0.206190 -0.037670
N15   N     N_R   0.819480 0.028420 0.793810 -0.040575
N16   N     N_R   0.180520 0.028420 0.206190 -0.037641
N17   N     N_R   0.525640 0.528390 0.206120 -0.049392
N18   N     N_R   0.474360 0.528390 0.793880 -0.052093
N19   N     N_R   0.025640 0.028390 0.206120 -0.047701
N20   N     N_R   0.974360 0.028390 0.793880 -0.052550
N21   N     N_R   0.319490 0.471590 0.793840 -0.039470
N22   N     N_R   0.680510 0.471590 0.206160 -0.043548
N23   N     N_R   0.819490 0.971590 0.793840 -0.042073
N24   N     N_R   0.180510 0.971590 0.206160 -0.042086
N25   N     N_R   0.394130 0.603080 0.943110 -0.068209
N26   N     N_R   0.605870 0.603080 0.056890 -0.062542
N27   N     N_R   0.894130 0.103080 0.943110 -0.066340
N28   N     N_R   0.105870 0.103080 0.056890 -0.061874
N29   N     N_R   0.450990 0.396900 0.056840 -0.039110
N30   N     N_R   0.549010 0.396900 0.943160 -0.040333
N31   N     N_R   0.950990 0.896900 0.056840 -0.036103
N32   N     N_R   0.049010 0.896900 0.943160 -0.040095
Ni1   Ni    Ni4+2 0.434860 0.434850 0.869700 0.203216
Ni2   Ni    Ni4+2 0.565140 0.434850 0.130300 0.209371
Ni3   Ni    Ni4+2 0.934860 0.934850 0.869700 0.205836
Ni4   Ni    Ni4+2 0.065140 0.934850 0.130300 0.206241
Ni5   Ni    Ni4+2 0.565130 0.565140 0.130240 0.239782
Ni6   Ni    Ni4+2 0.434870 0.565140 0.869760 0.225953
Ni7   Ni    Ni4+2 0.065130 0.065140 0.130240 0.238089
Ni8   Ni    Ni4+2 0.934870 0.065140 0.869760 0.226296
N33   N     N_3   0.944407 0.653655 0.354191 -0.205081
H53   H     H_    0.928234 0.687769 0.382526 0.113102
H54   H     H_    0.887935 0.648530 0.272083 0.113943
N34   N     N_3   0.040567 0.588999 0.616338 -0.194416
H55   H     H_    0.998599 0.618937 0.618574 0.114087
H56   H     H_    0.106862 0.593311 0.690435 0.115994
N35   N     N_3   0.461861 0.085758 0.382591 -0.195258
H57   H     H_    0.501031 0.115975 0.377484 0.113288
H58   H     H_    0.395507 0.087768 0.307671 0.116709
N36   N     N_3   0.551318 0.154151 0.638867 -0.205681
H59   H     H_    0.566432 0.187441 0.608269 0.106191
H60   H     H_    0.607562 0.150064 0.721534 0.108435
N37   N     N_3   0.300809 0.764472 0.811919 -0.214173
H61   H     H_    0.326240 0.798814 0.796135 0.109905
H62   H     H_    0.230032 0.759905 0.746145 0.090027
N38   N     N_3   0.688439 0.772018 0.150765 -0.220894
H63   H     H_    0.617827 0.784697 0.104561 0.109685
H64   H     H_    0.727672 0.803426 0.205882 0.100030
N39   N     N_3   0.799301 0.264134 0.808923 -0.216834
H65   H     H_    0.817549 0.300182 0.788771 0.111509
H66   H     H_    0.729210 0.255674 0.745284 0.085583
N40   N     N_3   0.185466 0.267281 0.168290 -0.223559
H67   H     H_    0.152199 0.303015 0.168170 0.110687
H68   H     H_    0.252689 0.265528 0.242449 0.094651
O1    O     O_3   0.531221 0.674317 0.182997 -0.811568
H69   H     H_    0.536815 0.713496 0.171826 0.313565
O2    O     O_3   0.480510 0.675553 0.813173 -0.818921
H70   H     H_    0.492822 0.715059 0.814678 0.313634
O3    O     O_3   0.035435 0.172869 0.184637 -0.814157
H71   H     H_    0.045836 0.211064 0.172914 0.314877
O4    O     O_3   0.976607 0.175944 0.815830 -0.820054
H72   H     H_    0.981646 0.216186 0.821907 0.318695
N41   N     N_3   0.502221 0.596991 0.308119 -0.222685
H73   H     H_    0.447280 0.622183 0.248972 0.117763
H74   H     H_    0.567177 0.612262 0.331838 0.172897
N42   N     N_3   0.420192 0.597049 0.650088 -0.233076
H75   H     H_    0.481740 0.619560 0.685127 0.157123
H76   H     H_    0.376262 0.613099 0.669878 0.163560
N43   N     N_3   0.996762 0.096338 0.304328 -0.221396
H77   H     H_    0.943300 0.122415 0.245618 0.115991
H78   H     H_    0.062649 0.111313 0.330859 0.170945
N44   N     N_3   0.924138 0.097533 0.651924 -0.232232
H79   H     H_    0.985889 0.120190 0.691425 0.155811
H80   H     H_    0.877386 0.113107 0.667928 0.164794

loop_
_geom_bond_atom_site_label_1
_geom_bond_atom_site_label_2
_ccdc_geom_bond_type
C94   H46   S    
N4    Ni4   S    
C49   H13   S    
C82   N18   A    
C55   C59   A    
N35   H58   S    
C45   O1    S    
C6    C58   S    
C19   C23   A    
C19   C20   A    
N17   Ni5   S    
N12   Ni3   S    
C71   H27   S    
N42   H76   S    
N4    N32   A    
C5    C57   S    
C40   H12   S    
C47   N7    A    
N37   H61   S    
N20   Ni8   S    
C4    C100  A    
N15   Ni8   S    
N2    Ni2   S    
C33   N37   S    
N9    Ni2   S    
N16   Ni7   S    
N36   H60   S    
C72   H28   S    
C36   C60   A    
C34   C40   A    
C35   C59   A    
C35   C37   A    
C38   C42   A    
C52   H16   S    
N6    Ni6   S    
C95   H47   S    
C65   C69   A    
C95   N31   A    
C44   C99   S    
N40   H68   S    
C94   C98   A    
C95   C99   A    
N13   N21   A    
C46   N6    A    
C96   C100  A    
C12   C84   A    
C25   H49   S    
N3    N31   A    
C7    C59   S    
C35   N39   S    
N8    N28   A    
C73   N9    A    
C92   N28   A    
C36   N40   S    
C33   C39   A    
C93   N29   A    
C61   C66   A    
C41   C49   A    
C30   N34   S    
N27   Ni8   S    
O4    H72   S    
C11   C67   S    
N38   H63   S    
N33   H54   S    
C83   N19   A    
C17   C18   A    
C8    C60   S    
C85   N21   A    
N44   H80   S    
C93   H45   S    
C8    C92   A    
C89   N25   A    
C38   H10   S    
C29   C30   S    
N11   N19   A    
C37   H9    S    
N9    N17   A    
C44   C52   A    
C15   C23   S    
C47   O3    S    
C69   H25   S    
N35   H57   S    
C16   C24   S    
C88   H40   S    
C30   H6    S    
C32   N36   S    
C17   C30   S    
C56   H20   S    
C79   N15   A    
C29   H5    S    
C61   C62   A    
C77   H33   S    
C96   N32   A    
C19   C32   S    
C31   N35   S    
N42   H75   S    
N1    Ni1   S    
C75   H31   S    
N24   Ni4   S    
C91   H43   S    
C10   C66   S    
C96   H48   S    
C73   H29   S    
C78   N14   A    
N14   N22   A    
N36   H59   S    
N19   Ni7   S    
C64   C67   A    
N7    Ni7   S    
C26   H50   S    
C45   N5    A    
C43   C100  S    
C14   C86   A    
N34   H56   S    
C42   C97   S    
C1    C97   A    
O2    H70   S    
C74   N10   A    
N26   Ni5   S    
C53   C57   A    
N40   H67   S    
C39   C43   A    
C11   C83   A    
C25   C26   A    
C6    C90   A    
C82   N42   S    
C10   C82   A    
C50   C56   A    
C56   C60   A    
C91   N27   A    
N11   Ni4   S    
C86   N22   A    
N30   Ni1   S    
C7    C47   A    
C84   N44   S    
C8    C48   A    
C76   N12   A    
O3    H71   S    
C12   C68   S    
N39   H65   S    
N10   N18   A    
C68   C72   A    
N39   H66   S    
C7    C91   A    
C9    C65   S    
C3    N3    A    
N41   H73   S    
C13   C21   S    
N43   H78   S    
C18   C29   S    
N5    N25   A    
C1    N1    A    
C78   H34   S    
N8    Ni8   S    
C90   H42   S    
C81   N41   S    
C42   C50   A    
C75   N11   A    
N38   H64   S    
C4    N4    A    
N1    N29   A    
C28   H52   S    
C1    H1    S    
C23   C27   A    
C12   C76   A    
C13   C77   A    
C32   H8    S    
C14   C22   S    
C64   H24   S    
N12   N20   A    
N44   H79   S    
C74   H30   S    
C93   C97   A    
C62   H22   S    
N43   H77   S    
C79   H35   S    
C83   N43   S    
C29   N33   S    
C34   C58   A    
C54   C58   A    
C85   H37   S    
C3    H3    S    
N16   N24   A    
C21   C25   A    
C63   C68   A    
C46   O2    S    
C33   C57   A    
N25   Ni6   S    
C6    C46   A    
C62   C65   A    
C27   H51   S    
C18   C22   A    
C31   H7    S    
C9    C73   A    
C31   C32   S    
C24   C28   A    
C61   H21   S    
C87   H39   S    
N34   H55   S    
C84   N20   A    
N28   Ni7   S    
C80   H36   S    
N10   Ni1   S    
C63   H23   S    
N29   Ni2   S    
C10   C74   A    
C55   H19   S    
C48   O4    S    
C15   C79   A    
C87   N23   A    
N18   Ni6   S    
C81   N17   A    
C88   N24   A    
N32   Ni3   S    
C51   H15   S    
N21   Ni1   S    
N14   Ni5   S    
C34   N38   S    
C48   N8    A    
C54   H18   S    
N6    N26   A    
C71   C72   A    
C11   C75   A    
N31   Ni4   S    
N22   Ni2   S    
C20   C24   A    
C39   H11   S    
C76   H32   S    
C70   H26   S    
C66   C70   A    
C5    C45   A    
C43   C51   A    
C53   H17   S    
C89   H41   S    
N2    N30   A    
O1    H69   S    
C36   C38   A    
N41   H74   S    
C52   C54   A    
C4    H4    S    
N15   N23   A    
C67   C71   A    
C14   C78   A    
C49   C55   A    
C37   C41   A    
C69   C70   A    
C92   H44   S    
N5    Ni5   S    
N13   Ni6   S    
C86   H38   S    
C51   C53   A    
N23   Ni3   S    
C63   C64   A    
C3    C99   A    
C40   C44   A    
N7    N27   A    
C2    C98   A    
C2    N2    A    
N33   H53   S    
C22   C26   A    
C15   C87   A    
C13   C85   A    
C50   H14   S    
C16   C88   A    
C2    H2    S    
C41   C98   S    
N3    Ni3   S    
C94   N30   A    
C16   C80   A    
N37   H62   S    
C77   N13   A    
C80   N16   A    
C5    C89   A    
C9    C81   A    
C90   N26   A    
C27   C28   A    
C20   C31   S    
C17   C21   A    
