data_mof_unit_1521.cif
_audit_creation_date              2012-12-10T17:03:58-0500
_audit_creation_method            fapswitch 2.2
_symmetry_space_group_name_H-M    P1
_symmetry_Int_Tables_number       1
_space_group_crystal_system       triclinic
_cell_length_a                    9.839055
_cell_length_b                    11.070132
_cell_length_c                    15.640355
_cell_angle_alpha                 95.438443
_cell_angle_beta                  78.693355
_cell_angle_gamma                 112.272652
_cell_volume                      1545.45285077

loop_
_atom_site_label
_atom_site_type_symbol
_atom_type_description
_atom_site_fract_x
_atom_site_fract_y
_atom_site_fract_z
_atom_type_partial_charge
C1    C     C_R   0.558216 0.746416 0.505667 0.828624
C2    C     C_R   0.442283 0.253683 0.493478 0.838200
C3    C     C_R   0.331401 0.329742 0.067003 0.301153
C4    C     C_R   0.675397 0.465679 0.910046 0.372094
C5    C     C_R   0.221957 0.298936 0.013655 0.446448
C6    C     C_R   0.784766 0.500727 0.964591 0.360457
C7    C     C_2   0.595332 0.888067 0.506723 0.005910
C8    C     C_2   0.407179 0.112294 0.488754 0.001393
C9    C     C_2   0.496532 0.931379 0.484764 -0.140609
C10   C     C_2   0.519341 0.070052 0.486039 -0.144495
C11   C     C_2   0.920569 0.487027 0.493287 0.378248
C12   C     C_2   0.077806 0.510757 0.507800 0.371799
C13   C     C_R   0.409040 0.482455 0.663729 0.818641
C14   C     C_R   0.590934 0.518128 0.336037 0.853493
C15   C     C_R   0.348215 0.451267 0.757785 -0.261153
C16   C     C_R   0.648085 0.526272 0.239665 -0.167320
C17   C     C_R   0.154884 0.320157 0.872821 0.509873
C18   C     C_R   0.847410 0.545602 0.113253 0.488680
C19   C     C_R   0.197268 0.370210 0.787456 0.000958
C20   C     C_R   0.802101 0.562164 0.204113 -0.040403
C21   C     C_R   0.449570 0.489554 0.816890 0.455015
C22   C     C_R   0.545615 0.496993 0.182084 0.367925
C23   C     C_R   0.413433 0.423873 0.896111 -0.066524
C24   C     C_R   0.587898 0.470687 0.092339 -0.169717
C25   C     C_R   0.262113 0.348064 0.928008 -0.146675
C26   C     C_R   0.741201 0.505450 0.056550 -0.050536
C27   C     C_R   0.524177 0.439962 0.947179 0.009677
C28   C     C_R   0.480041 0.415371 0.036806 -0.159351
Cu1   Cu    Cu3+1 0.362980 0.479380 0.485080 1.009219
Cu2   Cu    Cu3+1 0.637020 0.520620 0.514920 0.999869
H1    H     H_    0.631676 0.140454 0.486270 0.200496
H2    H     H_    0.393778 0.861779 0.466586 0.188301
H3    H     H_    0.110709 0.373774 0.420534 0.172485
H4    H     H_    0.891489 0.627958 0.577844 0.168344
N1    N     N_2   0.842890 0.551600 0.537350 -0.272903
N2    N     N_2   0.157110 0.448400 0.462650 -0.276093
O1    O     O_R   0.426810 0.668300 0.492040 -0.535551
O2    O     O_R   0.573190 0.331700 0.507960 -0.531619
O3    O     O_R   0.658240 0.703130 0.517240 -0.589894
O4    O     O_R   0.341760 0.296870 0.482760 -0.585820
O5    O     O_R   0.319390 0.472820 0.610170 -0.534781
O6    O     O_R   0.680610 0.527180 0.389830 -0.547037
O7    O     O_R   0.550820 0.507640 0.635370 -0.542373
O8    O     O_R   0.449180 0.492360 0.364630 -0.509856
O9    O     O_3   0.075500 0.220169 0.043859 -0.646865
H5    H     H_    0.060000 0.205752 0.107094 0.365787
O10   O     O_3   0.934330 0.536771 0.928879 -0.646281
H6    H     H_    0.952504 0.575568 0.871214 0.326173
O11   O     O_3   0.407815 0.505197 0.213758 -0.676144
H7    H     H_    0.376298 0.537673 0.167032 0.334108
O12   O     O_3   0.580513 0.597881 0.801832 -0.669884
H8    H     H_    0.568187 0.657655 0.763210 0.316503
C29   C     C_3   0.919901 0.634835 0.259569 -0.779590
H9    H     H_    0.883935 0.703547 0.306166 0.239145
H10   H     H_    0.943008 0.564787 0.295032 0.244507
H11   H     H_    0.025803 0.697595 0.219987 0.237154
C30   C     C_3   0.079772 0.341075 0.730504 -0.769506
H12   H     H_    0.101532 0.279566 0.673182 0.233811
H13   H     H_    0.964349 0.289735 0.764254 0.223870
H14   H     H_    0.080288 0.433966 0.709276 0.251763
O13   O     O_3   0.009345 0.240508 0.902013 -0.636464
H15   H     H_    0.982499 0.167542 0.858816 0.318542
O14   O     O_3   0.995034 0.567033 0.078973 -0.645381
H16   H     H_    0.039465 0.540804 0.122219 0.326997
O15   O     O_3   0.292737 0.265094 0.144746 -0.709274
H17   H     H_    0.382124 0.254422 0.157724 0.347019
O16   O     O_3   0.710113 0.440512 0.821779 -0.695310
H18   H     H_    0.796974 0.413223 0.810941 0.319583
C31   C     C_3   0.247773 0.018868 0.488864 -0.850363
H19   H     H_    0.169012 0.070531 0.495713 0.244398
H20   H     H_    0.239966 0.961163 0.426721 0.240007
H21   H     H_    0.210685 0.951830 0.544504 0.243161
C32   C     C_3   0.740606 0.980540 0.532901 -0.858644
H22   H     H_    0.805481 0.927974 0.552393 0.246766
H23   H     H_    0.811427 0.043203 0.477302 0.238519
H24   H     H_    0.717482 0.042866 0.589417 0.242746
O17   O     O_3   0.140810 0.599349 0.570485 -0.699310
H25   H     H_    0.061900 0.595217 0.621384 0.286087
O18   O     O_3   0.855379 0.395934 0.432370 -0.704500
H26   H     H_    0.932784 0.396200 0.381514 0.286275

loop_
_geom_bond_atom_site_label_1
_geom_bond_atom_site_label_2
_ccdc_geom_bond_type
C32   H22   S    
C18   C26   A    
C13   O7    A    
C13   O5    A    
C7    C32   S    
O17   H25   S    
C19   C30   S    
C15   C19   A    
Cu1   N2    S    
C8    C31   S    
Cu2   N1    S    
C22   C24   A    
C3    C28   A    
C24   C26   A    
C31   H19   S    
C18   O14   S    
C30   H13   S    
H3    N2    S    
Cu2   O2    S    
H4    N1    S    
C31   H20   S    
C9    H2    S    
C17   O13   S    
C10   H1    S    
C23   C27   A    
C12   N2    D    
C9    C10   S    
C1    O1    A    
C14   O6    A    
C32   H23   S    
C3    O15   S    
C29   H10   S    
C21   C23   A    
C6    O10   S    
O12   H8    S    
C4    C6    A    
C30   H14   S    
O9    H5    S    
C5    O9    S    
O18   H26   S    
C31   H21   S    
O16   H18   S    
Cu1   Cu2   S    
C2    O2    A    
O10   H6    S    
C16   C20   A    
C12   O17   S    
C11   O18   S    
C22   O11   S    
C5    C25   A    
O11   H7    S    
C13   C15   S    
Cu1   O8    S    
C32   H24   S    
C14   C16   S    
Cu2   O7    S    
C21   O12   S    
C4    C27   A    
C14   O8    A    
C29   H11   S    
C7    C9    D    
C16   C22   A    
Cu1   O5    S    
C1    C7    S    
C2    C8    S    
C24   C28   A    
C20   C29   S    
C3    C5    A    
C4    O16   S    
C11   C12   S    
C29   H9    S    
C17   C25   A    
C11   N1    D    
C30   H12   S    
C6    C26   A    
Cu1   O4    S    
C17   C19   A    
Cu2   O3    S    
C18   C20   A    
C23   C25   A    
O13   H15   S    
C1    O3    A    
O14   H16   S    
C2    O4    A    
C15   C21   A    
C8    C10   D    
O15   H17   S    
Cu1   O1    S    
C27   C28   A    
Cu2   O6    S    
