data_mof_unit_2064.cif
_audit_creation_date              2012-12-10T17:46:28-0500
_audit_creation_method            fapswitch 2.2
_symmetry_space_group_name_H-M    P1
_symmetry_Int_Tables_number       1
_space_group_crystal_system       triclinic
_cell_length_a                    20.792469
_cell_length_b                    21.396335
_cell_length_c                    14.813952
_cell_angle_alpha                 89.999896
_cell_angle_beta                  127.890362
_cell_angle_gamma                 89.999348
_cell_volume                      5201.1158877

loop_
_atom_site_label
_atom_site_type_symbol
_atom_type_description
_atom_site_fract_x
_atom_site_fract_y
_atom_site_fract_z
_atom_type_partial_charge
C1    C     C_R   0.601805 0.913495 0.630056 0.843058
C2    C     C_R   0.640937 0.320215 0.958992 -0.169045
C3    C     C_R   0.713492 0.752229 0.936998 0.095220
C4    C     C_R   0.220589 0.744114 0.944557 0.074585
C5    C     C_R   0.786505 0.252230 0.063000 0.095215
C6    C     C_R   0.779409 0.744113 0.055444 0.074556
C7    C     C_R   0.213499 0.252227 0.936996 0.095222
C8    C     C_R   0.354427 0.712291 0.112873 -0.124345
C9    C     C_R   0.653143 0.284471 0.893117 -0.110791
C10   C     C_R   0.645628 0.712244 0.887063 -0.124339
C11   C     C_R   0.346848 0.284476 0.106889 -0.110741
C12   C     C_R   0.854370 0.212243 0.112937 -0.124353
C13   C     C_R   0.634231 0.676733 0.954451 -0.173417
C14   C     C_R   0.153118 0.784442 0.893156 -0.110833
C15   C     C_R   0.145641 0.212234 0.887050 -0.124359
C16   C     C_R   0.846851 0.784472 0.106883 -0.110760
C17   C     C_2   0.355854 0.978903 0.019251 0.822881
C18   C     C_2   0.644129 0.978872 0.980735 0.822854
C19   C     C_2   0.855866 0.478893 0.019262 0.822885
C20   C     C_2   0.144134 0.478867 0.980742 0.822875
C21   C     C_2   0.434711 0.811530 0.282746 0.841759
C22   C     C_2   0.571686 0.180968 0.736566 0.822994
C23   C     C_2   0.565313 0.811505 0.717230 0.841735
C24   C     C_R   0.359057 0.320223 0.041021 -0.169047
C25   C     C_2   0.428312 0.180977 0.263452 0.822988
C26   C     C_2   0.934684 0.311511 0.282749 0.841743
C27   C     C_2   0.071700 0.680914 0.736683 0.823049
C28   C     C_2   0.065322 0.311501 0.717235 0.841741
C29   C     C_2   0.928310 0.680964 0.263423 0.822993
C30   C     C_2   0.255010 0.976865 0.781407 0.863653
C31   C     C_2   0.744980 0.976848 0.218580 0.863674
C32   C     C_2   0.755008 0.476924 0.781410 0.863680
C33   C     C_2   0.244984 0.476821 0.218588 0.863696
C34   C     C_R   0.865766 0.176729 0.045551 -0.173405
C35   C     C_R   0.140920 0.820159 0.959064 -0.169081
C36   C     C_R   0.134243 0.176716 0.954429 -0.173396
C37   C     C_R   0.859058 0.820215 0.041009 -0.169065
C38   C     C_R   0.323745 0.983020 0.664388 -0.250016
C39   C     C_R   0.676254 0.983026 0.335608 -0.250030
C40   C     C_R   0.823740 0.483056 0.664389 -0.250013
C41   C     C_R   0.397200 0.085779 0.368502 0.852331
C42   C     C_R   0.176251 0.483005 0.335610 -0.250023
C43   C     C_R   0.353850 0.987076 0.603337 0.081136
C44   C     C_R   0.646152 0.987081 0.396662 0.081129
C45   C     C_R   0.853845 0.487097 0.603336 0.081118
C46   C     C_R   0.146148 0.487068 0.396662 0.081128
C47   C     C_R   0.485201 0.009313 0.773392 0.114920
C48   C     C_R   0.514796 0.009312 0.226608 0.114937
C49   C     C_R   0.985207 0.509306 0.773393 0.114942
C50   C     C_R   0.014800 0.509318 0.226609 0.114909
C51   C     C_R   0.461067 0.997946 0.844162 -0.007807
C52   C     C_R   0.398199 0.913492 0.369948 0.843030
C53   C     C_R   0.538928 0.997947 0.155834 -0.007818
C54   C     C_R   0.961071 0.497951 0.844165 -0.007800
C55   C     C_R   0.038932 0.497945 0.155837 -0.007798
C56   C     C_R   0.376271 0.989154 0.784963 0.063493
C57   C     C_R   0.623724 0.989155 0.215033 0.063483
C58   C     C_R   0.876272 0.489179 0.784965 0.063482
C59   C     C_R   0.123726 0.489141 0.215036 0.063488
C60   C     C_R   0.516594 0.995094 0.968869 -0.004538
C61   C     C_R   0.483398 0.995097 0.031127 -0.004543
C62   C     C_R   0.016599 0.495094 0.968873 -0.004526
C63   C     C_R   0.602799 0.085780 0.631497 0.852325
C64   C     C_R   0.983403 0.495100 0.031130 -0.004534
C65   C     C_R   0.396430 0.988600 0.966106 -0.069515
C66   C     C_R   0.603561 0.988589 0.033886 -0.069521
C67   C     C_R   0.896435 0.488612 0.966112 -0.069540
C68   C     C_R   0.103565 0.488581 0.033891 -0.069491
C69   C     C_R   0.344560 0.985087 0.845450 -0.059377
C70   C     C_R   0.655432 0.985082 0.154542 -0.059365
C71   C     C_R   0.844561 0.485120 0.845454 -0.059374
C72   C     C_R   0.155435 0.485064 0.154548 -0.059390
C73   C     C_R   0.668616 0.127858 0.715833 -0.086202
C74   C     C_R   0.101806 0.413495 0.630057 0.843073
C75   C     C_R   0.334030 0.869628 0.288878 -0.093692
C76   C     C_R   0.331380 0.127856 0.284164 -0.086198
C77   C     C_R   0.665988 0.869642 0.711142 -0.093690
C78   C     C_R   0.168600 0.627878 0.715807 -0.086231
C79   C     C_R   0.834012 0.369644 0.288855 -0.093704
C80   C     C_R   0.831384 0.627860 0.284169 -0.086170
C81   C     C_R   0.165992 0.369645 0.711147 -0.093716
C82   C     C_R   0.814026 0.131863 0.863482 -0.172045
C83   C     C_R   0.189554 0.864754 0.139043 -0.176953
C84   C     C_R   0.185974 0.131850 0.136495 -0.172042
C85   C     C_R   0.897201 0.585780 0.368503 0.852333
C86   C     C_R   0.810454 0.864821 0.861048 -0.176955
C87   C     C_R   0.314023 0.631959 0.863343 -0.172086
C88   C     C_R   0.689545 0.364823 0.138953 -0.176941
C89   C     C_R   0.685972 0.631871 0.136526 -0.172058
C90   C     C_R   0.310458 0.364832 0.861063 -0.176934
C91   C     C_R   0.747498 0.112708 0.755550 -0.206737
C92   C     C_R   0.254736 0.884979 0.246500 -0.206792
C93   C     C_R   0.252499 0.112700 0.244434 -0.206741
C94   C     C_R   0.745280 0.885028 0.753567 -0.206793
C95   C     C_R   0.247477 0.612780 0.755443 -0.206732
C96   C     C_R   0.898195 0.413495 0.369943 0.843063
C97   C     C_R   0.754720 0.385029 0.246433 -0.206792
C98   C     C_R   0.752502 0.612716 0.244458 -0.206729
C99   C     C_R   0.245284 0.385036 0.753579 -0.206789
C100  C     C_R   0.656277 0.171603 0.775639 -0.060868
C101  C     C_R   0.348465 0.823625 0.234428 -0.078220
C102  C     C_R   0.343720 0.171604 0.224364 -0.060860
C103  C     C_R   0.651558 0.823622 0.765572 -0.078272
C104  C     C_R   0.156271 0.671599 0.775653 -0.060832
C105  C     C_R   0.848441 0.323626 0.234420 -0.078276
C106  C     C_R   0.843721 0.671603 0.224359 -0.060861
C107  C     C_R   0.102795 0.585784 0.631491 0.852309
C108  C     C_R   0.151564 0.323623 0.765575 -0.078267
C109  C     C_R   0.725391 0.196966 0.880747 0.026632
C110  C     C_R   0.280625 0.798888 0.126931 0.021789
C111  C     C_R   0.274607 0.196963 0.119248 0.026645
C112  C     C_R   0.719395 0.798898 0.873084 0.021799
C113  C     C_R   0.225393 0.696988 0.880720 0.026634
C114  C     C_R   0.780602 0.298900 0.126911 0.021805
C115  C     C_R   0.774606 0.696968 0.119253 0.026644
C116  C     C_R   0.219401 0.298900 0.873089 0.021804
C117  C     C_R   0.802633 0.169990 0.929165 0.158389
C118  C     C_R   0.365811 0.676812 0.045441 -0.173444
C119  C     C_R   0.202879 0.826355 0.075823 0.136150
C120  C     C_R   0.197368 0.169981 0.070818 0.158400
C121  C     C_R   0.797126 0.826401 0.924239 0.136116
C122  C     C_R   0.302647 0.670060 0.929072 0.158365
C123  C     C_R   0.702871 0.326402 0.075760 0.136112
C124  C     C_R   0.697364 0.669995 0.070838 0.158395
C125  C     C_R   0.297130 0.326408 0.924250 0.136101
C126  C     C_R   0.720586 0.244112 0.944554 0.074537
C127  C     C_R   0.286532 0.752242 0.062987 0.095218
C128  C     C_R   0.279411 0.244112 0.055445 0.074550
Cu1   Cu    Cu3+1 0.526640 1.000000 0.436960 0.994390
Cu2   Cu    Cu3+1 0.473360 1.000000 0.563040 0.994387
Cu3   Cu    Cu3+1 0.026640 0.500000 0.436960 0.994384
Cu4   Cu    Cu3+1 0.973360 0.500000 0.563040 0.994383
H1    H     H_    0.422220 0.651032 0.085925 0.140219
H2    H     H_    0.757214 0.079137 0.710199 0.146999
H3    H     H_    0.756247 0.919682 0.711038 0.144398
H4    H     H_    0.242783 0.079125 0.289780 0.146998
H5    H     H_    0.743753 0.419682 0.288964 0.144402
H6    H     H_    0.257187 0.579231 0.710058 0.147049
H7    H     H_    0.256250 0.419693 0.711052 0.144400
H8    H     H_    0.742788 0.579147 0.289813 0.146998
H9    H     H_    0.456357 0.027904 0.193323 0.152499
H10   H     H_    0.543641 0.027906 0.806681 0.152505
H11   H     H_    0.956363 0.527916 0.193320 0.152507
H12   H     H_    0.584634 0.346344 0.917135 0.142858
H13   H     H_    0.043652 0.527884 0.806680 0.152535
H14   H     H_    0.259344 0.973494 0.615848 0.161693
H15   H     H_    0.740656 0.973505 0.384148 0.161693
H16   H     H_    0.759335 0.473548 0.615849 0.161683
H17   H     H_    0.240651 0.473471 0.384149 0.161703
H18   H     H_    0.335216 0.922301 0.106481 0.335811
H19   H     H_    0.664735 0.922256 0.893489 0.335830
H20   H     H_    0.835258 0.422274 0.106502 0.335830
H21   H     H_    0.164737 0.422257 0.893488 0.335830
H22   H     H_    0.519923 0.810769 0.258010 0.337044
H23   H     H_    0.577841 0.650922 0.913926 0.140213
H24   H     H_    0.454858 0.201801 0.606020 0.340931
H25   H     H_    0.480091 0.810695 0.741943 0.337053
H26   H     H_    0.545132 0.201816 0.394011 0.340933
H27   H     H_    0.019895 0.310702 0.258015 0.337061
H28   H     H_    0.954837 0.701709 0.606237 0.340923
H29   H     H_    0.980102 0.310686 0.741947 0.337062
H30   H     H_    0.045142 0.701791 0.393960 0.340916
H31   H     H_    0.373779 0.613589 0.898424 0.132232
H32   H     H_    0.629429 0.383340 0.101536 0.136499
H33   H     H_    0.626223 0.613464 0.101391 0.132213
H34   H     H_    0.415356 0.346357 0.082883 0.142858
H35   H     H_    0.370573 0.383355 0.898488 0.136499
H36   H     H_    0.873775 0.113454 0.898620 0.132222
H37   H     H_    0.129429 0.883243 0.101659 0.136492
H38   H     H_    0.126227 0.113432 0.101346 0.132221
H39   H     H_    0.870570 0.883339 0.898468 0.136490
H40   H     H_    0.399779 0.707501 0.204049 0.155776
H41   H     H_    0.608328 0.288554 0.801531 0.158171
H42   H     H_    0.600306 0.707455 0.795880 0.155779
H43   H     H_    0.391655 0.288560 0.198474 0.158173
H44   H     H_    0.899693 0.207456 0.204120 0.155783
H45   H     H_    0.922156 0.150917 0.086078 0.140228
H46   H     H_    0.108275 0.788518 0.801574 0.158163
H47   H     H_    0.100326 0.207446 0.795866 0.155786
H48   H     H_    0.891664 0.788554 0.198468 0.158169
H49   H     H_    0.142608 0.013878 0.671705 0.338351
H50   H     H_    0.857388 0.013855 0.328253 0.338348
H51   H     H_    0.642627 0.513978 0.671748 0.338354
H52   H     H_    0.357400 0.513807 0.328299 0.338354
H53   H     H_    0.686617 0.980512 0.488393 0.120079
H54   H     H_    0.313387 0.980505 0.511607 0.120073
H55   H     H_    0.186611 0.480494 0.488392 0.120083
H56   H     H_    0.084599 0.846263 0.917239 0.142841
H57   H     H_    0.813378 0.480534 0.511604 0.120074
H58   H     H_    0.077858 0.150897 0.913894 0.140229
H59   H     H_    0.915360 0.846345 0.082866 0.142845
H60   H     H_    0.243765 0.919618 0.289047 0.144414
N1    N     N_R   0.433280 0.000000 0.657760 -0.192618
N2    N     N_R   0.566720 1.000000 0.342240 -0.192622
N3    N     N_R   0.933280 0.500000 0.657760 -0.192636
N4    N     N_R   0.066720 0.500000 0.342240 -0.192621
O1    O     O_R   0.600040 0.935040 0.546740 -0.589148
O2    O     O_R   0.444990 0.064930 0.346780 -0.579610
O3    O     O_R   0.444990 0.935070 0.346780 -0.570732
O4    O     O_R   0.555010 0.064930 0.653220 -0.579604
O5    O     O_R   0.055010 0.435070 0.653220 -0.570743
O6    O     O_R   0.944990 0.564930 0.346780 -0.579613
O7    O     O_R   0.944990 0.435070 0.346780 -0.570735
O8    O     O_R   0.055010 0.564930 0.653220 -0.579598
O9    O     O_2   0.309362 0.018729 0.008642 -0.584753
O10   O     O_R   0.368427 0.923532 0.077565 -0.697590
O11   O     O_2   0.690634 0.018682 0.991343 -0.584753
O12   O     O_R   0.399960 0.064960 0.453260 -0.587091
O13   O     O_R   0.631528 0.923500 0.922411 -0.697599
O14   O     O_2   0.809366 0.518707 0.008666 -0.584750
O15   O     O_R   0.868462 0.423518 0.077576 -0.697609
O16   O     O_2   0.190640 0.518677 0.991355 -0.584721
O17   O     O_R   0.131532 0.423498 0.922411 -0.697616
O18   O     O_2   0.484249 0.796464 0.383176 -0.562371
O19   O     O_R   0.459683 0.819404 0.214730 -0.707352
O20   O     O_2   0.555802 0.171754 0.802468 -0.580425
O21   O     O_R   0.509985 0.198075 0.623124 -0.736066
O22   O     O_2   0.515787 0.796449 0.616794 -0.562380
O23   O     O_R   0.399960 0.935040 0.453260 -0.589167
O24   O     O_R   0.540328 0.819344 0.785236 -0.707371
O25   O     O_2   0.444207 0.171768 0.197562 -0.580422
O26   O     O_R   0.490003 0.198085 0.376896 -0.736077
O27   O     O_2   0.984216 0.296457 0.383185 -0.562357
O28   O     O_R   0.959658 0.319348 0.214730 -0.707372
O29   O     O_2   0.055885 0.671661 0.802651 -0.580437
O30   O     O_R   0.009941 0.698020 0.623266 -0.736116
O31   O     O_2   0.015799 0.296442 0.616802 -0.562366
O32   O     O_R   0.040337 0.319338 0.785239 -0.707371
O33   O     O_2   0.944188 0.671750 0.197513 -0.580428
O34   O     O_R   0.600040 0.064960 0.546740 -0.587102
O35   O     O_R   0.990017 0.698068 0.376865 -0.736134
O36   O     O_2   0.228600 0.928451 0.791386 -0.576263
O37   O     O_R   0.201707 0.024793 0.710427 -0.742413
O38   O     O_2   0.771384 0.928422 0.208627 -0.576289
O39   O     O_R   0.798290 0.024779 0.289529 -0.742398
O40   O     O_2   0.728572 0.428513 0.791347 -0.576283
O41   O     O_R   0.701731 0.524875 0.710475 -0.742402
O42   O     O_2   0.271378 0.428402 0.208603 -0.576291
O43   O     O_R   0.298304 0.524736 0.289577 -0.742412
O44   O     O_R   0.100040 0.435040 0.546740 -0.589148
O45   O     O_R   0.899960 0.564960 0.453260 -0.587093
O46   O     O_R   0.899960 0.435040 0.453260 -0.589148
O47   O     O_R   0.100040 0.564960 0.546740 -0.587114
O48   O     O_R   0.555010 0.935070 0.653220 -0.570738

loop_
_geom_bond_atom_site_label_1
_geom_bond_atom_site_label_2
_ccdc_geom_bond_type
C10   H42   S    
C73   C100  A    
C87   H31   S    
C45   N3    A    
C16   H48   S    
C22   O20   D    
C5    C114  A    
C19   O14   D    
C2    H12   S    
C77   C94   A    
C35   C119  A    
Cu3   N4    S    
C103  C112  A    
C93   H4    S    
C107  O47   A    
C28   O32   S    
H21   O17   S    
Cu1   N2    S    
C8    C118  A    
C82   H36   S    
C2    C123  A    
C83   C92   A    
C47   H10   S    
Cu4   O5    S    
C36   H58   S    
C17   O10   S    
C37   C121  A    
C55   C59   A    
Cu4   O45   S    
C42   C46   A    
C90   H35   S    
C58   C71   A    
C32   O41   S    
C83   C119  A    
C49   C54   A    
C39   C57   A    
C80   C106  A    
C11   C24   A    
C1    C77   S    
C63   O4    A    
C79   C105  A    
C112  C121  A    
C51   C56   A    
C118  C122  A    
C30   O36   D    
C42   H17   S    
Cu3   O6    S    
C107  O8    A    
C38   H14   S    
C62   C64   A    
C33   O42   D    
C86   C94   A    
C33   C72   S    
C50   N4    A    
C92   H60   S    
C31   C70   S    
C23   C103  S    
C113  C122  A    
C35   H56   S    
C52   O23   A    
C87   C95   A    
C5    C126  A    
Cu4   N3    S    
C21   O19   S    
C19   C67   S    
H24   O21   S    
C59   C72   A    
H22   O19   S    
C57   C70   A    
Cu3   O7    S    
C3    C112  A    
H52   O43   S    
Cu1   O2    S    
C68   C72   A    
C110  C127  A    
C12   H44   S    
H29   O32   S    
C21   C101  S    
Cu2   N1    S    
C34   C117  A    
C7    C15   A    
C81   C108  A    
C60   C66   A    
C100  C109  A    
H26   O26   S    
C74   O44   A    
C9    C126  A    
C99   H7    S    
C102  C111  A    
C40   C45   A    
C7    C128  A    
Cu2   O48   S    
C88   C123  A    
Cu2   O4    S    
C26   C105  S    
C97   H5    S    
C79   C97   A    
C32   C71   S    
C80   C98   A    
C76   C102  A    
C48   C53   A    
C31   O38   D    
Cu4   O8    S    
C40   C58   A    
C40   H16   S    
C109  C117  A    
C86   H39   S    
C64   C67   A    
C105  C114  A    
C18   O13   S    
C22   C100  S    
C73   C91   A    
C5    C12   A    
C49   N3    A    
C14   C35   A    
C13   C124  A    
C53   C57   A    
C27   O29   D    
C47   C51   A    
C54   C62   A    
C43   H54   S    
C37   H59   S    
C101  C110  A    
C88   H32   S    
C89   C98   A    
C78   C104  A    
Cu1   O34   S    
H25   O24   S    
C82   C91   A    
C98   H8    S    
C18   O11   D    
C7    C116  A    
C13   H23   S    
C36   C120  A    
C24   H34   S    
C63   C73   S    
C80   C85   S    
C33   O43   S    
C1    O48   A    
C61   C65   A    
C76   C93   A    
C4    C113  A    
C8    C127  A    
C78   C95   A    
C84   C120  A    
C96   O46   A    
C55   C64   A    
C86   C121  A    
C85   O45   A    
C94   H3    S    
C49   H13   S    
C25   O26   S    
C27   O30   S    
C52   O3    A    
C14   H46   S    
C25   O25   D    
C9    H41   S    
Cu3   O44   S    
C89   H33   S    
Cu1   O3    S    
C118  H1    S    
C85   O6    A    
C78   C107  S    
C63   O34   A    
C28   O31   D    
C114  C123  A    
H50   O39   S    
Cu4   O46   S    
C17   C65   S    
C74   O5    A    
C22   O21   S    
C116  C125  A    
C110  C119  A    
C26   O28   S    
C24   C125  A    
C46   H55   S    
C19   O15   S    
C29   C106  S    
C77   C103  A    
C74   C81   S    
C53   C61   A    
Cu3   Cu4   S    
C75   C92   A    
C15   C36   A    
C26   O27   D    
C30   C69   S    
C50   H11   S    
C96   O7    A    
Cu1   Cu2   S    
C32   O40   D    
C45   H57   S    
C90   C99   A    
C23   O24   S    
C95   H6    S    
C115  C124  A    
H19   O13   S    
C4    C127  A    
C48   N2    A    
C44   N2    A    
C47   N1    A    
C1    O1    A    
C88   C97   A    
C16   C37   A    
C41   O2    A    
C34   H45   S    
C10   C13   A    
H27   O28   S    
C42   C59   A    
C87   C122  A    
C20   C68   S    
C46   N4    A    
C39   C44   A    
C111  C120  A    
C89   C124  A    
C18   C66   S    
C38   C56   A    
C81   C99   A    
C44   H53   S    
C29   O35   S    
C84   H38   S    
C50   C55   A    
C62   C68   A    
C106  C115  A    
C43   N1    A    
C20   O17   S    
C108  C116  A    
C41   O12   A    
C17   O9    D    
C15   H47   S    
H30   O35   S    
C29   O33   D    
C38   C43   A    
C3    C10   A    
Cu3   O47   S    
H51   O41   S    
C41   C76   S    
C66   C70   A    
C91   H2    S    
C31   O39   S    
C28   C108  S    
H20   O15   S    
C65   C69   A    
C83   H37   S    
C11   H43   S    
C90   C125  A    
H28   O30   S    
C48   H9    S    
C11   C128  A    
C67   C71   A    
C84   C93   A    
C20   O16   D    
C30   O37   S    
C4    C14   A    
Cu2   O23   S    
C25   C102  S    
C6    C115  A    
C23   O22   D    
Cu2   O12   S    
C52   C75   S    
C6    C16   A    
C104  C113  A    
H49   O37   S    
C109  C126  A    
C79   C96   S    
C54   C58   A    
C56   C69   A    
C3    C6    A    
C39   H15   S    
C111  C128  A    
C75   C101  A    
C21   O18   D    
C60   C61   A    
C27   C104  S    
C51   C60   A    
C82   C117  A    
C2    C9    A    
C12   C34   A    
Cu1   O1    S    
C8    H40   S    
H18   O10   S    
