data_mof_unit_1546.cif
_audit_creation_date              2012-10-26T18:34:22-0400
_audit_creation_method            fapswitch 2.2
_symmetry_space_group_name_H-M    P1
_symmetry_Int_Tables_number       1
_space_group_crystal_system       triclinic
_cell_length_a                    10.803807
_cell_length_b                    9.535244
_cell_length_c                    9.081002
_cell_angle_alpha                 89.953917
_cell_angle_beta                  90.202555
_cell_angle_gamma                 90.179233
_cell_volume                      935.486283261

loop_
_atom_site_label
_atom_site_type_symbol
_atom_type_description
_atom_site_fract_x
_atom_site_fract_y
_atom_site_fract_z
_atom_type_partial_charge
C1    C     C_R   0.262373 0.499739 0.498706 0.578145
C2    C     C_R   0.065621 0.581261 0.602930 0.066638
C3    C     C_R   0.871242 0.500783 0.499283 0.050149
C4    C     C_R   0.128367 0.499392 0.498468 0.029305
C5    C     C_R   0.425989 0.074109 0.405124 0.018806
C6    C     C_R   0.574539 0.925828 0.594373 0.018415
C7    C     C_R   0.574456 0.074541 0.594459 0.019306
C8    C     C_R   0.425734 0.925439 0.405371 0.021136
C9    C     C_R   0.737497 0.500235 0.500130 0.612896
C10   C     C_R   0.499909 0.500029 0.220625 0.549551
C11   C     C_R   0.500030 0.499969 0.779377 0.567737
C12   C     C_1   0.499921 0.500038 0.065534 -0.054608
C13   C     C_1   0.499969 0.499955 0.934471 -0.049474
C14   C     C_R   0.062848 0.419022 0.393452 0.050307
C15   C     C_R   0.935879 0.582108 0.603156 0.052484
C16   C     C_R   0.933806 0.419897 0.394362 0.088067
Cu1   Cu    Cu3+1 0.500000 0.640660 0.500000 0.973854
Cu2   Cu    Cu3+1 0.500000 0.359340 0.500000 0.957171
H1    H     H_    0.367150 0.129738 0.328522 0.103792
H2    H     H_    0.890877 0.376443 0.181788 0.245378
H3    H     H_    0.110414 0.625234 0.815468 0.224661
H4    H     H_    0.111586 0.765967 0.700336 0.233421
H5    H     H_    0.634377 0.870056 0.669952 0.125956
H6    H     H_    0.634209 0.130606 0.670133 0.114189
H7    H     H_    0.366157 0.869378 0.329497 0.112842
H8    H     H_    0.187910 0.404580 0.227329 0.230038
H9    H     H_    0.173245 0.257570 0.332813 0.245166
H10   H     H_    0.893322 0.627141 0.815660 0.226446
H11   H     H_    0.893109 0.767531 0.700055 0.227665
H12   H     H_    0.889844 0.235692 0.295971 0.252882
N1    N     N_R   0.500000 0.852070 0.500000 -0.227399
N2    N     N_R   0.500000 0.147930 0.500000 -0.224957
N3    N     N_3   0.125183 0.339346 0.282172 -0.645237
N4    N     N_3   0.868691 0.661856 0.710416 -0.630238
N5    N     N_3   0.865271 0.341300 0.286477 -0.599020
N6    N     N_3   0.134697 0.660030 0.710279 -0.607878
O1    O     O_R   0.319640 0.618740 0.499990 -0.478336
O2    O     O_R   0.680360 0.381260 0.500010 -0.486290
O3    O     O_R   0.680360 0.618740 0.500010 -0.483468
O4    O     O_R   0.319640 0.381260 0.499990 -0.517443
O5    O     O_R   0.500000 0.618760 0.288390 -0.506436
O6    O     O_R   0.500000 0.381240 0.711610 -0.502563
O7    O     O_R   0.500000 0.618760 0.711610 -0.486926
O8    O     O_R   0.500000 0.381240 0.288390 -0.496132

loop_
_geom_bond_atom_site_label_1
_geom_bond_atom_site_label_2
_ccdc_geom_bond_type
C5    C8    A    
C2    C4    A    
Cu1   O7    S    
C11   O7    A    
C6    C7    A    
C2    C15   A    
Cu2   O8    S    
H4    N6    S    
H8    N3    S    
C1    O1    A    
C1    C4    S    
C5    N2    A    
C14   N3    S    
Cu1   Cu2   S    
Cu2   O2    S    
H10   N4    S    
H3    N6    S    
Cu1   O1    S    
H9    N3    S    
C10   O5    A    
C8    H7    S    
C11   C13   S    
C10   C12   S    
H12   N5    S    
C5    H1    S    
C6    H5    S    
C9    O2    A    
C3    C9    S    
C6    N1    A    
Cu1   O5    S    
Cu2   O6    S    
C16   N5    S    
C4    C14   A    
Cu1   N1    S    
C14   C16   A    
Cu2   N2    S    
C10   O8    A    
C7    H6    S    
C9    O3    A    
C3    C15   A    
C12   C13   T    
C11   O6    A    
Cu1   O3    S    
C2    N6    S    
Cu2   O4    S    
C7    N2    A    
C15   N4    S    
C1    O4    A    
C8    N1    A    
H11   N4    S    
H2    N5    S    
C3    C16   A    
