data_mof_unit_2204.cif
_audit_creation_date              2013-03-05T16:12:08-0500
_audit_creation_method            fapswitch 2.2
_symmetry_space_group_name_H-M    P1
_symmetry_Int_Tables_number       1
_space_group_crystal_system       triclinic
_cell_length_a                    10.721749
_cell_length_b                    9.406562
_cell_length_c                    27.815043
_cell_angle_alpha                 89.891223
_cell_angle_beta                  90.16834
_cell_angle_gamma                 90.013631
_cell_volume                      2805.26326804

loop_
_atom_site_label
_atom_site_type_symbol
_atom_site_description
_atom_site_fract_x
_atom_site_fract_y
_atom_site_fract_z
_atom_type_partial_charge
O1    O     O_R   0.317570 0.620260 0.500030 -0.602107
O2    O     O_R   0.317570 0.379740 0.500030 -0.583665
C1    C     C_R   0.259639 0.499781 0.500092 0.795634
O3    O     O_R   0.499900 0.620250 0.430280 -0.594467
O4    O     O_R   0.499900 0.379750 0.430280 -0.596800
C2    C     C_R   0.500546 0.500192 0.407444 0.827001
Cu1   Cu    Cu3+1 0.499860 0.642410 0.500020 0.905041
Cu2   Cu    Cu3+1 0.499860 0.357590 0.500020 0.927417
O5    O     O_R   0.682190 0.620260 0.500010 -0.598524
O6    O     O_R   0.682190 0.379740 0.500010 -0.600511
O7    O     O_R   0.499860 0.620280 0.569750 -0.593515
O8    O     O_R   0.499860 0.379720 0.569750 -0.553325
C3    C     C_R   0.740120 0.499802 0.500092 0.759418
C4    C     C_R   0.497576 0.499854 0.592486 0.867865
C5    C     C_R   0.403627 0.529141 0.177923 0.603878
O9    O     O_2   0.298555 0.557218 0.202764 -0.517045
N1    N     N_R   0.512104 0.500468 0.202027 -0.449711
C6    C     C_R   0.619674 0.468836 0.178030 0.603731
C7    C     C_R   0.510390 0.374600 0.278754 -0.134411
C8    C     C_R   0.506030 0.373123 0.328756 -0.204279
C9    C     C_R   0.506211 0.630742 0.329296 -0.283764
C10   C     C_R   0.511715 0.633898 0.278913 0.388764
C11   C     C_R   0.512967 0.503618 0.253576 0.235986
C12   C     C_R   0.511470 0.500316 0.101903 -0.042890
C13   C     C_R   0.401319 0.529791 0.127467 -0.022700
C14   C     C_R   0.291854 0.560783 0.102273 -0.126856
C15   C     C_R   0.621498 0.468687 0.127561 -0.022700
C16   C     C_R   0.503662 0.501153 0.354482 -0.108915
H1    H     H_    0.505824 0.730031 0.348908 0.182205
H2    H     H_    0.206259 0.585590 0.121092 0.192482
C17   C     C_R   0.496364 0.500067 0.645381 -0.167946
C18   C     C_R   0.398567 0.526178 0.974349 0.047557
C19   C     C_R   0.626312 0.489919 0.974676 -0.013307
C20   C     C_R   0.512953 0.509387 0.949183 0.075756
C21   C     C_R   0.287125 0.537807 0.947333 -0.185931
C22   C     C_R   0.288431 0.537672 0.897505 -0.089700
C23   C     C_R   0.400554 0.525104 0.872482 -0.022074
C24   C     C_R   0.513735 0.511650 0.898022 -0.082652
C25   C     C_R   0.627089 0.500045 0.872333 -0.144044
C26   C     C_R   0.621981 0.492267 0.821555 0.587865
N2    N     N_R   0.510772 0.506849 0.797834 -0.466980
C27   C     C_R   0.401447 0.524598 0.822149 0.563558
C28   C     C_R   0.446983 0.391772 0.722441 -0.142366
C29   C     C_R   0.438334 0.390247 0.672173 0.313631
C30   C     C_R   0.557880 0.610696 0.669676 -0.260603
C31   C     C_R   0.563626 0.612089 0.719679 -0.068590
C32   C     C_R   0.508384 0.502710 0.746235 0.266676
O10   O     O_2   0.293689 0.541671 0.797568 -0.491259
C33   C     C_R   0.398996 0.530025 0.025449 0.044377
C34   C     C_R   0.511659 0.502753 0.050797 0.077251
C35   C     C_R   0.624630 0.478311 0.025633 0.068151
C36   C     C_R   0.290465 0.561179 0.052340 -0.194515
H3    H     H_    0.402512 0.308856 0.743347 0.188168
H4    H     H_    0.200254 0.546587 0.878603 0.232250
H5    H     H_    0.196195 0.543987 0.963499 0.156389
H6    H     H_    0.202829 0.589670 0.035991 0.144568
O11   O     O_2   0.724730 0.439376 0.202967 -0.517174
C37   C     C_R   0.730613 0.437511 0.102430 -0.129803
H7    H     H_    0.504317 0.271673 0.347199 0.166815
H8    H     H_    0.510832 0.274925 0.259327 0.186356
H9    H     H_    0.815804 0.409813 0.121285 0.192057
C38   C     C_R   0.738662 0.486864 0.948385 -0.256086
C39   C     C_R   0.740576 0.493869 0.898286 0.369709
O12   O     O_2   0.725944 0.465728 0.795937 -0.453971
C40   C     C_R   0.732274 0.441532 0.052509 -0.192877
H10   H     H_    0.828304 0.486709 0.965991 0.167511
H11   H     H_    0.602996 0.695569 0.649894 0.166801
H12   H     H_    0.610658 0.698605 0.737880 0.168131
H13   H     H_    0.819191 0.411811 0.035997 0.148607
C41   C     C_3   0.072217 0.577183 0.545275 -0.354030
C42   C     C_3   0.071210 0.344141 0.500670 -0.368955
H14   H     H_    0.106686 0.688814 0.545863 0.164425
H15   H     H_    0.104823 0.285444 0.468481 0.159876
H16   H     H_    0.107210 0.523995 0.578443 0.202338
H17   H     H_    0.105820 0.286632 0.533100 0.200261
C43   C     C_3   0.928257 0.577345 0.545249 -0.380397
C44   C     C_3   0.928484 0.344153 0.500794 -0.375577
H18   H     H_    0.893523 0.524382 0.578436 0.169045
H19   H     H_    0.894773 0.287195 0.533402 0.170201
H20   H     H_    0.894041 0.689052 0.545753 0.165128
H21   H     H_    0.893894 0.284921 0.468784 0.166873
H22   H     H_    0.105775 0.686669 0.453239 0.166694
H23   H     H_    0.106235 0.520376 0.421716 0.165167
H24   H     H_    0.893120 0.686376 0.453078 0.166554
H25   H     H_    0.892560 0.519813 0.421716 0.163645
C45   C     C_3   0.071519 0.575003 0.454522 -0.380909
C46   C     C_3   0.121712 0.499038 0.500152 0.136961
C47   C     C_3   0.878049 0.499063 0.500156 0.150191
C48   C     C_3   0.927581 0.574812 0.454486 -0.368099
C49   C     C_3   0.589253 0.083745 0.537008 -0.182814
C50   C     C_3   0.589369 0.915952 0.536971 -0.185640
H26   H     H_    0.565160 0.121863 0.573621 0.176971
H27   H     H_    0.565510 0.877351 0.573590 0.158574
H28   H     H_    0.685184 0.122596 0.529550 0.135797
H29   H     H_    0.685325 0.877365 0.529445 0.137695
H30   H     H_    0.344340 0.123057 0.548358 0.204883
H31   H     H_    0.344580 0.876196 0.548504 0.163134
C51   C     C_3   0.375467 0.083537 0.512721 -0.179699
C52   C     C_3   0.375493 0.916153 0.512793 -0.189596
C53   C     C_3   0.536484 0.083878 0.453603 -0.184134
C54   C     C_3   0.536345 0.916597 0.453590 -0.179499
N3    N     N_3   0.500250 0.143650 0.501060 -0.127810
N4    N     N_3   0.500250 0.856350 0.501060 -0.123509
H32   H     H_    0.470376 0.121111 0.425409 0.149349
H33   H     H_    0.470045 0.879716 0.425451 0.151814
H34   H     H_    0.630389 0.123834 0.443304 0.142975
H35   H     H_    0.630132 0.876610 0.443220 0.143050
H36   H     H_    0.305533 0.120870 0.485940 0.134799
H37   H     H_    0.305398 0.878869 0.486094 0.140875
N5    N     N_R   0.859626 0.502416 0.874986 0.161656
O13   O     O_R   0.887619 0.614863 0.849911 -0.296288
O14   O     O_R   0.948095 0.414558 0.887078 -0.352576
N6    N     N_R   0.516511 0.768924 0.254348 0.136475
O15   O     O_R   0.477919 0.883794 0.275665 -0.368956
O16   O     O_R   0.568255 0.780556 0.212273 -0.339585
N7    N     N_R   0.364968 0.281687 0.649365 0.119258
O17   O     O_R   0.365834 0.152619 0.666278 -0.367862
O18   O     O_R   0.281734 0.316284 0.617275 -0.404269

loop_
_geom_bond_atom_site_label_1
_geom_bond_atom_site_label_2
_geom_bond_distance
_ccdc_geom_bond_type
C54   H35   1.112703 S    
C52   N4    1.488550 S    
N2    C27   1.365442 A    
C7    C8    1.391762 A    
C12   C15   1.408529 A    
C4    C17   1.471383 S    
Cu1   Cu2   2.679176 S    
C30   C31   1.392108 A    
Cu1   O7    1.950289 S    
N1    C11   1.434189 S    
C22   C23   1.396032 A    
C23   C24   1.409944 A    
C43   H18   1.113185 S    
O4    C2    1.297829 A    
O7    C4    1.296577 A    
C5    C13   1.403591 A    
C5    O9    1.349714 S    
C52   H37   1.112160 S    
C53   H32   1.111697 S    
C51   H36   1.111892 S    
N7    O17   1.301238 A    
C5    N1    1.367429 A    
C35   C40   1.415856 A    
C23   C27   1.400076 A    
O5    C3    1.292290 A    
N5    O13   1.301397 A    
C49   N3    1.490133 S    
C6    O11   1.349628 S    
O1    Cu1   1.965495 S    
C31   H12   1.082921 S    
C28   H3    1.083302 S    
C10   N6    1.442088 S    
C2    C16   1.473617 S    
C21   C22   1.386069 A    
C44   C47   1.554444 S    
C19   C38   1.411345 A    
H30   C51   1.111533 S    
C41   H16   1.112900 S    
C49   H28   1.111437 S    
C43   C47   1.550653 S    
C37   H9    1.083512 S    
Cu2   N3    2.012598 S    
C54   N4    1.488091 S    
Cu1   N4    2.012706 S    
C9    C10   1.403070 A    
C54   H33   1.111712 S    
O3    Cu1   1.951383 S    
C41   C46   1.550743 S    
H31   C52   1.112755 S    
N1    C6    1.367375 A    
C44   H19   1.113696 S    
C12   C34   1.421664 A    
C17   C29   1.417426 A    
C38   H10   1.077395 S    
C1    C46   1.478832 S    
C18   C21   1.413791 A    
C19   C20   1.417077 A    
C12   C13   1.408228 A    
O3    C2    1.296789 A    
C25   C26   1.415338 A    
C42   H15   1.113650 S    
H25   C48   1.113186 S    
C45   C46   1.550423 S    
C8    C16   1.402310 A    
C13   C14   1.395745 A    
H22   C45   1.113218 S    
C21   H5    1.076470 S    
C45   C48   1.543266 S    
O1    C1    1.292217 A    
C18   C20   1.422886 A    
C7    C11   1.400350 A    
C28   C29   1.401093 A    
C30   H11   1.083447 S    
C38   C39   1.395146 A    
C14   C36   1.388917 A    
C50   H27   1.111225 S    
C37   C40   1.389181 A    
C49   H26   1.111484 S    
C44   H21   1.113796 S    
Cu2   O8    1.951075 S    
C33   C36   1.416151 A    
C53   N3    1.488421 S    
C34   C35   1.419724 A    
N2    C32   1.435978 S    
C27   O10   1.350237 S    
C8    H7    1.082757 S    
C42   C46   1.554349 S    
C26   N2    1.367834 A    
C9    C16   1.405102 A    
O8    C4    1.296294 A    
C14   H2    1.083552 S    
C41   C43   1.543500 S    
H24   C48   1.113237 S    
C42   C44   1.530289 S    
N6    O15   1.301685 A    
Cu1   O5    1.966019 S    
C31   C32   1.398001 A    
C20   C24   1.423205 A    
O2    Cu2   1.965593 S    
C6    C15   1.403975 A    
C43   H20   1.113191 S    
C50   N4    1.490414 S    
O6    C3    1.288766 A    
O4    Cu2   1.950597 S    
C7    H8    1.083079 S    
C19   C35   1.421542 A    
C25   C39   1.414129 A    
C53   H34   1.112716 S    
C26   O12   1.348340 S    
C39   N5    1.435398 S    
O2    C1    1.288865 A    
C51   N3    1.488760 S    
C42   H17   1.113699 S    
C49   C50   1.578356 S    
C24   C25   1.415986 A    
C9    H1    1.082526 S    
C15   C37   1.396086 A    
C40   H13   1.077343 S    
C3    C47   1.478852 S    
C53   C54   1.573541 S    
C51   C52   1.574506 S    
N7    O18   1.301291 A    
N5    O14   1.301261 A    
C18   C33   1.421886 A    
C22   H4    1.083608 S    
C50   H29   1.111646 S    
H23   C45   1.113172 S    
C47   C48   1.550427 S    
C29   N7    1.436372 S    
Cu2   O6    1.965920 S    
C33   C34   1.420020 A    
C17   C30   1.405115 A    
C10   C11   1.414938 A    
C41   H14   1.113246 S    
C28   C32   1.400053 A    
C36   H6    1.076402 S    
N6    O16   1.301056 A    
