data_mof_unit_282.cif
_audit_creation_date              2012-12-10T18:10:55-0500
_audit_creation_method            fapswitch 2.2
_symmetry_space_group_name_H-M    P1
_symmetry_Int_Tables_number       1
_space_group_crystal_system       triclinic
_cell_length_a                    12.615856
_cell_length_b                    13.124424
_cell_length_c                    15.740395
_cell_angle_alpha                 90.250433
_cell_angle_beta                  102.441734
_cell_angle_gamma                 82.413314
_cell_volume                      2521.96463259

loop_
_atom_site_label
_atom_site_type_symbol
_atom_type_description
_atom_site_fract_x
_atom_site_fract_y
_atom_site_fract_z
_atom_type_partial_charge
C1    C     C_R   0.439138 0.690999 0.484043 0.854546
C2    C     C_R   0.597653 0.199539 0.505676 -0.051663
C3    C     C_R   0.293008 0.839811 0.467936 -0.245453
C4    C     C_R   0.500433 0.500875 0.661291 0.910847
C5    C     C_R   0.260924 0.945789 0.465917 0.166070
C6    C     C_R   0.340377 0.011564 0.469875 -0.231708
C7    C     C_R   0.449729 0.972488 0.467063 0.051112
C8    C     C_R   0.474865 0.867502 0.451866 0.080156
C9    C     C_R   0.534481 0.034674 0.476840 0.091127
C10   C     C_R   0.636389 0.996492 0.456502 0.185691
C11   C     C_R   0.653165 0.896601 0.427500 -0.273011
C12   C     C_3   0.380516 0.564773 0.027480 -0.060810
C13   C     C_R   0.573020 0.832939 0.424489 -0.202127
C14   C     C_R   0.520928 0.133586 0.507920 -0.264315
C15   C     C_R   0.698686 0.162324 0.486085 -0.212654
C16   C     C_R   0.561127 0.308675 0.509671 0.861665
C17   C     C_R   0.401040 0.800289 0.465065 -0.139410
C18   C     C_R   0.084465 0.356582 0.374450 -0.317645
C19   C     C_R   0.789220 0.637860 0.593441 -0.041568
C20   C     C_R   0.880967 0.688624 0.600606 0.037637
C21   C     C_R   0.970757 0.640743 0.565728 0.065952
C22   C     C_R   0.959622 0.545448 0.518746 -0.059426
C23   C     C_3   0.494739 0.513479 0.082038 0.283694
C24   C     C_R   0.855450 0.509921 0.504297 0.189866
C25   C     C_R   0.040983 0.485933 0.480208 -0.002357
C26   C     C_R   0.009654 0.409116 0.418641 0.206064
C27   C     C_R   0.904714 0.382952 0.402880 -0.309544
C28   C     C_R   0.499011 0.500807 0.338550 0.894292
C29   C     C_R   0.830384 0.430179 0.447443 -0.185024
C30   C     C_R   0.153302 0.493741 0.501949 -0.082391
C31   C     C_R   0.191015 0.378023 0.392511 0.009858
C32   C     C_3   0.384396 0.565066 0.929220 -0.409428
C33   C     C_3   0.595591 0.567126 0.968025 -0.062352
C34   C     C_3   0.518103 0.401756 0.051193 -0.394964
C35   C     C_3   0.583153 0.580760 0.064053 -0.097671
C36   C     C_1   0.496126 0.505805 0.249239 -0.204837
C37   C     C_3   0.498207 0.513258 0.916354 0.287768
C38   C     C_3   0.275731 0.527504 0.048807 -0.379366
C39   C     C_3   0.228448 0.438199 0.996102 -0.331639
C40   C     C_3   0.150226 0.390661 0.041142 -0.907938
C41   C     C_3   0.142901 0.989086 0.461396 -0.432854
C42   C     C_3   0.094158 0.048109 0.374826 -0.318161
C43   C     C_3   0.972356 0.084851 0.365350 -0.922023
C44   C     C_3   0.069520 0.698840 0.573341 -0.424388
C45   C     C_3   0.514217 0.401334 0.952648 -0.466419
C46   C     C_3   0.149082 0.678844 0.662975 -0.342560
C47   C     C_3   0.255859 0.722377 0.665602 -0.886607
C48   C     C_3   0.878640 0.797153 0.638027 -0.425221
C49   C     C_3   0.775990 0.839920 0.671795 -0.372857
C50   C     C_3   0.783688 0.948348 0.705936 -0.866849
C51   C     C_3   0.622102 0.665302 0.925489 -0.436621
C52   C     C_3   0.527193 0.752855 0.898523 -0.327934
C53   C     C_3   0.568337 0.850234 0.873128 -0.897958
C54   C     C_3   0.695032 0.572509 0.131209 -0.413757
C55   C     C_3   0.762710 0.465350 0.147529 -0.331432
C56   C     C_1   0.495000 0.510472 0.173796 -0.122483
C57   C     C_3   0.881845 0.473354 0.190267 -0.885466
C58   C     C_1   0.499199 0.509369 0.825054 -0.101041
C59   C     C_1   0.500300 0.505287 0.750031 -0.197827
C60   C     C_R   0.718908 0.059887 0.463607 -0.220560
H1    H     H_    0.372674 0.647032 0.046161 0.105976
H2    H     H_    0.880562 0.323609 0.357380 0.159516
H3    H     H_    0.060628 0.299779 0.326427 0.142518
H4    H     H_    0.190241 0.534447 0.556528 0.165935
H5    H     H_    0.670557 0.511763 0.969184 0.143999
H6    H     H_    0.548570 0.662257 0.069808 0.126938
H7    H     H_    0.591550 0.358072 0.940760 0.167805
H8    H     H_    0.458517 0.353847 0.067009 0.179449
H9    H     H_    0.194796 0.356199 0.105360 0.261400
H10   H     H_    0.082623 0.449991 0.050634 0.261967
H11   H     H_    0.114404 0.329211 0.000379 0.249454
H12   H     H_    0.320261 0.524262 0.889572 0.174381
H13   H     H_    0.181143 0.467470 0.930954 0.208366
H14   H     H_    0.293344 0.376962 0.986468 0.223508
H15   H     H_    0.290460 0.508246 0.119285 0.218700
H16   H     H_    0.209351 0.594007 0.037670 0.179515
H17   H     H_    0.759764 0.212732 0.484952 0.155225
H18   H     H_    0.313510 0.093042 0.470801 0.134815
H19   H     H_    0.926675 0.017657 0.361278 0.256432
H20   H     H_    0.958053 0.132292 0.421457 0.266994
H21   H     H_    0.941254 0.132228 0.304642 0.244351
H22   H     H_    0.137085 0.116037 0.370955 0.214081
H23   H     H_    0.598534 0.362919 0.086366 0.161414
H24   H     H_    0.105248 0.997533 0.319661 0.223561
H25   H     H_    0.093636 0.926230 0.467482 0.191411
H26   H     H_    0.138192 0.041249 0.516694 0.198492
H27   H     H_    0.364760 0.644861 0.902885 0.137823
H28   H     H_    0.720900 0.668283 0.620991 0.161048
H29   H     H_    0.299907 0.682950 0.618485 0.280403
H30   H     H_    0.239372 0.806238 0.650135 0.261301
H31   H     H_    0.308959 0.709692 0.731657 0.237420
H32   H     H_    0.112042 0.714960 0.715204 0.209484
H33   H     H_    0.167478 0.595508 0.680208 0.214515
H34   H     H_    0.728726 0.867191 0.408291 0.147755
H35   H     H_    0.109868 0.683931 0.517987 0.191608
H36   H     H_    0.043787 0.782714 0.564331 0.180778
H37   H     H_    0.855357 0.947981 0.761174 0.254668
H38   H     H_    0.791710 0.001260 0.653496 0.274080
H39   H     H_    0.708241 0.977176 0.728987 0.251094
H40   H     H_    0.701836 0.843487 0.618313 0.242265
H41   H     H_    0.766987 0.789529 0.725692 0.213282
H42   H     H_    0.949797 0.798955 0.692735 0.207344
H43   H     H_    0.884623 0.851559 0.585907 0.204481
H44   H     H_    0.751980 0.404162 0.434764 0.212048
H45   H     H_    0.797117 0.031142 0.448964 0.138019
H46   H     H_    0.625569 0.878023 0.929568 0.258996
H47   H     H_    0.610912 0.835009 0.818576 0.263729
H48   H     H_    0.497863 0.911424 0.851851 0.249318
H49   H     H_    0.468808 0.730077 0.840691 0.221271
H50   H     H_    0.484049 0.770934 0.952268 0.210705
H51   H     H_    0.690206 0.695497 0.971147 0.202319
H52   H     H_    0.654413 0.642525 0.866750 0.204057
H53   H     H_    0.920661 0.514165 0.145907 0.253410
H54   H     H_    0.886776 0.515604 0.251975 0.278517
H55   H     H_    0.927704 0.395014 0.204339 0.246615
H56   H     H_    0.448969 0.162322 0.531892 0.154380
H57   H     H_    0.728553 0.419698 0.191915 0.222638
H58   H     H_    0.762185 0.423576 0.086164 0.211602
H59   H     H_    0.745289 0.626247 0.109225 0.200000
H60   H     H_    0.680533 0.601904 0.194682 0.205328
H61   H     H_    0.446420 0.359727 0.918771 0.179644
H62   H     H_    0.233998 0.788354 0.472335 0.158862
H63   H     H_    0.588105 0.757105 0.398856 0.180201
H64   H     H_    0.249937 0.340064 0.357965 0.131200
N1    N     N_R   0.222200 0.444690 0.455710 -0.102083
N2    N     N_R   0.776960 0.554780 0.543830 -0.148764
O1    O     O_R   0.366740 0.627160 0.478850 -0.621238
O2    O     O_R   0.544830 0.662520 0.507140 -0.627017
O3    O     O_R   0.410920 0.482310 0.608710 -0.616660
O4    O     O_R   0.589010 0.517670 0.637000 -0.614673
O5    O     O_R   0.455170 0.337480 0.492860 -0.614980
O6    O     O_R   0.633260 0.372840 0.521150 -0.635465
O7    O     O_R   0.410990 0.482330 0.363000 -0.611174
O8    O     O_R   0.589080 0.517690 0.391290 -0.635078
Zn1   Zn    Zn3+2 0.381090 0.476390 0.481110 0.929114
Zn2   Zn    Zn3+2 0.618910 0.523610 0.518890 0.913574

loop_
_geom_bond_atom_site_label_1
_geom_bond_atom_site_label_2
_ccdc_geom_bond_type
C51   H52   S    
C40   H11   S    
C54   H60   S    
C27   C29   A    
C15   C60   A    
C19   C20   A    
C42   H22   S    
C1    O2    A    
C33   H5    S    
C23   C56   S    
C57   H55   S    
C38   H16   S    
C41   H26   S    
C46   H33   S    
C12   C23   S    
C26   C27   A    
C8    C13   A    
C40   H10   S    
C28   O8    A    
O1    Zn1   S    
C31   H64   S    
O5    Zn1   S    
O2    Zn2   S    
C49   H41   S    
C5    C6    A    
C13   H63   S    
C18   H3    S    
C6    H18   S    
C46   H32   S    
C43   H19   S    
C41   C42   S    
C39   H14   S    
C16   O5    A    
C24   C29   A    
C33   C35   S    
O3    Zn1   S    
C53   H46   S    
C22   C25   A    
C18   C26   A    
C45   H7    S    
C2    C16   S    
C9    C10   A    
C37   C58   S    
C3    H62   S    
C4    O4    A    
N1    Zn1   S    
C15   H17   S    
C30   N1    A    
N2    Zn2   S    
C54   H59   S    
C12   C32   S    
C35   C54   S    
C24   N2    A    
C47   H29   S    
C2    C14   A    
C44   C46   S    
C38   H15   S    
C50   H38   S    
C40   H9    S    
C28   O7    A    
C7    C8    A    
C42   H24   S    
C32   H12   S    
C19   H28   S    
C34   H8    S    
C39   C40   S    
O8    Zn2   S    
C35   H6    S    
C45   H61   S    
C58   C59   T    
C48   H43   S    
C33   C37   S    
C51   C52   S    
C29   H44   S    
C10   C60   A    
C9    C14   A    
C36   C56   T    
C27   H2    S    
C21   C44   S    
C53   H47   S    
C52   H50   S    
O6    Zn2   S    
C23   C34   S    
C48   H42   S    
C50   H39   S    
C4    O3    A    
C34   C45   S    
C46   C47   S    
C32   C37   S    
C2    C15   A    
C30   H4    S    
C20   C48   S    
C11   H34   S    
C48   C49   S    
C23   C35   S    
C55   C57   S    
C43   H21   S    
C47   H30   S    
C22   C24   A    
C34   H23   S    
C31   N1    A    
C37   C45   S    
C52   C53   S    
C55   H57   S    
C25   C30   A    
C7    C9    A    
C5    C41   S    
C54   C55   S    
C50   H37   S    
C51   H51   S    
C44   H36   S    
C47   H31   S    
O4    Zn2   S    
C1    O1    A    
C3    C5    A    
C57   H53   S    
C6    C7    A    
C33   C51   S    
C41   H25   S    
C19   N2    A    
C1    C17   S    
C8    C17   A    
C25   C26   A    
C44   H35   S    
C49   H40   S    
C12   H1    S    
C11   C13   A    
C53   H48   S    
C38   C39   S    
C57   H54   S    
C52   H49   S    
C14   H56   S    
C4    C59   S    
C43   H20   S    
C3    C17   A    
C39   H13   S    
C12   C38   S    
C16   O6    A    
C10   C11   A    
C32   H27   S    
C20   C21   A    
C28   C36   S    
C49   C50   S    
C42   C43   S    
O7    Zn1   S    
C18   C31   A    
C21   C22   A    
C60   H45   S    
C55   H58   S    
