data_mof_unit_4015.cif
_audit_creation_date              2012-12-10T17:37:47-0500
_audit_creation_method            fapswitch 2.2
_symmetry_space_group_name_H-M    P1
_symmetry_Int_Tables_number       1
_space_group_crystal_system       triclinic
_cell_length_a                    12.315245
_cell_length_b                    13.211992
_cell_length_c                    17.314276
_cell_angle_alpha                 104.863638
_cell_angle_beta                  74.841943
_cell_angle_gamma                 116.679734
_cell_volume                      2397.84664929

loop_
_atom_site_label
_atom_site_type_symbol
_atom_type_description
_atom_site_fract_x
_atom_site_fract_y
_atom_site_fract_z
_atom_type_partial_charge
C1    C     C_R   0.144511 0.713555 0.507514 0.775902
C2    C     C_R   0.898983 0.540931 0.797750 -0.197783
C3    C     C_R   0.907085 0.471243 0.155640 0.486607
C4    C     C_R   0.907786 0.477455 0.237463 -0.300955
C5    C     C_R   0.113769 0.481985 0.203896 -0.202636
C6    C     C_R   0.112868 0.472684 0.122332 -0.245845
C7    C     C_R   0.011215 0.469113 0.098131 0.096512
C8    C     C_2   0.985702 0.535458 0.987867 -0.183982
C9    C     C_2   0.017665 0.465728 0.012127 -0.178692
C10   C     C_R   0.011753 0.485744 0.261920 -0.083185
C11   C     C_R   0.732634 0.978318 0.388336 -0.192618
C12   C     C_R   0.989057 0.505460 0.652264 0.787349
C13   C     C_R   0.774384 0.165219 0.470587 -0.048219
C14   C     C_R   0.179424 0.915087 0.563647 -0.188386
C15   C     C_R   0.256942 0.030102 0.580497 -0.145732
C16   C     C_R   0.382624 0.067744 0.550853 -0.182446
C17   C     C_R   0.433173 0.990778 0.500565 0.079536
C18   C     C_R   0.351424 0.876262 0.475834 0.081954
C19   C     C_R   0.561978 0.023925 0.473264 0.073966
C20   C     C_R   0.605750 0.946627 0.415800 0.168675
C21   C     C_R   0.522410 0.839654 0.384870 -0.246843
C22   C     C_R   0.397124 0.805254 0.413668 -0.196122
C23   C     C_R   0.855889 0.286428 0.487888 0.802736
C24   C     C_R   0.648978 0.131504 0.501783 -0.252757
C25   C     C_R   0.816713 0.087581 0.415238 -0.193638
C26   C     C_R   0.225720 0.836617 0.513213 -0.102229
C27   C     C_R   0.642379 0.674700 0.629038 -0.301426
C28   C     C_R   0.249004 0.350862 0.390880 0.063892
C29   C     C_R   0.346161 0.316685 0.368682 -0.261515
C30   C     C_R   0.445981 0.372372 0.410059 -0.190958
C31   C     C_R   0.450077 0.463787 0.474422 -0.000833
C32   C     C_R   0.347316 0.494676 0.495758 0.287820
C33   C     C_R   0.551078 0.524799 0.518918 -0.037412
C34   C     C_R   0.011041 0.494633 0.347795 0.809360
C35   C     C_R   0.546080 0.613877 0.584072 0.176835
C36   C     C_R   0.444834 0.641668 0.604381 -0.286605
C37   C     C_R   0.347821 0.583358 0.561427 -0.190447
C38   C     C_R   0.657686 0.501922 0.501996 0.017480
C39   C     C_R   0.743901 0.647524 0.609599 0.067774
C40   C     C_R   0.988835 0.514741 0.738223 -0.029246
C41   C     C_R   0.081456 0.500526 0.761426 -0.204476
C42   C     C_R   0.082622 0.509621 0.842764 -0.157183
C43   C     C_R   0.990515 0.532119 0.902058 0.172422
C44   C     C_R   0.900381 0.550192 0.879406 -0.158127
Cu1   Cu    Cu3+1 0.900140 0.524980 0.518800 0.933908
Cu2   Cu    Cu3+1 0.099860 0.475020 0.481200 0.922005
H1    H     H_    0.153360 0.482537 0.716880 0.158753
H2    H     H_    0.192792 0.470845 0.078049 0.147810
H3    H     H_    0.913803 0.112880 0.390250 0.146513
H4    H     H_    0.554230 0.782269 0.338072 0.150259
H5    H     H_    0.766461 0.919685 0.344340 0.130546
H6    H     H_    0.621887 0.192017 0.547820 0.147586
H7    H     H_    0.083309 0.887091 0.591857 0.150816
H8    H     H_    0.436932 0.158108 0.566943 0.129642
H9    H     H_    0.219965 0.090051 0.618924 0.141827
H10   H     H_    0.336822 0.723460 0.384718 0.174049
H11   H     H_    0.826345 0.474016 0.281772 0.156356
H12   H     H_    0.440177 0.709349 0.654432 0.154239
H13   H     H_    0.639059 0.742835 0.678973 0.136508
H14   H     H_    0.669878 0.436552 0.453114 0.120910
H15   H     H_    0.171852 0.306990 0.358524 0.126436
H16   H     H_    0.518323 0.342058 0.390530 0.131658
H17   H     H_    0.274441 0.610559 0.582640 0.208008
H18   H     H_    0.194374 0.486836 0.221503 0.161227
H19   H     H_    0.054170 0.408476 0.968517 0.138899
H20   H     H_    0.829543 0.568781 0.924824 0.124773
H21   H     H_    0.827514 0.553725 0.781341 0.150319
H22   H     H_    0.950725 0.593323 0.032074 0.150838
H23   H     H_    0.155966 0.499653 0.859049 0.123323
N1    N     N_R   0.749710 0.562810 0.547300 -0.179872
N2    N     N_R   0.249640 0.437820 0.453210 -0.207212
O1    O     O_R   0.025490 0.682370 0.523640 -0.579479
O2    O     O_R   0.194150 0.640180 0.491890 -0.604205
O3    O     O_R   0.905900 0.523560 0.631310 -0.586268
O4    O     O_R   0.074570 0.481370 0.599560 -0.602707
O5    O     O_R   0.805850 0.359820 0.508110 -0.587282
O6    O     O_R   0.974510 0.317630 0.476360 -0.585181
O7    O     O_R   0.925430 0.518630 0.400440 -0.587382
O8    O     O_R   0.094100 0.476440 0.368690 -0.598946
H24   H     H_    0.818619 0.694183 0.644004 0.118959
H25   H     H_    0.344200 0.246878 0.319148 0.146778
O9    O     O_3   0.801249 0.453228 0.129568 -0.612224
C45   C     C_3   0.755393 0.537494 0.170611 0.016529
H26   H     H_    0.750623 0.579185 0.124164 0.151395
H27   H     H_    0.814962 0.608052 0.212369 0.125934
C46   C     C_3   0.624853 0.479718 0.216558 -0.304399
H28   H     H_    0.563514 0.418592 0.172758 0.222739
H29   H     H_    0.625585 0.430565 0.259515 0.212716
C47   C     C_3   0.573595 0.567994 0.263627 -0.938248
H30   H     H_    0.629081 0.625046 0.311466 0.256720
H31   H     H_    0.476798 0.523739 0.292969 0.270651
H32   H     H_    0.575151 0.620441 0.222106 0.245254

loop_
_geom_bond_atom_site_label_1
_geom_bond_atom_site_label_2
_ccdc_geom_bond_type
C24   H6    S    
C38   N1    A    
C12   O3    A    
C41   C42   A    
C44   H20   S    
C19   C20   A    
C18   C26   A    
C8    C43   S    
C23   O5    A    
Cu1   Cu2   S    
C6    H2    S    
Cu1   O5    S    
C36   C37   A    
C36   H12   S    
C5    C6    A    
C46   H29   S    
C11   C25   A    
C15   C16   A    
C13   C23   S    
C21   H4    S    
C33   C35   A    
Cu2   O8    S    
C45   H26   S    
C2    C44   A    
C8    C9    D    
C4    H11   S    
C31   C33   A    
Cu1   O7    S    
C47   H31   S    
C28   H15   S    
C21   C22   A    
Cu1   O1    S    
C13   C25   A    
Cu2   O4    S    
C37   H17   S    
C32   N2    A    
C25   H3    S    
C11   C20   A    
C1    O1    A    
C2    H21   S    
C27   C39   A    
C46   H28   S    
C16   C17   A    
C22   H10   S    
C27   C35   A    
C42   H23   S    
C14   C26   A    
C5    H18   S    
Cu1   O3    S    
C35   C36   A    
C15   H9    S    
C12   C40   S    
C43   C44   A    
C29   H25   S    
C29   C30   A    
C34   O8    A    
C31   C32   A    
C14   H7    S    
C3    O9    S    
C17   C18   A    
C41   H1    S    
C10   C34   S    
C32   C37   A    
C23   O6    A    
C47   H32   S    
Cu2   N2    S    
C38   H14   S    
C40   C41   A    
C45   H27   S    
C8    H22   S    
C30   H16   S    
C1    C26   S    
C28   N2    A    
C42   C43   A    
C4    C10   A    
C3    C4    A    
C7    C9    S    
C28   C29   A    
Cu1   N1    S    
C18   C22   A    
C46   C47   S    
Cu2   O6    S    
C6    C7    A    
C3    C7    A    
C33   C38   A    
C1    O2    A    
C39   H24   S    
C16   H8    S    
C19   C24   A    
C5    C10   A    
C27   H13   S    
C34   O7    A    
C30   C31   A    
C17   C19   A    
C39   N1    A    
C9    H19   S    
C11   H5    S    
C2    C40   A    
C45   C46   S    
C20   C21   A    
C13   C24   A    
O9    C45   S    
C12   O4    A    
C14   C15   A    
C47   H30   S    
Cu2   O2    S    
