data_mof_unit_4001.cif
_audit_creation_date              2012-12-10T17:23:11-0500
_audit_creation_method            fapswitch 2.2
_symmetry_space_group_name_H-M    P1
_symmetry_Int_Tables_number       1
_space_group_crystal_system       triclinic
_cell_length_a                    15.861971
_cell_length_b                    10.867351
_cell_length_c                    9.580791
_cell_angle_alpha                 90.323745
_cell_angle_beta                  90.041807
_cell_angle_gamma                 92.527282
_cell_volume                      1649.88032582

loop_
_atom_site_label
_atom_site_type_symbol
_atom_type_description
_atom_site_fract_x
_atom_site_fract_y
_atom_site_fract_z
_atom_type_partial_charge
C1    C     C_R   0.506573 0.263033 0.500438 0.799524
C2    C     C_3   0.082735 0.500936 0.501073 0.121426
C3    C     C_3   0.971677 0.500937 0.632973 -0.126695
C4    C     C_3   0.917182 0.501307 0.500169 0.126418
C5    C     C_3   0.031122 0.602302 0.567932 -0.220999
C6    C     C_3   0.974973 0.603501 0.435246 -0.241395
C7    C     C_1   0.174491 0.500513 0.500269 -0.013906
C8    C     C_1   0.825479 0.501237 0.500289 -0.052682
C9    C     C_R   0.552908 0.121826 0.755948 -0.160349
C10   C     C_R   0.542208 0.063695 0.884306 -0.160306
C11   C     C_R   0.500429 0.948987 0.890654 -0.137583
C12   C     C_R   0.339870 0.499666 0.499937 0.830843
C13   C     C_R   0.477277 0.887161 0.767697 -0.159972
C14   C     C_R   0.496493 0.939313 0.635266 0.092518
C15   C     C_R   0.521844 0.065092 0.631317 0.096372
C16   C     C_R   0.513968 0.129179 0.503403 -0.119903
C17   C     C_R   0.501676 0.063077 0.378749 -0.212501
C18   C     C_R   0.494530 0.935913 0.380053 -0.213423
C19   C     C_R   0.491821 0.872235 0.506807 -0.112561
C20   C     C_R   0.611542 0.664962 0.145212 -0.149802
C21   C     C_R   0.665545 0.746070 0.073380 -0.227016
C22   C     C_R   0.665656 0.745796 0.929619 -0.196307
C23   C     C_R   0.495305 0.737580 0.501470 0.777506
C24   C     C_R   0.611636 0.664588 0.856839 -0.136933
C25   C     C_R   0.554751 0.581130 0.925675 0.191026
C26   C     C_R   0.554711 0.581191 0.075367 0.206512
C27   C     C_R   0.448249 0.422365 0.073379 -0.060998
C28   C     C_R   0.448268 0.422405 0.925372 -0.062397
C29   C     C_R   0.660119 0.500475 0.500080 0.801225
C30   C     C_3   0.968603 0.399139 0.433433 -0.239459
C31   C     C_3   0.027103 0.501318 0.371036 0.571789
C32   C     C_1   0.250086 0.500091 0.499928 -0.170270
C33   C     C_1   0.749883 0.500947 0.500221 -0.184535
C34   C     C_3   0.024779 0.399580 0.566127 -0.221963
Cu1   Cu    Cu3+1 0.499990 0.499990 0.640660 0.922885
Cu2   Cu    Cu3+1 0.500010 0.500010 0.359340 0.936475
H1    H     H_    0.487561 0.906485 0.990800 0.138927
H2    H     H_    0.441770 0.800951 0.779538 0.170332
H3    H     H_    0.489736 0.887524 0.280983 0.165428
H4    H     H_    0.405875 0.358727 0.128257 0.141757
H5    H     H_    0.617643 0.672114 0.255194 0.200315
H6    H     H_    0.707928 0.809292 0.130018 0.149554
H7    H     H_    0.707951 0.809015 0.873718 0.151401
H8    H     H_    0.617233 0.671998 0.746918 0.200920
H9    H     H_    0.405936 0.358749 0.869516 0.147103
H10   H     H_    0.941844 0.316356 0.377994 0.134763
H11   H     H_    0.953374 0.686583 0.381274 0.133752
H12   H     H_    0.058095 0.684763 0.623721 0.149472
H13   H     H_    0.947160 0.500797 0.741490 0.131406
H14   H     H_    0.046579 0.316796 0.620448 0.149031
H15   H     H_    0.497597 0.109586 0.279395 0.161902
H16   H     H_    0.587300 0.209871 0.755826 0.163388
H17   H     H_    0.564175 0.109285 0.979178 0.135402
N1    N     N_R   0.500800 0.501210 0.147910 -0.199193
N2    N     N_R   0.500830 0.501290 0.852040 -0.204675
O1    O     O_R   0.499990 0.319640 0.618810 -0.588848
O2    O     O_R   0.500000 0.319660 0.381240 -0.582084
O3    O     O_R   0.379070 0.499980 0.618770 -0.575899
O4    O     O_R   0.379080 0.500000 0.381190 -0.563294
O5    O     O_R   0.500000 0.680340 0.618760 -0.614239
O6    O     O_R   0.500010 0.680360 0.381190 -0.599402
O7    O     O_R   0.620920 0.500000 0.618810 -0.596853
O8    O     O_R   0.620930 0.500020 0.381230 -0.591565
O9    O     O_3   0.062249 0.501511 0.235784 -0.575204
C35   C     C_3   0.996918 0.501827 0.136137 -0.331530
H18   H     H_    0.959940 0.586064 0.145553 0.156987
H19   H     H_    0.954673 0.417747 0.144129 0.156286
H20   H     H_    0.025466 0.501920 0.030458 0.192098

loop_
_geom_bond_atom_site_label_1
_geom_bond_atom_site_label_2
_ccdc_geom_bond_type
Cu1   O1    S    
C19   C23   S    
C18   H3    S    
C29   O8    A    
C24   C25   A    
Cu2   O6    S    
C1    O2    A    
Cu2   O8    S    
C9    C10   A    
C2    C7    S    
C27   H4    S    
C4    C8    S    
Cu2   O4    S    
C12   O3    A    
O9    C35   S    
C17   H15   S    
C21   H6    S    
C20   H5    S    
C3    H13   S    
C27   N1    A    
C1    C16   S    
C13   C14   A    
C12   C32   S    
C29   O7    A    
C11   C13   A    
C2    C34   S    
C13   H2    S    
C23   O5    A    
C9    H16   S    
C20   C26   A    
Cu1   O3    S    
C5    C6    S    
C26   N1    A    
C1    O1    A    
C28   N2    A    
C17   C18   A    
Cu1   O7    S    
C8    C33   T    
C9    C15   A    
C30   C31   S    
C24   H8    S    
C5    H12   S    
C22   C24   A    
C28   H9    S    
C34   H14   S    
C2    C5    S    
Cu2   N1    S    
C10   C11   A    
C30   C34   S    
Cu1   N2    S    
C15   C16   A    
Cu1   O5    S    
C29   C33   S    
C23   O6    A    
C35   H20   S    
C31   O9    S    
C20   C21   A    
Cu2   O2    S    
C4    C6    S    
C35   H18   S    
C6    H11   S    
C27   C28   A    
C11   H1    S    
C10   H17   S    
C14   C15   A    
C18   C19   A    
C6    C31   S    
C7    C32   T    
C3    C34   S    
C3    C5    S    
C25   C26   A    
C21   C22   A    
C12   O4    A    
C14   C19   A    
C30   H10   S    
C22   H7    S    
C4    C30   S    
C3    C4    S    
C25   N2    A    
C16   C17   A    
C2    C31   S    
C35   H19   S    
Cu1   Cu2   S    
