data_mof_unit_4651.cif
_audit_creation_date              2012-10-26T19:54:48-0400
_audit_creation_method            fapswitch 2.2
_symmetry_space_group_name_H-M    P1
_symmetry_Int_Tables_number       1
_space_group_crystal_system       triclinic
_cell_length_a                    17.726657
_cell_length_b                    16.398921
_cell_length_c                    10.928504
_cell_angle_alpha                 90.109388
_cell_angle_beta                  90.040257
_cell_angle_gamma                 89.978238
_cell_volume                      3176.88797594

loop_
_atom_site_label
_atom_site_type_symbol
_atom_type_description
_atom_site_fract_x
_atom_site_fract_y
_atom_site_fract_z
_atom_type_partial_charge
C1    C     C_R   0.355223 0.499997 0.500413 0.572239
C2    C     C_R   0.550738 0.171148 0.573200 -0.159911
C3    C     C_R   0.546192 0.742886 0.422072 0.046366
C4    C     C_R   0.450082 0.256945 0.428239 0.030651
C5    C     C_R   0.453929 0.743085 0.578146 0.062144
C6    C     C_R   0.549869 0.257085 0.571854 0.030668
C7    C     C_R   0.499957 0.873048 0.500024 0.018819
C8    C     C_R   0.499960 0.126963 0.500065 0.011873
C9    C     C_1   0.499939 0.962681 0.500039 -0.029627
C10   C     C_1   0.499945 0.037334 0.500059 -0.030516
C11   C     C_R   0.499702 0.499924 0.261723 0.619718
C12   C     C_R   0.644782 0.499981 0.500447 0.553628
C13   C     C_R   0.499172 0.500179 0.738419 0.591253
C14   C     C_R   0.446195 0.643097 0.111437 0.304920
C15   C     C_R   0.459967 0.352217 0.890990 0.306742
C16   C     C_R   0.530524 0.651354 0.893423 0.290402
C17   C     C_R   0.547749 0.355609 0.107666 0.298188
C18   C     C_R   0.459229 0.718892 0.052628 -0.175926
C19   C     C_R   0.483648 0.278722 0.947130 -0.168340
C20   C     C_R   0.505233 0.722759 0.949631 -0.141631
C21   C     C_R   0.531657 0.280717 0.048131 -0.165446
C22   C     C_R   0.505459 0.574782 0.939929 -0.053072
C23   C     C_R   0.885582 0.499632 0.503513 0.042505
C24   C     C_R   0.513088 0.427108 0.060603 -0.025517
C25   C     C_R   0.482424 0.572791 0.062265 -0.018477
C26   C     C_R   0.489283 0.426336 0.938702 -0.016381
C27   C     C_R   0.497798 0.500592 0.872502 -0.024836
C28   C     C_R   0.498580 0.499892 0.127879 -0.007508
C29   C     C_R   0.846455 0.573928 0.496865 0.237520
C30   C     C_R   0.153741 0.425420 0.498043 0.236351
C31   C     C_R   0.153582 0.573921 0.509884 0.241076
C32   C     C_R   0.846298 0.425371 0.505434 0.236813
C33   C     C_R   0.767575 0.573737 0.497312 -0.141552
C34   C     C_R   0.114447 0.499607 0.504659 0.042459
C35   C     C_R   0.232621 0.426053 0.494295 -0.126280
C36   C     C_R   0.232466 0.573569 0.511050 -0.128238
C37   C     C_R   0.767393 0.425936 0.505996 -0.130398
C38   C     C_R   0.727638 0.499894 0.500997 -0.078937
C39   C     C_R   0.272381 0.499901 0.501792 -0.065723
C40   C     C_3   0.360926 0.703760 0.250883 -0.098245
C41   C     C_3   0.372349 0.281788 0.766095 -0.101862
C42   C     C_3   0.650680 0.621327 0.831865 -0.096322
C43   C     C_3   0.631657 0.291421 0.245460 -0.098082
C44   C     C_3   0.890688 0.675624 0.376818 -0.116810
C45   C     C_1   0.966237 0.499528 0.505186 0.075813
C46   C     C_3   0.115533 0.312916 0.601009 -0.105845
C47   C     C_3   0.111806 0.684508 0.405975 -0.110640
C48   C     C_3   0.886501 0.314718 0.399344 -0.108321
C49   C     C_1   0.033789 0.499516 0.505379 0.075575
C50   C     C_R   0.546900 0.828828 0.420517 -0.148267
C51   C     C_R   0.449190 0.171008 0.426928 -0.159808
C52   C     C_R   0.453104 0.829026 0.579618 -0.144687
Cu1   Cu    Cu3+1 0.500000 0.580420 0.500000 0.999036
Cu2   Cu    Cu3+1 0.500000 0.419580 0.500000 0.984836
H1    H     H_    0.553602 0.223074 0.080117 0.098297
H2    H     H_    0.409151 0.139267 0.369071 0.099364
H3    H     H_    0.416104 0.860785 0.642519 0.095053
H4    H     H_    0.590750 0.139521 0.631105 0.102257
H5    H     H_    0.582581 0.709520 0.360305 0.116560
H6    H     H_    0.410842 0.290168 0.371180 0.123852
H7    H     H_    0.417550 0.709874 0.639893 0.124060
H8    H     H_    0.589106 0.290419 0.628923 0.122147
H9    H     H_    0.323587 0.687756 0.328511 0.134819
H10   H     H_    0.325166 0.733687 0.180448 0.101336
H11   H     H_    0.404776 0.745808 0.287047 0.119433
H12   H     H_    0.520241 0.781535 0.911759 0.134191
H13   H     H_    0.328441 0.293312 0.695828 0.133147
H14   H     H_    0.344154 0.251953 0.845074 0.101638
H15   H     H_    0.415270 0.241350 0.723550 0.125467
H16   H     H_    0.645035 0.553865 0.832490 0.108525
H17   H     H_    0.671757 0.643542 0.922004 0.103598
H18   H     H_    0.693790 0.636818 0.762146 0.149462
H19   H     H_    0.669564 0.305862 0.323284 0.136076
H20   H     H_    0.666145 0.259591 0.175150 0.098614
H21   H     H_    0.586116 0.251587 0.281419 0.126748
H22   H     H_    0.834046 0.689420 0.337995 0.106429
H23   H     H_    0.467793 0.219454 0.912191 0.097492
H24   H     H_    0.921192 0.631308 0.317401 0.105580
H25   H     H_    0.923575 0.733156 0.377121 0.140226
H26   H     H_    0.089744 0.351582 0.673712 0.130660
H27   H     H_    0.173717 0.294562 0.627541 0.097024
H28   H     H_    0.081230 0.256563 0.593547 0.150357
H29   H     H_    0.083100 0.645005 0.337233 0.110675
H30   H     H_    0.169162 0.701572 0.373529 0.097879
H31   H     H_    0.078407 0.741458 0.414311 0.144321
H32   H     H_    0.913650 0.354590 0.329714 0.124135
H33   H     H_    0.828823 0.296966 0.369150 0.096345
H34   H     H_    0.436251 0.775689 0.086306 0.095568
H35   H     H_    0.920629 0.258183 0.405933 0.151987
H36   H     H_    0.737886 0.631472 0.495002 0.148087
H37   H     H_    0.262470 0.368672 0.485622 0.137261
H38   H     H_    0.262165 0.631041 0.519070 0.133356
H39   H     H_    0.737539 0.368430 0.511143 0.134905
H40   H     H_    0.583880 0.860432 0.357627 0.096182
N1    N     N_R   0.500000 0.701220 0.500000 -0.208975
N2    N     N_R   0.500000 0.298780 0.500000 -0.217531
O1    O     O_R   0.391260 0.567930 0.500000 -0.507132
O2    O     O_3   0.404144 0.357204 0.800515 -0.535422
O3    O     O_3   0.582213 0.659443 0.799110 -0.535739
O4    O     O_3   0.602457 0.365143 0.199082 -0.545858
O5    O     O_3   0.885253 0.647037 0.498042 -0.545654
O6    O     O_3   0.114824 0.352720 0.486808 -0.562029
O7    O     O_3   0.114686 0.646612 0.521563 -0.546339
O8    O     O_3   0.885101 0.352511 0.515279 -0.559386
O9    O     O_R   0.608740 0.432070 0.500000 -0.507827
O10   O     O_R   0.608740 0.567930 0.500000 -0.502868
O11   O     O_R   0.391260 0.432070 0.500000 -0.503408
O12   O     O_R   0.500000 0.567910 0.319660 -0.475489
O13   O     O_R   0.500000 0.432090 0.680340 -0.466044
O14   O     O_R   0.500000 0.567910 0.680340 -0.459016
O15   O     O_R   0.500000 0.432090 0.319660 -0.466755
O16   O     O_3   0.393219 0.631381 0.204789 -0.540037

loop_
_geom_bond_atom_site_label_1
_geom_bond_atom_site_label_2
_ccdc_geom_bond_type
Cu1   O14   S    
C43   H19   S    
C46   H26   S    
C23   C45   S    
Cu1   N1    S    
C14   C18   A    
C40   O16   S    
C35   H37   S    
Cu1   Cu2   S    
C25   C28   A    
C14   O16   S    
C46   O6    S    
C26   C27   A    
C37   C38   A    
C40   H9    S    
Cu2   O11   S    
C47   H31   S    
C20   H12   S    
C19   C21   A    
C24   C26   A    
C7    C52   A    
C15   C19   A    
C12   O9    A    
C48   O8    S    
C29   C33   A    
C42   H16   S    
C44   H22   S    
C51   H2    S    
C19   H23   S    
C13   O13   A    
C4    N2    A    
Cu1   O10   S    
C22   C25   A    
C32   O8    S    
C5    C52   A    
C47   H29   S    
C9    C10   T    
Cu2   N2    S    
C36   H38   S    
C43   H20   S    
C46   H28   S    
C30   O6    S    
C2    C6    A    
C5    N1    A    
C3    C50   A    
C41   H14   S    
C36   C39   A    
C43   H21   S    
C31   C34   A    
C17   C24   A    
C47   O7    S    
C30   C34   A    
C4    C51   A    
C29   O5    S    
C43   O4    S    
C41   H13   S    
C1    O1    A    
C21   H1    S    
C50   H40   S    
C15   C26   A    
Cu1   O1    S    
C32   C37   A    
C11   O15   A    
C18   H34   S    
Cu2   O13   S    
C31   O7    S    
C35   C39   A    
C13   O14   A    
C46   H27   S    
C45   C49   T    
C16   C20   A    
C4    H6    S    
C42   H18   S    
C48   H33   S    
C37   H39   S    
C47   H30   S    
C8    C51   A    
C1    O11   A    
C30   C35   A    
C6    N2    A    
C48   H35   S    
C48   H32   S    
C15   O2    S    
C23   C29   A    
C41   H15   S    
C7    C9    S    
C34   C49   S    
C16   C22   A    
Cu2   O9    S    
C31   C36   A    
C44   H25   S    
C2    C8    A    
C24   C28   A    
C7    C50   A    
C44   O5    S    
C2    H4    S    
C16   O3    S    
C33   C38   A    
C40   H10   S    
C22   C27   A    
C23   C32   A    
C6    H8    S    
C44   H24   S    
C33   H36   S    
C12   O10   A    
Cu1   O12   S    
C11   C28   S    
C42   H17   S    
Cu2   O15   S    
C18   C20   A    
C14   C25   A    
C12   C38   S    
C17   O4    S    
C40   H11   S    
C52   H3    S    
C1    C39   S    
C8    C10   S    
C11   O12   A    
C41   O2    S    
C13   C27   S    
C3    N1    A    
C42   O3    S    
C5    H7    S    
C3    H5    S    
C17   C21   A    
